
     RDKit          3D

 40 43  0  0  0  0  0  0  0  0999 V2000
  -20.5741  -43.1413   -1.5879 C   0  0  0  0  0  0  0  0  0  0  0  0
  -20.8696  -42.3224   -2.7029 O   0  0  0  0  0  0  0  0  0  0  0  0
  -21.4430  -42.9219   -3.8089 C   0  0  0  0  0  0  0  0  0  0  0  0
  -22.3362  -43.7865   -3.6457 O   0  0  0  0  0  0  0  0  0  0  0  0
  -21.0493  -42.5882   -5.1750 C   0  0  0  0  0  0  0  0  0  0  0  0
  -21.8539  -42.8516   -6.2476 C   0  0  0  0  0  0  0  0  0  0  0  0
  -21.4800  -42.5363   -7.5712 C   0  0  0  0  0  0  0  0  0  0  0  0
  -20.2564  -41.9372   -7.8358 C   0  0  0  0  0  0  0  0  0  0  0  0
  -19.4256  -41.6579   -6.7777 C   0  0  0  0  0  0  0  0  0  0  0  0
  -19.8530  -41.9976   -5.4610 C   0  0  0  0  0  0  0  0  0  0  0  0
  -18.0948  -41.0326   -6.7065 C   0  0  0  0  0  0  0  0  0  0  0  0
  -17.2237  -41.5873   -5.8892 O   0  0  0  0  0  0  0  0  0  0  0  0
  -17.5076  -39.9224   -7.3381 N   0  0  0  0  0  0  0  0  0  0  0  0
  -17.9178  -39.3002   -8.5754 C   0  0  1  0  0  0  0  0  0  0  0  0
  -18.7576  -38.0737   -8.2405 C   0  0  0  0  0  0  0  0  0  0  0  0
  -20.1900  -38.3758   -7.9391 C   0  0  0  0  0  0  0  0  0  0  0  0
  -21.2004  -38.7744   -8.7784 C   0  0  0  0  0  0  0  0  0  0  0  0
  -22.4462  -38.9859   -8.2532 C   0  0  0  0  0  0  0  0  0  0  0  0
  -23.7422  -39.4191   -8.8399 C   0  0  0  0  0  0  0  0  0  0  0  0
  -24.3819  -40.5258   -8.0024 C   0  0  0  0  0  0  0  0  0  0  0  0
  -24.5552  -41.7856   -8.8641 C   0  0  0  0  0  0  0  0  0  0  0  0
  -23.2527  -42.2599   -9.4145 C   0  0  0  0  0  0  0  0  0  0  0  0
  -22.4797  -42.9093   -8.4512 O   0  0  0  0  0  0  0  0  0  0  0  0
  -22.6621  -38.7881   -6.8602 C   0  0  0  0  0  0  0  0  0  0  0  0
  -21.6915  -38.3939   -5.9895 C   0  0  0  0  0  0  0  0  0  0  0  0
  -20.4614  -38.1955   -6.5614 C   0  0  0  0  0  0  0  0  0  0  0  0
  -16.6819  -38.8331   -9.3269 C   0  0  2  0  0  0  0  0  0  0  0  0
  -15.8265  -39.9441   -9.5604 O   0  0  0  0  0  0  0  0  0  0  0  0
  -15.8574  -37.8710   -8.5450 C   0  0  0  0  0  0  0  0  0  0  0  0
  -14.6211  -38.3789   -8.0262 N   0  0  0  0  0  0  0  0  0  0  0  0
  -13.7596  -38.8073   -9.1180 C   0  0  0  0  0  0  0  0  0  0  0  0
  -13.5555  -37.7672  -10.1278 C   0  0  0  0  0  0  0  0  0  0  0  0
  -13.1678  -38.0555  -11.4112 C   0  0  0  0  0  0  0  0  0  0  0  0
  -12.9653  -37.0952  -12.3847 C   0  0  0  0  0  0  0  0  0  0  0  0
  -13.1680  -35.7711  -12.0349 C   0  0  0  0  0  0  0  0  0  0  0  0
  -13.5590  -35.4646  -10.7451 C   0  0  0  0  0  0  0  0  0  0  0  0
  -13.7567  -36.4480   -9.7816 C   0  0  0  0  0  0  0  0  0  0  0  0
  -12.5465  -37.4790  -13.7584 C   0  0  0  0  0  0  0  0  0  0  0  0
  -12.9969  -38.8986  -14.0435 C   0  0  0  0  0  0  0  0  0  0  0  0
  -11.0517  -37.3503  -13.9004 C   0  0  0  0  0  0  0  0  0  0  0  0
  1  2  1  0
  2  3  1  0
  3  4  2  0
  3  5  1  0
  5  6  2  0
  6  7  1  0
  7  8  2  0
  8  9  1  0
  9 10  2  0
  9 11  1  0
 11 12  2  0
 11 13  1  0
 13 14  1  0
 14 15  1  1
 15 16  1  0
 16 17  1  0
 17 18  2  0
 18 19  1  0
 19 20  1  0
 20 21  1  0
 21 22  1  0
 22 23  1  0
 18 24  1  0
 24 25  2  0
 25 26  1  0
 14 27  1  0
 27 28  1  1
 27 29  1  0
 29 30  1  0
 30 31  1  0
 31 32  1  0
 32 33  2  0
 33 34  1  0
 34 35  2  0
 35 36  1  0
 36 37  2  0
 34 38  1  0
 38 39  1  0
 38 40  1  0
 10  5  1  0
 23  7  1  0
 26 16  2  0
 37 32  1  0
M  END
$$$$
