
     RDKit          3D

 40 43  0  0  0  0  0  0  0  0999 V2000
  -25.4661  -38.7584   -8.8681 C   0  0  0  0  0  0  0  0  0  0  0  0
  -24.0528  -38.8190   -8.8766 O   0  0  0  0  0  0  0  0  0  0  0  0
  -23.4514  -39.7174   -9.7381 C   0  0  0  0  0  0  0  0  0  0  0  0
  -24.1617  -40.3736  -10.5362 O   0  0  0  0  0  0  0  0  0  0  0  0
  -22.0080  -39.9385   -9.7596 C   0  0  0  0  0  0  0  0  0  0  0  0
  -21.3825  -40.5499  -10.8093 C   0  0  0  0  0  0  0  0  0  0  0  0
  -19.9890  -40.7710  -10.8368 C   0  0  0  0  0  0  0  0  0  0  0  0
  -19.1890  -40.3689   -9.7765 C   0  0  0  0  0  0  0  0  0  0  0  0
  -19.7886  -39.7493   -8.7066 C   0  0  0  0  0  0  0  0  0  0  0  0
  -21.1999  -39.5510   -8.7307 C   0  0  0  0  0  0  0  0  0  0  0  0
  -19.2460  -39.2017   -7.4525 C   0  0  0  0  0  0  0  0  0  0  0  0
  -19.9313  -39.4464   -6.3549 O   0  0  0  0  0  0  0  0  0  0  0  0
  -18.1095  -38.4365   -7.1377 N   0  0  0  0  0  0  0  0  0  0  0  0
  -16.8982  -38.3069   -7.9137 C   0  0  1  0  0  0  0  0  0  0  0  0
  -16.9738  -37.0090   -8.7084 C   0  0  0  0  0  0  0  0  0  0  0  0
  -17.7544  -37.1133   -9.9788 C   0  0  0  0  0  0  0  0  0  0  0  0
  -17.4433  -37.7533  -11.1525 C   0  0  0  0  0  0  0  0  0  0  0  0
  -18.3359  -37.6977  -12.1881 C   0  0  0  0  0  0  0  0  0  0  0  0
  -18.3412  -38.2625  -13.5638 C   0  0  0  0  0  0  0  0  0  0  0  0
  -19.6733  -38.9450  -13.8724 C   0  0  0  0  0  0  0  0  0  0  0  0
  -19.4279  -40.4272  -14.1923 C   0  0  0  0  0  0  0  0  0  0  0  0
  -18.7520  -41.1297  -13.0634 C   0  0  0  0  0  0  0  0  0  0  0  0
  -19.6294  -41.4031  -12.0132 O   0  0  0  0  0  0  0  0  0  0  0  0
  -19.5555  -36.9823  -12.0242 C   0  0  0  0  0  0  0  0  0  0  0  0
  -19.9074  -36.3329  -10.8797 C   0  0  0  0  0  0  0  0  0  0  0  0
  -18.9826  -36.4174   -9.8711 C   0  0  0  0  0  0  0  0  0  0  0  0
  -15.7129  -38.2104   -6.9669 C   0  0  2  0  0  0  0  0  0  0  0  0
  -14.5174  -38.4959   -7.6807 O   0  0  0  0  0  0  0  0  0  0  0  0
  -15.7596  -39.2217   -5.8752 C   0  0  0  0  0  0  0  0  0  0  0  0
  -16.2607  -40.5153   -6.2374 N   0  0  0  0  0  0  0  0  0  0  0  0
  -17.0408  -41.0732   -5.1430 C   0  0  0  0  0  0  0  0  0  0  0  0
  -18.3890  -41.4751   -5.5480 C   0  0  0  0  0  0  0  0  0  0  0  0
  -19.4154  -41.6132   -4.6491 C   0  0  0  0  0  0  0  0  0  0  0  0
  -20.6970  -41.9930   -5.0014 C   0  0  0  0  0  0  0  0  0  0  0  0
  -20.9486  -42.2458   -6.3391 C   0  0  0  0  0  0  0  0  0  0  0  0
  -19.9243  -42.1108   -7.2572 C   0  0  0  0  0  0  0  0  0  0  0  0
  -18.6419  -41.7273   -6.8795 C   0  0  0  0  0  0  0  0  0  0  0  0
  -21.7635  -42.1213   -3.9739 C   0  0  0  0  0  0  0  0  0  0  0  0
  -21.3714  -41.3314   -2.7404 C   0  0  0  0  0  0  0  0  0  0  0  0
  -21.9857  -43.5728   -3.6348 C   0  0  0  0  0  0  0  0  0  0  0  0
  1  2  1  0
  2  3  1  0
  3  4  2  0
  3  5  1  0
  5  6  2  0
  6  7  1  0
  7  8  2  0
  8  9  1  0
  9 10  2  0
  9 11  1  0
 11 12  2  0
 11 13  1  0
 13 14  1  0
 14 15  1  1
 15 16  1  0
 16 17  1  0
 17 18  2  0
 18 19  1  0
 19 20  1  0
 20 21  1  0
 21 22  1  0
 22 23  1  0
 18 24  1  0
 24 25  2  0
 25 26  1  0
 14 27  1  0
 27 28  1  6
 27 29  1  0
 29 30  1  0
 30 31  1  0
 31 32  1  0
 32 33  2  0
 33 34  1  0
 34 35  2  0
 35 36  1  0
 36 37  2  0
 34 38  1  0
 38 39  1  0
 38 40  1  0
 10  5  1  0
 23  7  1  0
 26 16  2  0
 37 32  1  0
M  END
$$$$
