
     RDKit          3D

 40 43  0  0  0  0  0  0  0  0999 V2000
  -21.4889  -45.0007   -3.5895 C   0  0  0  0  0  0  0  0  0  0  0  0
  -21.7279  -44.1373   -4.6842 O   0  0  0  0  0  0  0  0  0  0  0  0
  -21.2167  -44.5016   -5.9160 C   0  0  0  0  0  0  0  0  0  0  0  0
  -21.1341  -45.7171   -6.2123 O   0  0  0  0  0  0  0  0  0  0  0  0
  -20.7634  -43.5212   -6.8988 C   0  0  0  0  0  0  0  0  0  0  0  0
  -21.4856  -43.2311   -8.0218 C   0  0  0  0  0  0  0  0  0  0  0  0
  -21.0534  -42.2882   -8.9786 C   0  0  0  0  0  0  0  0  0  0  0  0
  -19.8544  -41.6100   -8.8102 C   0  0  0  0  0  0  0  0  0  0  0  0
  -19.1059  -41.8786   -7.6895 C   0  0  0  0  0  0  0  0  0  0  0  0
  -19.5897  -42.8403   -6.7553 C   0  0  0  0  0  0  0  0  0  0  0  0
  -17.8215  -41.3433   -7.2094 C   0  0  0  0  0  0  0  0  0  0  0  0
  -16.9688  -42.2126   -6.7079 O   0  0  0  0  0  0  0  0  0  0  0  0
  -17.2653  -40.0532   -7.1560 N   0  0  0  0  0  0  0  0  0  0  0  0
  -17.6378  -38.9052   -7.9494 C   0  0  1  0  0  0  0  0  0  0  0  0
  -18.5678  -38.0293   -7.1190 C   0  0  0  0  0  0  0  0  0  0  0  0
  -19.9950  -38.4733   -7.1251 C   0  0  0  0  0  0  0  0  0  0  0  0
  -20.9282  -38.4214   -8.1304 C   0  0  0  0  0  0  0  0  0  0  0  0
  -22.1880  -38.8946   -7.8828 C   0  0  0  0  0  0  0  0  0  0  0  0
  -23.4188  -39.0052   -8.7103 C   0  0  0  0  0  0  0  0  0  0  0  0
  -24.0397  -40.3963   -8.5882 C   0  0  0  0  0  0  0  0  0  0  0  0
  -24.0859  -41.0603   -9.9727 C   0  0  0  0  0  0  0  0  0  0  0  0
  -22.7270  -41.1669  -10.5781 C   0  0  0  0  0  0  0  0  0  0  0  0
  -21.9750  -42.1935  -10.0054 O   0  0  0  0  0  0  0  0  0  0  0  0
  -22.4976  -39.4243   -6.5984 C   0  0  0  0  0  0  0  0  0  0  0  0
  -21.6058  -39.4967   -5.5714 C   0  0  0  0  0  0  0  0  0  0  0  0
  -20.3580  -39.0118   -5.8671 C   0  0  0  0  0  0  0  0  0  0  0  0
  -16.3896  -38.0977   -8.2664 C   0  0  2  0  0  0  0  0  0  0  0  0
  -16.6577  -37.2283   -9.3584 O   0  0  0  0  0  0  0  0  0  0  0  0
  -15.2516  -38.9441   -8.7194 C   0  0  0  0  0  0  0  0  0  0  0  0
  -14.9546  -40.0865   -7.9055 N   0  0  0  0  0  0  0  0  0  0  0  0
  -14.1729  -41.0511   -8.6646 C   0  0  0  0  0  0  0  0  0  0  0  0
  -13.5977  -40.4865   -9.8867 C   0  0  0  0  0  0  0  0  0  0  0  0
  -12.7578  -39.4027   -9.8705 C   0  0  0  0  0  0  0  0  0  0  0  0
  -12.2017  -38.8468  -11.0075 C   0  0  0  0  0  0  0  0  0  0  0  0
  -12.5161  -39.4239  -12.2260 C   0  0  0  0  0  0  0  0  0  0  0  0
  -13.3613  -40.5170  -12.2586 C   0  0  0  0  0  0  0  0  0  0  0  0
  -13.9095  -41.0595  -11.1012 C   0  0  0  0  0  0  0  0  0  0  0  0
  -11.2962  -37.6714  -10.9167 C   0  0  0  0  0  0  0  0  0  0  0  0
  -12.0309  -36.4326  -11.3912 C   0  0  0  0  0  0  0  0  0  0  0  0
  -10.0547  -37.9078  -11.7376 C   0  0  0  0  0  0  0  0  0  0  0  0
  1  2  1  0
  2  3  1  0
  3  4  2  0
  3  5  1  0
  5  6  2  0
  6  7  1  0
  7  8  2  0
  8  9  1  0
  9 10  2  0
  9 11  1  0
 11 12  2  0
 11 13  1  0
 13 14  1  0
 14 15  1  1
 15 16  1  0
 16 17  1  0
 17 18  2  0
 18 19  1  0
 19 20  1  0
 20 21  1  0
 21 22  1  0
 22 23  1  0
 18 24  1  0
 24 25  2  0
 25 26  1  0
 14 27  1  0
 27 28  1  6
 27 29  1  0
 29 30  1  0
 30 31  1  0
 31 32  1  0
 32 33  2  0
 33 34  1  0
 34 35  2  0
 35 36  1  0
 36 37  2  0
 34 38  1  0
 38 39  1  0
 38 40  1  0
 10  5  1  0
 23  7  1  0
 26 16  2  0
 37 32  1  0
M  END
$$$$
