
     RDKit          3D

 40 43  0  0  0  0  0  0  0  0999 V2000
  -21.5664  -41.2170   -1.3718 C   0  0  0  0  0  0  0  0  0  0  0  0
  -21.3467  -40.8043   -2.7069 O   0  0  0  0  0  0  0  0  0  0  0  0
  -22.1310  -41.3713   -3.6942 C   0  0  0  0  0  0  0  0  0  0  0  0
  -23.3055  -41.7168   -3.4237 O   0  0  0  0  0  0  0  0  0  0  0  0
  -21.6456  -41.5882   -5.0544 C   0  0  0  0  0  0  0  0  0  0  0  0
  -22.4345  -42.1308   -6.0291 C   0  0  0  0  0  0  0  0  0  0  0  0
  -21.9728  -42.3476   -7.3448 C   0  0  0  0  0  0  0  0  0  0  0  0
  -20.6743  -42.0122   -7.7018 C   0  0  0  0  0  0  0  0  0  0  0  0
  -19.8567  -41.4627   -6.7439 C   0  0  0  0  0  0  0  0  0  0  0  0
  -20.3743  -41.2655   -5.4306 C   0  0  0  0  0  0  0  0  0  0  0  0
  -18.4617  -40.9948   -6.7878 C   0  0  0  0  0  0  0  0  0  0  0  0
  -17.6997  -41.3097   -5.7609 O   0  0  0  0  0  0  0  0  0  0  0  0
  -17.7154  -40.2492   -7.7171 N   0  0  0  0  0  0  0  0  0  0  0  0
  -17.9957  -40.0688   -9.1224 C   0  0  1  0  0  0  0  0  0  0  0  0
  -18.6870  -38.7233   -9.3051 C   0  0  0  0  0  0  0  0  0  0  0  0
  -20.1568  -38.7480   -9.0342 C   0  0  0  0  0  0  0  0  0  0  0  0
  -21.1758  -39.3119   -9.7607 C   0  0  0  0  0  0  0  0  0  0  0  0
  -22.4577  -39.1921   -9.2973 C   0  0  0  0  0  0  0  0  0  0  0  0
  -23.7742  -39.6686   -9.7989 C   0  0  0  0  0  0  0  0  0  0  0  0
  -24.5800  -40.3323   -8.6828 C   0  0  0  0  0  0  0  0  0  0  0  0
  -24.8766  -41.7909   -9.0624 C   0  0  0  0  0  0  0  0  0  0  0  0
  -23.6236  -42.5624   -9.3058 C   0  0  0  0  0  0  0  0  0  0  0  0
  -22.9764  -42.9032   -8.1173 O   0  0  0  0  0  0  0  0  0  0  0  0
  -22.7011  -38.4905   -8.0829 C   0  0  0  0  0  0  0  0  0  0  0  0
  -21.7233  -37.9155   -7.3287 C   0  0  0  0  0  0  0  0  0  0  0  0
  -20.4567  -38.0623   -7.8325 C   0  0  0  0  0  0  0  0  0  0  0  0
  -16.6826  -40.0306   -9.8871 C   0  0  2  0  0  0  0  0  0  0  0  0
  -16.0152  -41.2765   -9.7367 O   0  0  0  0  0  0  0  0  0  0  0  0
  -15.7306  -39.0178   -9.3535 C   0  0  0  0  0  0  0  0  0  0  0  0
  -15.1305  -39.3243   -8.0879 N   0  0  0  0  0  0  0  0  0  0  0  0
  -13.6866  -39.1610   -8.1671 C   0  0  0  0  0  0  0  0  0  0  0  0
  -13.2064  -38.9714   -9.5370 C   0  0  0  0  0  0  0  0  0  0  0  0
  -12.6766  -37.7837   -9.9718 C   0  0  0  0  0  0  0  0  0  0  0  0
  -12.2175  -37.5746  -11.2589 C   0  0  0  0  0  0  0  0  0  0  0  0
  -12.3013  -38.6296  -12.1515 C   0  0  0  0  0  0  0  0  0  0  0  0
  -12.8328  -39.8331  -11.7281 C   0  0  0  0  0  0  0  0  0  0  0  0
  -13.2889  -40.0206  -10.4276 C   0  0  0  0  0  0  0  0  0  0  0  0
  -11.6525  -36.2603  -11.6625 C   0  0  0  0  0  0  0  0  0  0  0  0
  -11.0268  -35.5895  -10.4550 C   0  0  0  0  0  0  0  0  0  0  0  0
  -12.7305  -35.3935  -12.2607 C   0  0  0  0  0  0  0  0  0  0  0  0
  1  2  1  0
  2  3  1  0
  3  4  2  0
  3  5  1  0
  5  6  2  0
  6  7  1  0
  7  8  2  0
  8  9  1  0
  9 10  2  0
  9 11  1  0
 11 12  2  0
 11 13  1  0
 13 14  1  0
 14 15  1  1
 15 16  1  0
 16 17  1  0
 17 18  2  0
 18 19  1  0
 19 20  1  0
 20 21  1  0
 21 22  1  0
 22 23  1  0
 18 24  1  0
 24 25  2  0
 25 26  1  0
 14 27  1  0
 27 28  1  1
 27 29  1  0
 29 30  1  0
 30 31  1  0
 31 32  1  0
 32 33  2  0
 33 34  1  0
 34 35  2  0
 35 36  1  0
 36 37  2  0
 34 38  1  0
 38 39  1  0
 38 40  1  0
 10  5  1  0
 23  7  1  0
 26 16  2  0
 37 32  1  0
M  END
$$$$
