
     RDKit          3D

 40 43  0  0  0  0  0  0  0  0999 V2000
  -19.7741  -47.2923   -5.5452 C   0  0  0  0  0  0  0  0  0  0  0  0
  -20.8380  -46.7091   -6.2726 O   0  0  0  0  0  0  0  0  0  0  0  0
  -21.1614  -45.3933   -5.9982 C   0  0  0  0  0  0  0  0  0  0  0  0
  -21.7685  -45.1180   -4.9362 O   0  0  0  0  0  0  0  0  0  0  0  0
  -20.8230  -44.2970   -6.9016 C   0  0  0  0  0  0  0  0  0  0  0  0
  -21.6589  -43.9002   -7.9070 C   0  0  0  0  0  0  0  0  0  0  0  0
  -21.3385  -42.8446   -8.7870 C   0  0  0  0  0  0  0  0  0  0  0  0
  -20.1380  -42.1597   -8.6609 C   0  0  0  0  0  0  0  0  0  0  0  0
  -19.2767  -42.5342   -7.6579 C   0  0  0  0  0  0  0  0  0  0  0  0
  -19.6504  -43.6072   -6.7973 C   0  0  0  0  0  0  0  0  0  0  0  0
  -17.9579  -42.0243   -7.2484 C   0  0  0  0  0  0  0  0  0  0  0  0
  -17.0471  -42.9230   -6.9368 O   0  0  0  0  0  0  0  0  0  0  0  0
  -17.4170  -40.7349   -7.1022 N   0  0  0  0  0  0  0  0  0  0  0  0
  -17.8835  -39.5145   -7.7177 C   0  0  1  0  0  0  0  0  0  0  0  0
  -18.7370  -38.7617   -6.7045 C   0  0  0  0  0  0  0  0  0  0  0  0
  -20.1513  -39.2381   -6.6208 C   0  0  0  0  0  0  0  0  0  0  0  0
  -21.1817  -39.0965   -7.5164 C   0  0  0  0  0  0  0  0  0  0  0  0
  -22.4035  -39.6263   -7.2019 C   0  0  0  0  0  0  0  0  0  0  0  0
  -23.7098  -39.6737   -7.9111 C   0  0  0  0  0  0  0  0  0  0  0  0
  -24.2959  -41.0849   -7.8891 C   0  0  0  0  0  0  0  0  0  0  0  0
  -24.4724  -41.5891   -9.3293 C   0  0  0  0  0  0  0  0  0  0  0  0
  -23.1802  -41.5923  -10.0741 C   0  0  0  0  0  0  0  0  0  0  0  0
  -22.3602  -42.6578   -9.7002 O   0  0  0  0  0  0  0  0  0  0  0  0
  -22.5746  -40.3054   -5.9626 C   0  0  0  0  0  0  0  0  0  0  0  0
  -21.5827  -40.4709   -5.0438 C   0  0  0  0  0  0  0  0  0  0  0  0
  -20.3780  -39.9242   -5.4034 C   0  0  0  0  0  0  0  0  0  0  0  0
  -16.6849  -38.6450   -8.0614 C   0  0  2  0  0  0  0  0  0  0  0  0
  -17.1389  -37.3698   -8.4951 O   0  0  0  0  0  0  0  0  0  0  0  0
  -15.8902  -39.1784   -9.2019 C   0  0  0  0  0  0  0  0  0  0  0  0
  -14.4680  -39.0265   -9.1028 N   0  0  0  0  0  0  0  0  0  0  0  0
  -13.7996  -40.1211   -9.7902 C   0  0  0  0  0  0  0  0  0  0  0  0
  -13.5418  -39.8373  -11.2030 C   0  0  0  0  0  0  0  0  0  0  0  0
  -13.3871  -38.5608  -11.6794 C   0  0  0  0  0  0  0  0  0  0  0  0
  -13.1453  -38.2623  -13.0074 C   0  0  0  0  0  0  0  0  0  0  0  0
  -13.0556  -39.3180  -13.8985 C   0  0  0  0  0  0  0  0  0  0  0  0
  -13.2092  -40.6104  -13.4334 C   0  0  0  0  0  0  0  0  0  0  0  0
  -13.4522  -40.8871  -12.0922 C   0  0  0  0  0  0  0  0  0  0  0  0
  -12.9858  -36.8538  -13.4551 C   0  0  0  0  0  0  0  0  0  0  0  0
  -11.5134  -36.4912  -13.4601 C   0  0  0  0  0  0  0  0  0  0  0  0
  -13.7638  -35.9310  -12.5528 C   0  0  0  0  0  0  0  0  0  0  0  0
  1  2  1  0
  2  3  1  0
  3  4  2  0
  3  5  1  0
  5  6  2  0
  6  7  1  0
  7  8  2  0
  8  9  1  0
  9 10  2  0
  9 11  1  0
 11 12  2  0
 11 13  1  0
 13 14  1  0
 14 15  1  1
 15 16  1  0
 16 17  1  0
 17 18  2  0
 18 19  1  0
 19 20  1  0
 20 21  1  0
 21 22  1  0
 22 23  1  0
 18 24  1  0
 24 25  2  0
 25 26  1  0
 14 27  1  0
 27 28  1  6
 27 29  1  0
 29 30  1  0
 30 31  1  0
 31 32  1  0
 32 33  2  0
 33 34  1  0
 34 35  2  0
 35 36  1  0
 36 37  2  0
 34 38  1  0
 38 39  1  0
 38 40  1  0
 10  5  1  0
 23  7  1  0
 26 16  2  0
 37 32  1  0
M  END
$$$$
