
     RDKit          3D

 40 43  0  0  0  0  0  0  0  0999 V2000
  -20.9147  -41.4866   -1.8309 C   0  0  0  0  0  0  0  0  0  0  0  0
  -20.1881  -42.4785   -2.5305 O   0  0  0  0  0  0  0  0  0  0  0  0
  -20.8018  -43.0858   -3.6101 C   0  0  0  0  0  0  0  0  0  0  0  0
  -21.6001  -44.0320   -3.4113 O   0  0  0  0  0  0  0  0  0  0  0  0
  -20.5581  -42.6689   -4.9883 C   0  0  0  0  0  0  0  0  0  0  0  0
  -21.4841  -42.8502   -5.9765 C   0  0  0  0  0  0  0  0  0  0  0  0
  -21.2557  -42.4540   -7.3115 C   0  0  0  0  0  0  0  0  0  0  0  0
  -20.0574  -41.8559   -7.6755 C   0  0  0  0  0  0  0  0  0  0  0  0
  -19.1065  -41.6582   -6.7035 C   0  0  0  0  0  0  0  0  0  0  0  0
  -19.3895  -42.0774   -5.3710 C   0  0  0  0  0  0  0  0  0  0  0  0
  -17.7632  -41.0576   -6.7452 C   0  0  0  0  0  0  0  0  0  0  0  0
  -16.8173  -41.6766   -6.0697 O   0  0  0  0  0  0  0  0  0  0  0  0
  -17.2277  -39.9166   -7.3680 N   0  0  0  0  0  0  0  0  0  0  0  0
  -17.7618  -39.2090   -8.5082 C   0  0  1  0  0  0  0  0  0  0  0  0
  -18.5320  -37.9955   -8.0023 C   0  0  0  0  0  0  0  0  0  0  0  0
  -19.9273  -38.2968   -7.5592 C   0  0  0  0  0  0  0  0  0  0  0  0
  -21.0344  -38.6254   -8.3012 C   0  0  0  0  0  0  0  0  0  0  0  0
  -22.2170  -38.8534   -7.6517 C   0  0  0  0  0  0  0  0  0  0  0  0
  -23.5800  -39.2291   -8.1128 C   0  0  0  0  0  0  0  0  0  0  0  0
  -24.1443  -40.3794   -7.2797 C   0  0  0  0  0  0  0  0  0  0  0  0
  -24.4407  -41.5774   -8.1943 C   0  0  0  0  0  0  0  0  0  0  0  0
  -23.2191  -42.0327   -8.9189 C   0  0  0  0  0  0  0  0  0  0  0  0
  -22.3561  -42.7546   -8.0934 O   0  0  0  0  0  0  0  0  0  0  0  0
  -22.2697  -38.7443   -6.2334 C   0  0  0  0  0  0  0  0  0  0  0  0
  -21.1988  -38.4217   -5.4559 C   0  0  0  0  0  0  0  0  0  0  0  0
  -20.0373  -38.2033   -6.1508 C   0  0  0  0  0  0  0  0  0  0  0  0
  -16.6091  -38.7109   -9.3648 C   0  0  2  0  0  0  0  0  0  0  0  0
  -17.1036  -38.3296  -10.6417 O   0  0  0  0  0  0  0  0  0  0  0  0
  -15.5967  -39.7663   -9.6443 C   0  0  0  0  0  0  0  0  0  0  0  0
  -14.2774  -39.5216   -9.1391 N   0  0  0  0  0  0  0  0  0  0  0  0
  -13.2883  -40.1562   -9.9972 C   0  0  0  0  0  0  0  0  0  0  0  0
  -13.1294  -39.4791  -11.2854 C   0  0  0  0  0  0  0  0  0  0  0  0
  -12.9114  -38.1287  -11.3834 C   0  0  0  0  0  0  0  0  0  0  0  0
  -12.7599  -37.4619  -12.5848 C   0  0  0  0  0  0  0  0  0  0  0  0
  -12.8337  -38.2078  -13.7488 C   0  0  0  0  0  0  0  0  0  0  0  0
  -13.0529  -39.5700  -13.6663 C   0  0  0  0  0  0  0  0  0  0  0  0
  -13.2026  -40.2198  -12.4457 C   0  0  0  0  0  0  0  0  0  0  0  0
  -12.5238  -35.9947  -12.6177 C   0  0  0  0  0  0  0  0  0  0  0  0
  -11.1682  -35.6895  -12.0105 C   0  0  0  0  0  0  0  0  0  0  0  0
  -13.6200  -35.2757  -11.8744 C   0  0  0  0  0  0  0  0  0  0  0  0
  1  2  1  0
  2  3  1  0
  3  4  2  0
  3  5  1  0
  5  6  2  0
  6  7  1  0
  7  8  2  0
  8  9  1  0
  9 10  2  0
  9 11  1  0
 11 12  2  0
 11 13  1  0
 13 14  1  0
 14 15  1  1
 15 16  1  0
 16 17  1  0
 17 18  2  0
 18 19  1  0
 19 20  1  0
 20 21  1  0
 21 22  1  0
 22 23  1  0
 18 24  1  0
 24 25  2  0
 25 26  1  0
 14 27  1  0
 27 28  1  6
 27 29  1  0
 29 30  1  0
 30 31  1  0
 31 32  1  0
 32 33  2  0
 33 34  1  0
 34 35  2  0
 35 36  1  0
 36 37  2  0
 34 38  1  0
 38 39  1  0
 38 40  1  0
 10  5  1  0
 23  7  1  0
 26 16  2  0
 37 32  1  0
M  END
$$$$
