
     RDKit          3D

 40 43  0  0  0  0  0  0  0  0999 V2000
  -20.7098  -47.0460   -5.3244 C   0  0  0  0  0  0  0  0  0  0  0  0
  -20.0016  -46.2648   -6.2674 O   0  0  0  0  0  0  0  0  0  0  0  0
  -20.7098  -45.7425   -7.3336 C   0  0  0  0  0  0  0  0  0  0  0  0
  -21.6210  -46.4246   -7.8597 O   0  0  0  0  0  0  0  0  0  0  0  0
  -20.4401  -44.4156   -7.8806 C   0  0  0  0  0  0  0  0  0  0  0  0
  -21.3216  -43.7778   -8.7071 C   0  0  0  0  0  0  0  0  0  0  0  0
  -21.0677  -42.4975   -9.2433 C   0  0  0  0  0  0  0  0  0  0  0  0
  -19.8889  -41.8282   -8.9455 C   0  0  0  0  0  0  0  0  0  0  0  0
  -18.9828  -42.4428   -8.1152 C   0  0  0  0  0  0  0  0  0  0  0  0
  -19.2901  -43.7364   -7.6016 C   0  0  0  0  0  0  0  0  0  0  0  0
  -17.6705  -42.0187   -7.6006 C   0  0  0  0  0  0  0  0  0  0  0  0
  -16.7186  -42.9287   -7.5863 O   0  0  0  0  0  0  0  0  0  0  0  0
  -17.1715  -40.8068   -7.0920 N   0  0  0  0  0  0  0  0  0  0  0  0
  -17.7008  -39.4809   -7.3109 C   0  0  1  0  0  0  0  0  0  0  0  0
  -18.5474  -39.0968   -6.1036 C   0  0  0  0  0  0  0  0  0  0  0  0
  -19.9403  -39.6379   -6.1351 C   0  0  0  0  0  0  0  0  0  0  0  0
  -21.0036  -39.2846   -6.9281 C   0  0  0  0  0  0  0  0  0  0  0  0
  -22.1949  -39.9361   -6.7588 C   0  0  0  0  0  0  0  0  0  0  0  0
  -23.5209  -39.8301   -7.4237 C   0  0  0  0  0  0  0  0  0  0  0  0
  -24.0554  -41.2096   -7.8066 C   0  0  0  0  0  0  0  0  0  0  0  0
  -24.2603  -41.2759   -9.3275 C   0  0  0  0  0  0  0  0  0  0  0  0
  -22.9934  -41.0040  -10.0663 C   0  0  0  0  0  0  0  0  0  0  0  0
  -22.1243  -42.0955  -10.0399 O   0  0  0  0  0  0  0  0  0  0  0  0
  -22.3015  -40.9559   -5.7715 C   0  0  0  0  0  0  0  0  0  0  0  0
  -21.2752  -41.3405   -4.9626 C   0  0  0  0  0  0  0  0  0  0  0  0
  -20.1030  -40.6605   -5.1697 C   0  0  0  0  0  0  0  0  0  0  0  0
  -16.5457  -38.4976   -7.4074 C   0  0  2  0  0  0  0  0  0  0  0  0
  -17.0032  -37.1995   -7.0525 O   0  0  0  0  0  0  0  0  0  0  0  0
  -16.0209  -38.3545   -8.7934 C   0  0  0  0  0  0  0  0  0  0  0  0
  -15.4557  -39.5359   -9.3769 N   0  0  0  0  0  0  0  0  0  0  0  0
  -15.1501  -39.3028  -10.7803 C   0  0  0  0  0  0  0  0  0  0  0  0
  -13.7180  -39.1367  -11.0343 C   0  0  0  0  0  0  0  0  0  0  0  0
  -13.2084  -38.0365  -11.6750 C   0  0  0  0  0  0  0  0  0  0  0  0
  -11.8622  -37.8534  -11.9305 C   0  0  0  0  0  0  0  0  0  0  0  0
  -10.9874  -38.8414  -11.5121 C   0  0  0  0  0  0  0  0  0  0  0  0
  -11.4859  -39.9563  -10.8649 C   0  0  0  0  0  0  0  0  0  0  0  0
  -12.8450  -40.1193  -10.6186 C   0  0  0  0  0  0  0  0  0  0  0  0
  -11.3780  -36.6338  -12.6289 C   0  0  0  0  0  0  0  0  0  0  0  0
  -12.4696  -36.1101  -13.5420 C   0  0  0  0  0  0  0  0  0  0  0  0
  -10.1272  -36.9449  -13.4098 C   0  0  0  0  0  0  0  0  0  0  0  0
  1  2  1  0
  2  3  1  0
  3  4  2  0
  3  5  1  0
  5  6  2  0
  6  7  1  0
  7  8  2  0
  8  9  1  0
  9 10  2  0
  9 11  1  0
 11 12  2  0
 11 13  1  0
 13 14  1  0
 14 15  1  1
 15 16  1  0
 16 17  1  0
 17 18  2  0
 18 19  1  0
 19 20  1  0
 20 21  1  0
 21 22  1  0
 22 23  1  0
 18 24  1  0
 24 25  2  0
 25 26  1  0
 14 27  1  0
 27 28  1  6
 27 29  1  0
 29 30  1  0
 30 31  1  0
 31 32  1  0
 32 33  2  0
 33 34  1  0
 34 35  2  0
 35 36  1  0
 36 37  2  0
 34 38  1  0
 38 39  1  0
 38 40  1  0
 10  5  1  0
 23  7  1  0
 26 16  2  0
 37 32  1  0
M  END
$$$$
