
     RDKit          3D

 40 43  0  0  0  0  0  0  0  0999 V2000
  -20.2887  -43.3378   -1.6199 C   0  0  0  0  0  0  0  0  0  0  0  0
  -20.8309  -42.5385   -2.6534 O   0  0  0  0  0  0  0  0  0  0  0  0
  -21.3941  -43.1834   -3.7389 C   0  0  0  0  0  0  0  0  0  0  0  0
  -22.1962  -44.1274   -3.5449 O   0  0  0  0  0  0  0  0  0  0  0  0
  -21.0921  -42.8090   -5.1178 C   0  0  0  0  0  0  0  0  0  0  0  0
  -22.0535  -42.7744   -6.0881 C   0  0  0  0  0  0  0  0  0  0  0  0
  -21.7701  -42.4176   -7.4236 C   0  0  0  0  0  0  0  0  0  0  0  0
  -20.4785  -42.0844   -7.8067 C   0  0  0  0  0  0  0  0  0  0  0  0
  -19.4896  -42.1080   -6.8530 C   0  0  0  0  0  0  0  0  0  0  0  0
  -19.8313  -42.4757   -5.5190 C   0  0  0  0  0  0  0  0  0  0  0  0
  -18.0499  -41.8078   -6.9169 C   0  0  0  0  0  0  0  0  0  0  0  0
  -17.2462  -42.6241   -6.2674 O   0  0  0  0  0  0  0  0  0  0  0  0
  -17.2942  -40.7991   -7.5396 N   0  0  0  0  0  0  0  0  0  0  0  0
  -17.6854  -39.9779   -8.6615 C   0  0  1  0  0  0  0  0  0  0  0  0
  -18.1688  -38.6350   -8.1279 C   0  0  0  0  0  0  0  0  0  0  0  0
  -19.5879  -38.6372   -7.6587 C   0  0  0  0  0  0  0  0  0  0  0  0
  -20.7530  -38.7113   -8.3805 C   0  0  0  0  0  0  0  0  0  0  0  0
  -21.9449  -38.6904   -7.7087 C   0  0  0  0  0  0  0  0  0  0  0  0
  -23.3650  -38.7596   -8.1449 C   0  0  0  0  0  0  0  0  0  0  0  0
  -24.1469  -39.7742   -7.3114 C   0  0  0  0  0  0  0  0  0  0  0  0
  -24.7095  -40.8684   -8.2312 C   0  0  0  0  0  0  0  0  0  0  0  0
  -23.6271  -41.5640   -8.9855 C   0  0  0  0  0  0  0  0  0  0  0  0
  -22.9235  -42.4651   -8.1852 O   0  0  0  0  0  0  0  0  0  0  0  0
  -21.9471  -38.5923   -6.2886 C   0  0  0  0  0  0  0  0  0  0  0  0
  -20.8178  -38.5169   -5.5306 C   0  0  0  0  0  0  0  0  0  0  0  0
  -19.6495  -38.5421   -6.2475 C   0  0  0  0  0  0  0  0  0  0  0  0
  -16.4687  -39.7257   -9.5371 C   0  0  2  0  0  0  0  0  0  0  0  0
  -15.6819  -40.9079   -9.5994 O   0  0  0  0  0  0  0  0  0  0  0  0
  -15.5588  -38.6874   -8.9796 C   0  0  0  0  0  0  0  0  0  0  0  0
  -14.3066  -39.1594   -8.4651 N   0  0  0  0  0  0  0  0  0  0  0  0
  -13.5737  -39.8659   -9.5050 C   0  0  0  0  0  0  0  0  0  0  0  0
  -13.6346  -39.1949  -10.8047 C   0  0  0  0  0  0  0  0  0  0  0  0
  -13.8461  -37.8454  -10.9254 C   0  0  0  0  0  0  0  0  0  0  0  0
  -13.9108  -37.1851  -12.1381 C   0  0  0  0  0  0  0  0  0  0  0  0
  -13.7517  -37.9369  -13.2897 C   0  0  0  0  0  0  0  0  0  0  0  0
  -13.5377  -39.2983  -13.1844 C   0  0  0  0  0  0  0  0  0  0  0  0
  -13.4766  -39.9416  -11.9527 C   0  0  0  0  0  0  0  0  0  0  0  0
  -14.1412  -35.7177  -12.1957 C   0  0  0  0  0  0  0  0  0  0  0  0
  -14.9263  -35.3804  -13.4484 C   0  0  0  0  0  0  0  0  0  0  0  0
  -12.8249  -34.9842  -12.1723 C   0  0  0  0  0  0  0  0  0  0  0  0
  1  2  1  0
  2  3  1  0
  3  4  2  0
  3  5  1  0
  5  6  2  0
  6  7  1  0
  7  8  2  0
  8  9  1  0
  9 10  2  0
  9 11  1  0
 11 12  2  0
 11 13  1  0
 13 14  1  0
 14 15  1  1
 15 16  1  0
 16 17  1  0
 17 18  2  0
 18 19  1  0
 19 20  1  0
 20 21  1  0
 21 22  1  0
 22 23  1  0
 18 24  1  0
 24 25  2  0
 25 26  1  0
 14 27  1  0
 27 28  1  1
 27 29  1  0
 29 30  1  0
 30 31  1  0
 31 32  1  0
 32 33  2  0
 33 34  1  0
 34 35  2  0
 35 36  1  0
 36 37  2  0
 34 38  1  0
 38 39  1  0
 38 40  1  0
 10  5  1  0
 23  7  1  0
 26 16  2  0
 37 32  1  0
M  END
$$$$
