
     RDKit          3D

 40 43  0  0  0  0  0  0  0  0999 V2000
  -22.3835  -42.6778   -1.2756 C   0  0  0  0  0  0  0  0  0  0  0  0
  -21.7187  -42.2916   -2.4631 O   0  0  0  0  0  0  0  0  0  0  0  0
  -22.0591  -42.9438   -3.6336 C   0  0  0  0  0  0  0  0  0  0  0  0
  -22.9039  -43.8696   -3.5983 O   0  0  0  0  0  0  0  0  0  0  0  0
  -21.4707  -42.5976   -4.9246 C   0  0  0  0  0  0  0  0  0  0  0  0
  -22.1755  -42.6885   -6.0916 C   0  0  0  0  0  0  0  0  0  0  0  0
  -21.6140  -42.3599   -7.3438 C   0  0  0  0  0  0  0  0  0  0  0  0
  -20.2990  -41.9259   -7.4361 C   0  0  0  0  0  0  0  0  0  0  0  0
  -19.5646  -41.8222   -6.2795 C   0  0  0  0  0  0  0  0  0  0  0  0
  -20.1813  -42.1670   -5.0416 C   0  0  0  0  0  0  0  0  0  0  0  0
  -18.1789  -41.3951   -6.0256 C   0  0  0  0  0  0  0  0  0  0  0  0
  -17.4892  -42.1090   -5.1601 O   0  0  0  0  0  0  0  0  0  0  0  0
  -17.3799  -40.3470   -6.5148 N   0  0  0  0  0  0  0  0  0  0  0  0
  -17.5589  -39.6092   -7.7435 C   0  0  1  0  0  0  0  0  0  0  0  0
  -18.2593  -38.2960   -7.4171 C   0  0  0  0  0  0  0  0  0  0  0  0
  -19.7444  -38.4089   -7.2903 C   0  0  0  0  0  0  0  0  0  0  0  0
  -20.6965  -38.6167   -8.2569 C   0  0  0  0  0  0  0  0  0  0  0  0
  -22.0111  -38.6779   -7.8822 C   0  0  0  0  0  0  0  0  0  0  0  0
  -23.2780  -38.8930   -8.6308 C   0  0  0  0  0  0  0  0  0  0  0  0
  -24.1517  -39.9411   -7.9427 C   0  0  0  0  0  0  0  0  0  0  0  0
  -24.3928  -41.1169   -8.9012 C   0  0  0  0  0  0  0  0  0  0  0  0
  -23.1113  -41.7403   -9.3415 C   0  0  0  0  0  0  0  0  0  0  0  0
  -22.5475  -42.5417   -8.3479 O   0  0  0  0  0  0  0  0  0  0  0  0
  -22.3562  -38.5251   -6.5097 C   0  0  0  0  0  0  0  0  0  0  0  0
  -21.4475  -38.3178   -5.5164 C   0  0  0  0  0  0  0  0  0  0  0  0
  -20.1447  -38.2647   -5.9401 C   0  0  0  0  0  0  0  0  0  0  0  0
  -16.1938  -39.2819   -8.3265 C   0  0  2  0  0  0  0  0  0  0  0  0
  -16.3617  -38.5407   -9.5277 O   0  0  0  0  0  0  0  0  0  0  0  0
  -15.4290  -40.4949   -8.7272 C   0  0  0  0  0  0  0  0  0  0  0  0
  -14.3852  -40.9038   -7.8334 N   0  0  0  0  0  0  0  0  0  0  0  0
  -13.1556  -41.1387   -8.5754 C   0  0  0  0  0  0  0  0  0  0  0  0
  -13.3434  -42.0180   -9.7306 C   0  0  0  0  0  0  0  0  0  0  0  0
  -14.5261  -42.6680   -9.9744 C   0  0  0  0  0  0  0  0  0  0  0  0
  -14.7319  -43.5055  -11.0547 C   0  0  0  0  0  0  0  0  0  0  0  0
  -13.6793  -43.6921  -11.9343 C   0  0  0  0  0  0  0  0  0  0  0  0
  -12.4809  -43.0437  -11.7021 C   0  0  0  0  0  0  0  0  0  0  0  0
  -12.2965  -42.2053  -10.6078 C   0  0  0  0  0  0  0  0  0  0  0  0
  -16.0420  -44.1773  -11.2595 C   0  0  0  0  0  0  0  0  0  0  0  0
  -16.9647  -43.2554  -12.0328 C   0  0  0  0  0  0  0  0  0  0  0  0
  -16.6464  -44.5522   -9.9309 C   0  0  0  0  0  0  0  0  0  0  0  0
  1  2  1  0
  2  3  1  0
  3  4  2  0
  3  5  1  0
  5  6  2  0
  6  7  1  0
  7  8  2  0
  8  9  1  0
  9 10  2  0
  9 11  1  0
 11 12  2  0
 11 13  1  0
 13 14  1  0
 14 15  1  1
 15 16  1  0
 16 17  1  0
 17 18  2  0
 18 19  1  0
 19 20  1  0
 20 21  1  0
 21 22  1  0
 22 23  1  0
 18 24  1  0
 24 25  2  0
 25 26  1  0
 14 27  1  0
 27 28  1  6
 27 29  1  0
 29 30  1  0
 30 31  1  0
 31 32  1  0
 32 33  2  0
 33 34  1  0
 34 35  2  0
 35 36  1  0
 36 37  2  0
 34 38  1  0
 38 39  1  0
 38 40  1  0
 10  5  1  0
 23  7  1  0
 26 16  2  0
 37 32  1  0
M  END
$$$$
