
     RDKit          3D

 40 43  0  0  0  0  0  0  0  0999 V2000
  -20.4742  -47.1125   -5.9786 C   0  0  0  0  0  0  0  0  0  0  0  0
  -20.1989  -45.7375   -6.1645 O   0  0  0  0  0  0  0  0  0  0  0  0
  -21.0898  -44.9982   -6.9202 C   0  0  0  0  0  0  0  0  0  0  0  0
  -22.3081  -45.2938   -6.8979 O   0  0  0  0  0  0  0  0  0  0  0  0
  -20.6692  -43.8749   -7.7532 C   0  0  0  0  0  0  0  0  0  0  0  0
  -21.3917  -43.4646   -8.8379 C   0  0  0  0  0  0  0  0  0  0  0  0
  -20.9909  -42.3829   -9.6506 C   0  0  0  0  0  0  0  0  0  0  0  0
  -19.8243  -41.6847   -9.3722 C   0  0  0  0  0  0  0  0  0  0  0  0
  -19.0766  -42.0723   -8.2865 C   0  0  0  0  0  0  0  0  0  0  0  0
  -19.5278  -43.1717   -7.4995 C   0  0  0  0  0  0  0  0  0  0  0  0
  -17.8216  -41.5545   -7.7173 C   0  0  0  0  0  0  0  0  0  0  0  0
  -16.9373  -42.4479   -7.3248 O   0  0  0  0  0  0  0  0  0  0  0  0
  -17.3226  -40.2618   -7.4802 N   0  0  0  0  0  0  0  0  0  0  0  0
  -17.7363  -39.0328   -8.1162 C   0  0  1  0  0  0  0  0  0  0  0  0
  -18.7121  -38.3178   -7.1897 C   0  0  0  0  0  0  0  0  0  0  0  0
  -20.1185  -38.8158   -7.2792 C   0  0  0  0  0  0  0  0  0  0  0  0
  -21.0425  -38.6661   -8.2831 C   0  0  0  0  0  0  0  0  0  0  0  0
  -22.2831  -39.2206   -8.1226 C   0  0  0  0  0  0  0  0  0  0  0  0
  -23.4993  -39.2685   -8.9772 C   0  0  0  0  0  0  0  0  0  0  0  0
  -24.0604  -40.6878   -9.0554 C   0  0  0  0  0  0  0  0  0  0  0  0
  -24.0634  -41.1580  -10.5178 C   0  0  0  0  0  0  0  0  0  0  0  0
  -22.6949  -41.1244  -11.1099 C   0  0  0  0  0  0  0  0  0  0  0  0
  -21.9050  -42.1874  -10.6699 O   0  0  0  0  0  0  0  0  0  0  0  0
  -22.5828  -39.9330   -6.9272 C   0  0  0  0  0  0  0  0  0  0  0  0
  -21.6993  -40.1077   -5.9052 C   0  0  0  0  0  0  0  0  0  0  0  0
  -20.4708  -39.5354   -6.1120 C   0  0  0  0  0  0  0  0  0  0  0  0
  -16.5211  -38.1384   -8.3002 C   0  0  2  0  0  0  0  0  0  0  0  0
  -16.9411  -36.8692   -8.7832 O   0  0  0  0  0  0  0  0  0  0  0  0
  -15.5769  -38.6489   -9.3321 C   0  0  0  0  0  0  0  0  0  0  0  0
  -14.4222  -39.3418   -8.8399 N   0  0  0  0  0  0  0  0  0  0  0  0
  -13.9333  -40.2742   -9.8444 C   0  0  0  0  0  0  0  0  0  0  0  0
  -13.6072  -39.6264  -11.1161 C   0  0  0  0  0  0  0  0  0  0  0  0
  -13.3440  -38.2839  -11.2102 C   0  0  0  0  0  0  0  0  0  0  0  0
  -13.0356  -37.6446  -12.3964 C   0  0  0  0  0  0  0  0  0  0  0  0
  -12.9922  -38.4111  -13.5485 C   0  0  0  0  0  0  0  0  0  0  0  0
  -13.2551  -39.7658  -13.4697 C   0  0  0  0  0  0  0  0  0  0  0  0
  -13.5635  -40.3878  -12.2645 C   0  0  0  0  0  0  0  0  0  0  0  0
  -12.7590  -36.1843  -12.4257 C   0  0  0  0  0  0  0  0  0  0  0  0
  -11.6037  -35.8724  -11.4944 C   0  0  0  0  0  0  0  0  0  0  0  0
  -13.9924  -35.4144  -12.0293 C   0  0  0  0  0  0  0  0  0  0  0  0
  1  2  1  0
  2  3  1  0
  3  4  2  0
  3  5  1  0
  5  6  2  0
  6  7  1  0
  7  8  2  0
  8  9  1  0
  9 10  2  0
  9 11  1  0
 11 12  2  0
 11 13  1  0
 13 14  1  0
 14 15  1  1
 15 16  1  0
 16 17  1  0
 17 18  2  0
 18 19  1  0
 19 20  1  0
 20 21  1  0
 21 22  1  0
 22 23  1  0
 18 24  1  0
 24 25  2  0
 25 26  1  0
 14 27  1  0
 27 28  1  6
 27 29  1  0
 29 30  1  0
 30 31  1  0
 31 32  1  0
 32 33  2  0
 33 34  1  0
 34 35  2  0
 35 36  1  0
 36 37  2  0
 34 38  1  0
 38 39  1  0
 38 40  1  0
 10  5  1  0
 23  7  1  0
 26 16  2  0
 37 32  1  0
M  END
$$$$
