
     RDKit          3D

 40 43  0  0  0  0  0  0  0  0999 V2000
  -21.8893  -40.1257   -2.7238 C   0  0  0  0  0  0  0  0  0  0  0  0
  -21.2625  -41.2749   -3.2601 O   0  0  0  0  0  0  0  0  0  0  0  0
  -22.0270  -42.1200   -4.0428 C   0  0  0  0  0  0  0  0  0  0  0  0
  -23.1164  -42.5527   -3.5975 O   0  0  0  0  0  0  0  0  0  0  0  0
  -21.6165  -42.5360   -5.3811 C   0  0  0  0  0  0  0  0  0  0  0  0
  -22.2002  -43.5905   -6.0248 C   0  0  0  0  0  0  0  0  0  0  0  0
  -21.8074  -44.0018   -7.3162 C   0  0  0  0  0  0  0  0  0  0  0  0
  -20.7926  -43.3375   -7.9909 C   0  0  0  0  0  0  0  0  0  0  0  0
  -20.1872  -42.2714   -7.3704 C   0  0  0  0  0  0  0  0  0  0  0  0
  -20.6232  -41.8985   -6.0657 C   0  0  0  0  0  0  0  0  0  0  0  0
  -19.1109  -41.3625   -7.7975 C   0  0  0  0  0  0  0  0  0  0  0  0
  -18.1999  -41.0598   -6.8959 O   0  0  0  0  0  0  0  0  0  0  0  0
  -18.8151  -40.7062   -9.0050 N   0  0  0  0  0  0  0  0  0  0  0  0
  -19.2663  -41.0638  -10.3297 C   0  0  1  0  0  0  0  0  0  0  0  0
  -20.4564  -40.1814  -10.6858 C   0  0  0  0  0  0  0  0  0  0  0  0
  -21.7603  -40.6592  -10.1329 C   0  0  0  0  0  0  0  0  0  0  0  0
  -22.5230  -41.7431  -10.4900 C   0  0  0  0  0  0  0  0  0  0  0  0
  -23.6976  -41.9680   -9.8252 C   0  0  0  0  0  0  0  0  0  0  0  0
  -24.7467  -43.0168   -9.9305 C   0  0  0  0  0  0  0  0  0  0  0  0
  -25.1135  -43.5673   -8.5529 C   0  0  0  0  0  0  0  0  0  0  0  0
  -24.8260  -45.0757   -8.5105 C   0  0  0  0  0  0  0  0  0  0  0  0
  -23.3945  -45.3721   -8.8062 C   0  0  0  0  0  0  0  0  0  0  0  0
  -22.5634  -45.0864   -7.7222 O   0  0  0  0  0  0  0  0  0  0  0  0
  -24.0969  -41.0787   -8.7879 C   0  0  0  0  0  0  0  0  0  0  0  0
  -23.3738  -39.9918   -8.3988 C   0  0  0  0  0  0  0  0  0  0  0  0
  -22.2058  -39.8084   -9.0927 C   0  0  0  0  0  0  0  0  0  0  0  0
  -18.1536  -40.7769  -11.3247 C   0  0  2  0  0  0  0  0  0  0  0  0
  -17.2354  -41.8619  -11.3280 O   0  0  0  0  0  0  0  0  0  0  0  0
  -17.3397  -39.5858  -10.9563 C   0  0  0  0  0  0  0  0  0  0  0  0
  -15.9519  -39.8300  -10.6917 N   0  0  0  0  0  0  0  0  0  0  0  0
  -15.4778  -38.9355   -9.6464 C   0  0  0  0  0  0  0  0  0  0  0  0
  -16.4623  -37.9181   -9.2737 C   0  0  0  0  0  0  0  0  0  0  0  0
  -16.9904  -37.8350   -8.0109 C   0  0  0  0  0  0  0  0  0  0  0  0
  -17.9224  -36.8874   -7.6307 C   0  0  0  0  0  0  0  0  0  0  0  0
  -18.3396  -35.9756   -8.5853 C   0  0  0  0  0  0  0  0  0  0  0  0
  -17.8163  -36.0466   -9.8626 C   0  0  0  0  0  0  0  0  0  0  0  0
  -16.8792  -37.0092  -10.2227 C   0  0  0  0  0  0  0  0  0  0  0  0
  -18.4521  -36.8536   -6.2422 C   0  0  0  0  0  0  0  0  0  0  0  0
  -17.2948  -36.8254   -5.2628 C   0  0  0  0  0  0  0  0  0  0  0  0
  -19.3368  -38.0483   -5.9949 C   0  0  0  0  0  0  0  0  0  0  0  0
  1  2  1  0
  2  3  1  0
  3  4  2  0
  3  5  1  0
  5  6  2  0
  6  7  1  0
  7  8  2  0
  8  9  1  0
  9 10  2  0
  9 11  1  0
 11 12  2  0
 11 13  1  0
 13 14  1  0
 14 15  1  6
 15 16  1  0
 16 17  1  0
 17 18  2  0
 18 19  1  0
 19 20  1  0
 20 21  1  0
 21 22  1  0
 22 23  1  0
 18 24  1  0
 24 25  2  0
 25 26  1  0
 14 27  1  0
 27 28  1  1
 27 29  1  0
 29 30  1  0
 30 31  1  0
 31 32  1  0
 32 33  2  0
 33 34  1  0
 34 35  2  0
 35 36  1  0
 36 37  2  0
 34 38  1  0
 38 39  1  0
 38 40  1  0
 10  5  1  0
 23  7  1  0
 26 16  2  0
 37 32  1  0
M  END
$$$$
