
     RDKit          3D

 40 43  0  0  0  0  0  0  0  0999 V2000
  -23.2528  -44.5944   -3.4939 C   0  0  0  0  0  0  0  0  0  0  0  0
  -22.9981  -44.1139   -4.7997 O   0  0  0  0  0  0  0  0  0  0  0  0
  -21.7752  -44.4147   -5.3702 C   0  0  0  0  0  0  0  0  0  0  0  0
  -21.1300  -45.4061   -4.9543 O   0  0  0  0  0  0  0  0  0  0  0  0
  -21.1951  -43.6190   -6.4485 C   0  0  0  0  0  0  0  0  0  0  0  0
  -21.8340  -43.4387   -7.6428 C   0  0  0  0  0  0  0  0  0  0  0  0
  -21.2793  -42.6748   -8.6916 C   0  0  0  0  0  0  0  0  0  0  0  0
  -20.0393  -42.0690   -8.5448 C   0  0  0  0  0  0  0  0  0  0  0  0
  -19.3725  -42.2303   -7.3542 C   0  0  0  0  0  0  0  0  0  0  0  0
  -19.9789  -43.0121   -6.3283 C   0  0  0  0  0  0  0  0  0  0  0  0
  -18.0748  -41.7276   -6.8743 C   0  0  0  0  0  0  0  0  0  0  0  0
  -17.3216  -42.5772   -6.2071 O   0  0  0  0  0  0  0  0  0  0  0  0
  -17.4196  -40.4871   -6.9645 N   0  0  0  0  0  0  0  0  0  0  0  0
  -17.6576  -39.4388   -7.9292 C   0  0  1  0  0  0  0  0  0  0  0  0
  -18.5544  -38.3886   -7.2853 C   0  0  0  0  0  0  0  0  0  0  0  0
  -20.0107  -38.7236   -7.3177 C   0  0  0  0  0  0  0  0  0  0  0  0
  -20.8847  -38.7465   -8.3759 C   0  0  0  0  0  0  0  0  0  0  0  0
  -22.1896  -39.0866   -8.1433 C   0  0  0  0  0  0  0  0  0  0  0  0
  -23.3820  -39.2231   -9.0215 C   0  0  0  0  0  0  0  0  0  0  0  0
  -24.1187  -40.5338   -8.7480 C   0  0  0  0  0  0  0  0  0  0  0  0
  -24.1486  -41.3818  -10.0285 C   0  0  0  0  0  0  0  0  0  0  0  0
  -22.7740  -41.6720  -10.5292 C   0  0  0  0  0  0  0  0  0  0  0  0
  -22.1373  -42.6594   -9.7762 O   0  0  0  0  0  0  0  0  0  0  0  0
  -22.6053  -39.4052   -6.8197 C   0  0  0  0  0  0  0  0  0  0  0  0
  -21.7751  -39.3965   -5.7399 C   0  0  0  0  0  0  0  0  0  0  0  0
  -20.4789  -39.0507   -6.0224 C   0  0  0  0  0  0  0  0  0  0  0  0
  -16.3338  -38.7777   -8.2769 C   0  0  2  0  0  0  0  0  0  0  0  0
  -16.5431  -37.8212   -9.3073 O   0  0  0  0  0  0  0  0  0  0  0  0
  -15.3381  -39.7332   -8.8360 C   0  0  0  0  0  0  0  0  0  0  0  0
  -14.1084  -39.8568   -8.1092 N   0  0  0  0  0  0  0  0  0  0  0  0
  -13.1305  -40.5861   -8.9025 C   0  0  0  0  0  0  0  0  0  0  0  0
  -12.9889  -40.0600  -10.2613 C   0  0  0  0  0  0  0  0  0  0  0  0
  -12.4009  -38.8490  -10.5225 C   0  0  0  0  0  0  0  0  0  0  0  0
  -12.2553  -38.3259  -11.7938 C   0  0  0  0  0  0  0  0  0  0  0  0
  -12.7327  -39.0740  -12.8563 C   0  0  0  0  0  0  0  0  0  0  0  0
  -13.3279  -40.2968  -12.6091 C   0  0  0  0  0  0  0  0  0  0  0  0
  -13.4636  -40.8033  -11.3209 C   0  0  0  0  0  0  0  0  0  0  0  0
  -11.6053  -37.0058  -12.0049 C   0  0  0  0  0  0  0  0  0  0  0  0
  -10.1575  -37.0811  -11.5601 C   0  0  0  0  0  0  0  0  0  0  0  0
  -12.3460  -35.9351  -11.2460 C   0  0  0  0  0  0  0  0  0  0  0  0
  1  2  1  0
  2  3  1  0
  3  4  2  0
  3  5  1  0
  5  6  2  0
  6  7  1  0
  7  8  2  0
  8  9  1  0
  9 10  2  0
  9 11  1  0
 11 12  2  0
 11 13  1  0
 13 14  1  0
 14 15  1  1
 15 16  1  0
 16 17  1  0
 17 18  2  0
 18 19  1  0
 19 20  1  0
 20 21  1  0
 21 22  1  0
 22 23  1  0
 18 24  1  0
 24 25  2  0
 25 26  1  0
 14 27  1  0
 27 28  1  6
 27 29  1  0
 29 30  1  0
 30 31  1  0
 31 32  1  0
 32 33  2  0
 33 34  1  0
 34 35  2  0
 35 36  1  0
 36 37  2  0
 34 38  1  0
 38 39  1  0
 38 40  1  0
 10  5  1  0
 23  7  1  0
 26 16  2  0
 37 32  1  0
M  END
$$$$
