
     RDKit          3D

 40 43  0  0  0  0  0  0  0  0999 V2000
  -22.7388  -43.2674   -3.2750 C   0  0  0  0  0  0  0  0  0  0  0  0
  -21.4643  -43.5813   -3.8025 O   0  0  0  0  0  0  0  0  0  0  0  0
  -21.4116  -44.1784   -5.0483 C   0  0  0  0  0  0  0  0  0  0  0  0
  -21.7485  -45.3801   -5.1689 O   0  0  0  0  0  0  0  0  0  0  0  0
  -20.9756  -43.4624   -6.2441 C   0  0  0  0  0  0  0  0  0  0  0  0
  -21.7225  -43.4364   -7.3879 C   0  0  0  0  0  0  0  0  0  0  0  0
  -21.3073  -42.7505   -8.5491 C   0  0  0  0  0  0  0  0  0  0  0  0
  -20.1002  -42.0660   -8.5713 C   0  0  0  0  0  0  0  0  0  0  0  0
  -19.3270  -42.0719   -7.4354 C   0  0  0  0  0  0  0  0  0  0  0  0
  -19.7945  -42.7807   -6.2906 C   0  0  0  0  0  0  0  0  0  0  0  0
  -18.0281  -41.4537   -7.1229 C   0  0  0  0  0  0  0  0  0  0  0  0
  -17.1693  -42.1905   -6.4492 O   0  0  0  0  0  0  0  0  0  0  0  0
  -17.4626  -40.1941   -7.3872 N   0  0  0  0  0  0  0  0  0  0  0  0
  -17.8466  -39.2609   -8.4205 C   0  0  1  0  0  0  0  0  0  0  0  0
  -18.7510  -38.2031   -7.8001 C   0  0  0  0  0  0  0  0  0  0  0  0
  -20.1807  -38.6192   -7.6704 C   0  0  0  0  0  0  0  0  0  0  0  0
  -21.1372  -38.7945   -8.6392 C   0  0  0  0  0  0  0  0  0  0  0  0
  -22.3938  -39.1812   -8.2599 C   0  0  0  0  0  0  0  0  0  0  0  0
  -23.6446  -39.4691   -9.0111 C   0  0  0  0  0  0  0  0  0  0  0  0
  -24.2712  -40.7849   -8.5512 C   0  0  0  0  0  0  0  0  0  0  0  0
  -24.3547  -41.7556   -9.7388 C   0  0  0  0  0  0  0  0  0  0  0  0
  -23.0113  -42.0178  -10.3312 C   0  0  0  0  0  0  0  0  0  0  0  0
  -22.2524  -42.8895   -9.5491 O   0  0  0  0  0  0  0  0  0  0  0  0
  -22.6761  -39.3899   -6.8804 C   0  0  0  0  0  0  0  0  0  0  0  0
  -21.7605  -39.2289   -5.8848 C   0  0  0  0  0  0  0  0  0  0  0  0
  -20.5170  -38.8419   -6.3134 C   0  0  0  0  0  0  0  0  0  0  0  0
  -16.6012  -38.5656   -8.9459 C   0  0  2  0  0  0  0  0  0  0  0  0
  -16.9622  -37.6993  -10.0134 O   0  0  0  0  0  0  0  0  0  0  0  0
  -15.6145  -39.5118   -9.5356 C   0  0  0  0  0  0  0  0  0  0  0  0
  -14.3534  -39.6071   -8.8602 N   0  0  0  0  0  0  0  0  0  0  0  0
  -13.4019  -40.3420   -9.6801 C   0  0  0  0  0  0  0  0  0  0  0  0
  -13.2658  -39.7928  -11.0302 C   0  0  0  0  0  0  0  0  0  0  0  0
  -12.9243  -38.4848  -11.2602 C   0  0  0  0  0  0  0  0  0  0  0  0
  -12.7906  -37.9380  -12.5228 C   0  0  0  0  0  0  0  0  0  0  0  0
  -13.0160  -38.7653  -13.6097 C   0  0  0  0  0  0  0  0  0  0  0  0
  -13.3610  -40.0862  -13.3941 C   0  0  0  0  0  0  0  0  0  0  0  0
  -13.4899  -40.6148  -12.1141 C   0  0  0  0  0  0  0  0  0  0  0  0
  -12.4152  -36.5106  -12.6993 C   0  0  0  0  0  0  0  0  0  0  0  0
  -11.2865  -36.1657  -11.7472 C   0  0  0  0  0  0  0  0  0  0  0  0
  -13.6111  -35.6257  -12.4585 C   0  0  0  0  0  0  0  0  0  0  0  0
  1  2  1  0
  2  3  1  0
  3  4  2  0
  3  5  1  0
  5  6  2  0
  6  7  1  0
  7  8  2  0
  8  9  1  0
  9 10  2  0
  9 11  1  0
 11 12  2  0
 11 13  1  0
 13 14  1  0
 14 15  1  1
 15 16  1  0
 16 17  1  0
 17 18  2  0
 18 19  1  0
 19 20  1  0
 20 21  1  0
 21 22  1  0
 22 23  1  0
 18 24  1  0
 24 25  2  0
 25 26  1  0
 14 27  1  0
 27 28  1  6
 27 29  1  0
 29 30  1  0
 30 31  1  0
 31 32  1  0
 32 33  2  0
 33 34  1  0
 34 35  2  0
 35 36  1  0
 36 37  2  0
 34 38  1  0
 38 39  1  0
 38 40  1  0
 10  5  1  0
 23  7  1  0
 26 16  2  0
 37 32  1  0
M  END
$$$$
