
     RDKit          3D

 40 43  0  0  0  0  0  0  0  0999 V2000
  -20.4356  -47.9934   -6.8533 C   0  0  0  0  0  0  0  0  0  0  0  0
  -19.7701  -46.7704   -6.6037 O   0  0  0  0  0  0  0  0  0  0  0  0
  -20.5443  -45.6367   -6.4412 C   0  0  0  0  0  0  0  0  0  0  0  0
  -21.4099  -45.6081   -5.5344 O   0  0  0  0  0  0  0  0  0  0  0  0
  -20.3967  -44.4571   -7.2893 C   0  0  0  0  0  0  0  0  0  0  0  0
  -21.3285  -44.1171   -8.2291 C   0  0  0  0  0  0  0  0  0  0  0  0
  -21.1922  -42.9815   -9.0556 C   0  0  0  0  0  0  0  0  0  0  0  0
  -20.0837  -42.1542   -8.9419 C   0  0  0  0  0  0  0  0  0  0  0  0
  -19.1297  -42.4687   -8.0043 C   0  0  0  0  0  0  0  0  0  0  0  0
  -19.3175  -43.6274   -7.1959 C   0  0  0  0  0  0  0  0  0  0  0  0
  -17.8666  -41.8150   -7.6244 C   0  0  0  0  0  0  0  0  0  0  0  0
  -16.8336  -42.6034   -7.4109 O   0  0  0  0  0  0  0  0  0  0  0  0
  -17.4873  -40.4763   -7.4233 N   0  0  0  0  0  0  0  0  0  0  0  0
  -18.1373  -39.2946   -7.9400 C   0  0  1  0  0  0  0  0  0  0  0  0
  -19.0247  -38.7169   -6.8443 C   0  0  0  0  0  0  0  0  0  0  0  0
  -20.3603  -39.3773   -6.7260 C   0  0  0  0  0  0  0  0  0  0  0  0
  -21.4465  -39.3214   -7.5634 C   0  0  0  0  0  0  0  0  0  0  0  0
  -22.5725  -40.0225   -7.2271 C   0  0  0  0  0  0  0  0  0  0  0  0
  -23.8979  -40.2001   -7.8777 C   0  0  0  0  0  0  0  0  0  0  0  0
  -24.2977  -41.6746   -7.9167 C   0  0  0  0  0  0  0  0  0  0  0  0
  -24.4848  -42.1165   -9.3759 C   0  0  0  0  0  0  0  0  0  0  0  0
  -23.2440  -41.9100  -10.1774 C   0  0  0  0  0  0  0  0  0  0  0  0
  -22.2764  -42.8788   -9.9080 O   0  0  0  0  0  0  0  0  0  0  0  0
  -22.5897  -40.7860   -6.0258 C   0  0  0  0  0  0  0  0  0  0  0  0
  -21.5375  -40.8718   -5.1651 C   0  0  0  0  0  0  0  0  0  0  0  0
  -20.4329  -40.1538   -5.5445 C   0  0  0  0  0  0  0  0  0  0  0  0
  -17.0791  -38.2588   -8.2832 C   0  0  2  0  0  0  0  0  0  0  0  0
  -17.6980  -37.1478   -8.9180 O   0  0  0  0  0  0  0  0  0  0  0  0
  -16.0794  -38.7562   -9.2681 C   0  0  0  0  0  0  0  0  0  0  0  0
  -15.3760  -39.9506   -8.9015 N   0  0  0  0  0  0  0  0  0  0  0  0
  -13.9457  -39.7680   -9.0971 C   0  0  0  0  0  0  0  0  0  0  0  0
  -13.6117  -39.2429  -10.4222 C   0  0  0  0  0  0  0  0  0  0  0  0
  -12.7392  -38.2001  -10.6005 C   0  0  0  0  0  0  0  0  0  0  0  0
  -12.4066  -37.6820  -11.8382 C   0  0  0  0  0  0  0  0  0  0  0  0
  -12.9922  -38.2548  -12.9543 C   0  0  0  0  0  0  0  0  0  0  0  0
  -13.8737  -39.3068  -12.7908 C   0  0  0  0  0  0  0  0  0  0  0  0
  -14.1937  -39.8118  -11.5349 C   0  0  0  0  0  0  0  0  0  0  0  0
  -11.4505  -36.5502  -11.9588 C   0  0  0  0  0  0  0  0  0  0  0  0
  -10.1070  -36.9638  -11.3903 C   0  0  0  0  0  0  0  0  0  0  0  0
  -11.9877  -35.3383  -11.2419 C   0  0  0  0  0  0  0  0  0  0  0  0
  1  2  1  0
  2  3  1  0
  3  4  2  0
  3  5  1  0
  5  6  2  0
  6  7  1  0
  7  8  2  0
  8  9  1  0
  9 10  2  0
  9 11  1  0
 11 12  2  0
 11 13  1  0
 13 14  1  0
 14 15  1  1
 15 16  1  0
 16 17  1  0
 17 18  2  0
 18 19  1  0
 19 20  1  0
 20 21  1  0
 21 22  1  0
 22 23  1  0
 18 24  1  0
 24 25  2  0
 25 26  1  0
 14 27  1  0
 27 28  1  6
 27 29  1  0
 29 30  1  0
 30 31  1  0
 31 32  1  0
 32 33  2  0
 33 34  1  0
 34 35  2  0
 35 36  1  0
 36 37  2  0
 34 38  1  0
 38 39  1  0
 38 40  1  0
 10  5  1  0
 23  7  1  0
 26 16  2  0
 37 32  1  0
M  END
$$$$
