
     RDKit          3D

 40 43  0  0  0  0  0  0  0  0999 V2000
  -21.6001  -43.1103   -1.9537 C   0  0  0  0  0  0  0  0  0  0  0  0
  -20.6964  -42.9931   -3.0357 O   0  0  0  0  0  0  0  0  0  0  0  0
  -21.0636  -43.5518   -4.2457 C   0  0  0  0  0  0  0  0  0  0  0  0
  -21.7207  -44.6197   -4.2556 O   0  0  0  0  0  0  0  0  0  0  0  0
  -20.7156  -42.9458   -5.5280 C   0  0  0  0  0  0  0  0  0  0  0  0
  -21.5266  -43.0470   -6.6230 C   0  0  0  0  0  0  0  0  0  0  0  0
  -21.1966  -42.4680   -7.8668 C   0  0  0  0  0  0  0  0  0  0  0  0
  -20.0118  -41.7628   -8.0255 C   0  0  0  0  0  0  0  0  0  0  0  0
  -19.1757  -41.6419   -6.9418 C   0  0  0  0  0  0  0  0  0  0  0  0
  -19.5581  -42.2464   -5.7090 C   0  0  0  0  0  0  0  0  0  0  0  0
  -17.8785  -40.9684   -6.7669 C   0  0  0  0  0  0  0  0  0  0  0  0
  -16.9632  -41.6177   -6.0777 O   0  0  0  0  0  0  0  0  0  0  0  0
  -17.3634  -39.7283   -7.1831 N   0  0  0  0  0  0  0  0  0  0  0  0
  -17.8305  -38.9082   -8.2764 C   0  0  1  0  0  0  0  0  0  0  0  0
  -18.7268  -37.8151   -7.7075 C   0  0  0  0  0  0  0  0  0  0  0  0
  -20.1350  -38.2476   -7.4546 C   0  0  0  0  0  0  0  0  0  0  0  0
  -21.1397  -38.5366   -8.3441 C   0  0  0  0  0  0  0  0  0  0  0  0
  -22.3618  -38.9118   -7.8562 C   0  0  0  0  0  0  0  0  0  0  0  0
  -23.6448  -39.2981   -8.5013 C   0  0  0  0  0  0  0  0  0  0  0  0
  -24.2084  -40.5764   -7.8818 C   0  0  0  0  0  0  0  0  0  0  0  0
  -24.3324  -41.6592   -8.9642 C   0  0  0  0  0  0  0  0  0  0  0  0
  -23.0181  -41.9485   -9.6072 C   0  0  0  0  0  0  0  0  0  0  0  0
  -22.1927  -42.7236   -8.7915 O   0  0  0  0  0  0  0  0  0  0  0  0
  -22.5597  -38.9919   -6.4488 C   0  0  0  0  0  0  0  0  0  0  0  0
  -21.5940  -38.7154   -5.5289 C   0  0  0  0  0  0  0  0  0  0  0  0
  -20.3878  -38.3450   -6.0651 C   0  0  0  0  0  0  0  0  0  0  0  0
  -16.6363  -38.2402   -8.9383 C   0  0  2  0  0  0  0  0  0  0  0  0
  -17.0528  -37.6307  -10.1529 O   0  0  0  0  0  0  0  0  0  0  0  0
  -15.5783  -39.2088   -9.3374 C   0  0  0  0  0  0  0  0  0  0  0  0
  -14.3702  -39.1735   -8.5661 N   0  0  0  0  0  0  0  0  0  0  0  0
  -13.2564  -39.6712   -9.3594 C   0  0  0  0  0  0  0  0  0  0  0  0
  -12.9729  -38.8414  -10.5317 C   0  0  0  0  0  0  0  0  0  0  0  0
  -12.2454  -37.6817  -10.4522 C   0  0  0  0  0  0  0  0  0  0  0  0
  -11.9640  -36.8772  -11.5406 C   0  0  0  0  0  0  0  0  0  0  0  0
  -12.4477  -37.2731  -12.7759 C   0  0  0  0  0  0  0  0  0  0  0  0
  -13.1825  -38.4398  -12.8722 C   0  0  0  0  0  0  0  0  0  0  0  0
  -13.4536  -39.2337  -11.7628 C   0  0  0  0  0  0  0  0  0  0  0  0
  -11.1668  -35.6326  -11.3825 C   0  0  0  0  0  0  0  0  0  0  0  0
   -9.7152  -35.9193  -11.7149 C   0  0  0  0  0  0  0  0  0  0  0  0
  -11.3025  -35.1041   -9.9777 C   0  0  0  0  0  0  0  0  0  0  0  0
  1  2  1  0
  2  3  1  0
  3  4  2  0
  3  5  1  0
  5  6  2  0
  6  7  1  0
  7  8  2  0
  8  9  1  0
  9 10  2  0
  9 11  1  0
 11 12  2  0
 11 13  1  0
 13 14  1  0
 14 15  1  1
 15 16  1  0
 16 17  1  0
 17 18  2  0
 18 19  1  0
 19 20  1  0
 20 21  1  0
 21 22  1  0
 22 23  1  0
 18 24  1  0
 24 25  2  0
 25 26  1  0
 14 27  1  0
 27 28  1  6
 27 29  1  0
 29 30  1  0
 30 31  1  0
 31 32  1  0
 32 33  2  0
 33 34  1  0
 34 35  2  0
 35 36  1  0
 36 37  2  0
 34 38  1  0
 38 39  1  0
 38 40  1  0
 10  5  1  0
 23  7  1  0
 26 16  2  0
 37 32  1  0
M  END
$$$$
