
     RDKit          3D

 37 40  0  0  0  0  0  0  0  0999 V2000
  -14.1079  -35.5850  -12.3155 C   0  0  0  0  0  0  0  0  0  0  0  0
  -13.1814  -36.5393  -13.0058 C   0  0  0  0  0  0  0  0  0  0  0  0
  -11.7772  -35.9756  -13.0905 C   0  0  0  0  0  0  0  0  0  0  0  0
  -13.2170  -37.8402  -12.3030 C   0  0  0  0  0  0  0  0  0  0  0  0
  -13.4333  -38.9788  -13.0153 C   0  0  0  0  0  0  0  0  0  0  0  0
  -13.4580  -40.1917  -12.3610 C   0  0  0  0  0  0  0  0  0  0  0  0
  -13.2646  -40.2441  -10.9763 C   0  0  0  0  0  0  0  0  0  0  0  0
  -13.0481  -39.1075  -10.2534 C   0  0  0  0  0  0  0  0  0  0  0  0
  -12.8357  -39.1353   -8.8089 C   0  0  0  0  0  0  0  0  0  0  0  0
  -13.9936  -39.4025   -8.0357 N   0  0  0  0  0  0  0  0  0  0  0  0
  -15.2289  -39.5635   -8.6765 C   0  0  0  0  0  0  0  0  0  0  0  0
  -16.3283  -38.6108   -8.3850 C   0  0  1  0  0  0  0  0  0  0  0  0
  -16.3825  -37.6158   -9.3316 O   0  0  0  0  0  0  0  0  0  0  0  0
  -17.6972  -39.3023   -8.1757 C   0  0  2  0  0  0  0  0  0  0  0  0
  -18.7351  -38.2112   -8.3655 C   0  0  0  0  0  0  0  0  0  0  0  0
  -20.0229  -38.4657   -7.6395 C   0  0  0  0  0  0  0  0  0  0  0  0
  -20.0289  -37.7333   -6.4227 C   0  0  0  0  0  0  0  0  0  0  0  0
  -21.0756  -37.7448   -5.5469 C   0  0  0  0  0  0  0  0  0  0  0  0
  -22.1320  -38.5220   -5.9292 C   0  0  0  0  0  0  0  0  0  0  0  0
  -22.1783  -39.2752   -7.1343 C   0  0  0  0  0  0  0  0  0  0  0  0
  -23.4827  -39.9784   -7.2172 C   0  0  0  0  0  0  0  0  0  0  0  0
  -23.4939  -41.4474   -7.4231 C   0  0  0  0  0  0  0  0  0  0  0  0
  -23.5625  -42.2929   -6.1936 C   0  0  0  0  0  0  0  0  0  0  0  0
  -23.2104  -43.7218   -6.3978 C   0  0  0  0  0  0  0  0  0  0  0  0
  -22.1715  -43.9349   -7.3835 N   0  0  0  0  0  0  0  0  0  0  0  0
  -22.7280  -44.6728   -8.5771 C   0  0  0  0  0  0  0  0  0  0  0  0
  -20.7833  -43.5815   -7.3617 C   0  0  0  0  0  0  0  0  0  0  0  0
  -20.0392  -44.6402   -7.9635 C   0  0  0  0  0  0  0  0  0  0  0  0
  -18.6855  -44.6256   -8.1121 C   0  0  0  0  0  0  0  0  0  0  0  0
  -18.0480  -43.5111   -7.6418 C   0  0  0  0  0  0  0  0  0  0  0  0
  -18.7343  -42.4233   -7.0342 C   0  0  0  0  0  0  0  0  0  0  0  0
  -20.1161  -42.4676   -6.8965 C   0  0  0  0  0  0  0  0  0  0  0  0
  -17.7464  -41.3932   -6.6678 C   0  0  0  0  0  0  0  0  0  0  0  0
  -16.7152  -41.8719   -6.0023 O   0  0  0  0  0  0  0  0  0  0  0  0
  -17.7389  -39.9756   -6.9240 N   0  0  0  0  0  0  0  0  0  0  0  0
  -21.1038  -39.2415   -7.9950 C   0  0  0  0  0  0  0  0  0  0  0  0
  -13.0258  -37.9009  -10.9311 C   0  0  0  0  0  0  0  0  0  0  0  0
  1  2  1  0
  2  3  1  0
  2  4  1  0
  4  5  2  0
  5  6  1  0
  6  7  2  0
  7  8  1  0
  8  9  1  0
  9 10  1  0
 10 11  1  0
 11 12  1  0
 12 13  1  6
 12 14  1  0
 14 15  1  1
 15 16  1  0
 16 17  1  0
 17 18  2  0
 18 19  1  0
 19 20  2  0
 20 21  1  0
 21 22  1  0
 22 23  1  0
 23 24  1  0
 24 25  1  0
 25 26  1  0
 25 27  1  0
 27 28  1  0
 28 29  2  0
 29 30  1  0
 30 31  2  0
 31 32  1  0
 31 33  1  0
 33 34  2  0
 33 35  1  0
 20 36  1  0
  8 37  2  0
 32 27  2  0
 35 14  1  0
 36 16  2  0
 37  4  1  0
M  END
$$$$
