
     RDKit          3D

 37 40  0  0  0  0  0  0  0  0999 V2000
  -10.0293  -39.7817  -10.3954 C   0  0  0  0  0  0  0  0  0  0  0  0
  -10.8061  -38.7881   -9.5861 C   0  0  0  0  0  0  0  0  0  0  0  0
   -9.9092  -37.6811   -9.0694 C   0  0  0  0  0  0  0  0  0  0  0  0
  -11.9207  -38.2643  -10.4051 C   0  0  0  0  0  0  0  0  0  0  0  0
  -11.6563  -37.3863  -11.4099 C   0  0  0  0  0  0  0  0  0  0  0  0
  -12.6944  -36.9050  -12.1783 C   0  0  0  0  0  0  0  0  0  0  0  0
  -14.0061  -37.3174  -11.9201 C   0  0  0  0  0  0  0  0  0  0  0  0
  -14.2812  -38.1967  -10.9139 C   0  0  0  0  0  0  0  0  0  0  0  0
  -15.6400  -38.6491  -10.6285 C   0  0  0  0  0  0  0  0  0  0  0  0
  -16.6101  -37.6193  -10.5369 N   0  0  0  0  0  0  0  0  0  0  0  0
  -16.9906  -37.1402   -9.2767 C   0  0  0  0  0  0  0  0  0  0  0  0
  -16.9525  -38.0554   -8.1095 C   0  0  1  0  0  0  0  0  0  0  0  0
  -16.4476  -37.4194   -7.0006 O   0  0  0  0  0  0  0  0  0  0  0  0
  -18.3096  -38.7447   -7.8285 C   0  0  2  0  0  0  0  0  0  0  0  0
  -18.6117  -38.4633   -6.3679 C   0  0  0  0  0  0  0  0  0  0  0  0
  -19.4990  -39.4870   -5.7236 C   0  0  0  0  0  0  0  0  0  0  0  0
  -18.7015  -40.4041   -4.9887 C   0  0  0  0  0  0  0  0  0  0  0  0
  -19.2221  -41.4442   -4.2747 C   0  0  0  0  0  0  0  0  0  0  0  0
  -20.5839  -41.5420   -4.3178 C   0  0  0  0  0  0  0  0  0  0  0  0
  -21.4291  -40.6530   -5.0369 C   0  0  0  0  0  0  0  0  0  0  0  0
  -22.8425  -41.0600   -4.8385 C   0  0  0  0  0  0  0  0  0  0  0  0
  -23.6919  -41.3065   -6.0294 C   0  0  0  0  0  0  0  0  0  0  0  0
  -23.7659  -42.7170   -6.5156 C   0  0  0  0  0  0  0  0  0  0  0  0
  -24.3107  -42.8765   -7.8887 C   0  0  0  0  0  0  0  0  0  0  0  0
  -23.9517  -41.8023   -8.7907 N   0  0  0  0  0  0  0  0  0  0  0  0
  -25.1824  -41.0272   -9.1952 C   0  0  0  0  0  0  0  0  0  0  0  0
  -22.6772  -41.4245   -9.3252 C   0  0  0  0  0  0  0  0  0  0  0  0
  -22.8593  -41.0211  -10.6820 C   0  0  0  0  0  0  0  0  0  0  0  0
  -21.8479  -40.5924  -11.4870 C   0  0  0  0  0  0  0  0  0  0  0  0
  -20.6053  -40.5650  -10.9169 C   0  0  0  0  0  0  0  0  0  0  0  0
  -20.3611  -40.9530   -9.5703 C   0  0  0  0  0  0  0  0  0  0  0  0
  -21.4137  -41.3862   -8.7736 C   0  0  0  0  0  0  0  0  0  0  0  0
  -18.9255  -40.7798   -9.2869 C   0  0  0  0  0  0  0  0  0  0  0  0
  -18.1441  -41.3239  -10.1972 O   0  0  0  0  0  0  0  0  0  0  0  0
  -18.2648  -40.1189   -8.1905 N   0  0  0  0  0  0  0  0  0  0  0  0
  -20.8700  -39.6144   -5.7479 C   0  0  0  0  0  0  0  0  0  0  0  0
  -13.2234  -38.6684  -10.1561 C   0  0  0  0  0  0  0  0  0  0  0  0
  1  2  1  0
  2  3  1  0
  2  4  1  0
  4  5  2  0
  5  6  1  0
  6  7  2  0
  7  8  1  0
  8  9  1  0
  9 10  1  0
 10 11  1  0
 11 12  1  0
 12 13  1  1
 12 14  1  0
 14 15  1  1
 15 16  1  0
 16 17  1  0
 17 18  2  0
 18 19  1  0
 19 20  2  0
 20 21  1  0
 21 22  1  0
 22 23  1  0
 23 24  1  0
 24 25  1  0
 25 26  1  0
 25 27  1  0
 27 28  1  0
 28 29  2  0
 29 30  1  0
 30 31  2  0
 31 32  1  0
 31 33  1  0
 33 34  2  0
 33 35  1  0
 20 36  1  0
  8 37  2  0
 32 27  2  0
 35 14  1  0
 36 16  2  0
 37  4  1  0
M  END
$$$$
