
     RDKit          3D

 37 40  0  0  0  0  0  0  0  0999 V2000
  -11.9289  -36.2768  -12.7038 C   0  0  0  0  0  0  0  0  0  0  0  0
  -13.2826  -36.6681  -13.2139 C   0  0  0  0  0  0  0  0  0  0  0  0
  -13.3670  -36.5132  -14.7190 C   0  0  0  0  0  0  0  0  0  0  0  0
  -13.5812  -38.0500  -12.7793 C   0  0  0  0  0  0  0  0  0  0  0  0
  -13.8933  -38.9907  -13.7110 C   0  0  0  0  0  0  0  0  0  0  0  0
  -14.1633  -40.2802  -13.3062 C   0  0  0  0  0  0  0  0  0  0  0  0
  -14.1179  -40.6115  -11.9477 C   0  0  0  0  0  0  0  0  0  0  0  0
  -13.8070  -39.6746  -11.0059 C   0  0  0  0  0  0  0  0  0  0  0  0
  -13.7452  -39.9957   -9.5826 C   0  0  0  0  0  0  0  0  0  0  0  0
  -14.4306  -39.0922   -8.7319 N   0  0  0  0  0  0  0  0  0  0  0  0
  -15.5986  -38.4669   -9.1873 C   0  0  0  0  0  0  0  0  0  0  0  0
  -16.5987  -37.9890   -8.2011 C   0  0  1  0  0  0  0  0  0  0  0  0
  -16.9921  -36.7024   -8.4818 O   0  0  0  0  0  0  0  0  0  0  0  0
  -17.7999  -38.9507   -8.0335 C   0  0  2  0  0  0  0  0  0  0  0  0
  -19.0342  -38.0684   -8.0782 C   0  0  0  0  0  0  0  0  0  0  0  0
  -20.2155  -38.6402   -7.3518 C   0  0  0  0  0  0  0  0  0  0  0  0
  -20.3055  -38.0498   -6.0632 C   0  0  0  0  0  0  0  0  0  0  0  0
  -21.2900  -38.3529   -5.1679 C   0  0  0  0  0  0  0  0  0  0  0  0
  -22.1954  -39.2776   -5.6052 C   0  0  0  0  0  0  0  0  0  0  0  0
  -22.1522  -39.8996   -6.8832 C   0  0  0  0  0  0  0  0  0  0  0  0
  -23.3012  -40.8306   -7.0088 C   0  0  0  0  0  0  0  0  0  0  0  0
  -23.0418  -42.2453   -7.3719 C   0  0  0  0  0  0  0  0  0  0  0  0
  -22.8922  -43.2080   -6.2396 C   0  0  0  0  0  0  0  0  0  0  0  0
  -22.2841  -44.5133   -6.6058 C   0  0  0  0  0  0  0  0  0  0  0  0
  -21.2696  -44.4198   -7.6346 N   0  0  0  0  0  0  0  0  0  0  0  0
  -21.7291  -45.1270   -8.8866 C   0  0  0  0  0  0  0  0  0  0  0  0
  -19.9745  -43.8076   -7.6095 C   0  0  0  0  0  0  0  0  0  0  0  0
  -19.0706  -44.6353   -8.3407 C   0  0  0  0  0  0  0  0  0  0  0  0
  -17.7526  -44.3432   -8.5208 C   0  0  0  0  0  0  0  0  0  0  0  0
  -17.3183  -43.1795   -7.9489 C   0  0  0  0  0  0  0  0  0  0  0  0
  -18.1708  -42.3129   -7.2103 C   0  0  0  0  0  0  0  0  0  0  0  0
  -19.5112  -42.6383   -7.0436 C   0  0  0  0  0  0  0  0  0  0  0  0
  -17.3815  -41.1531   -6.7597 C   0  0  0  0  0  0  0  0  0  0  0  0
  -16.2489  -41.4873   -6.1758 O   0  0  0  0  0  0  0  0  0  0  0  0
  -17.6558  -39.7425   -6.8613 N   0  0  0  0  0  0  0  0  0  0  0  0
  -21.1440  -39.5710   -7.7619 C   0  0  0  0  0  0  0  0  0  0  0  0
  -13.5380  -38.3865  -11.4350 C   0  0  0  0  0  0  0  0  0  0  0  0
  1  2  1  0
  2  3  1  0
  2  4  1  0
  4  5  2  0
  5  6  1  0
  6  7  2  0
  7  8  1  0
  8  9  1  0
  9 10  1  0
 10 11  1  0
 11 12  1  0
 12 13  1  6
 12 14  1  0
 14 15  1  1
 15 16  1  0
 16 17  1  0
 17 18  2  0
 18 19  1  0
 19 20  2  0
 20 21  1  0
 21 22  1  0
 22 23  1  0
 23 24  1  0
 24 25  1  0
 25 26  1  0
 25 27  1  0
 27 28  1  0
 28 29  2  0
 29 30  1  0
 30 31  2  0
 31 32  1  0
 31 33  1  0
 33 34  2  0
 33 35  1  0
 20 36  1  0
  8 37  2  0
 32 27  2  0
 35 14  1  0
 36 16  2  0
 37  4  1  0
M  END
$$$$
