
     RDKit          3D

 37 40  0  0  0  0  0  0  0  0999 V2000
  -18.4765  -37.2871  -12.1430 C   0  0  0  0  0  0  0  0  0  0  0  0
  -19.3154  -38.5277  -12.1949 C   0  0  0  0  0  0  0  0  0  0  0  0
  -20.2574  -38.5032  -13.3818 C   0  0  0  0  0  0  0  0  0  0  0  0
  -18.4275  -39.7104  -12.2139 C   0  0  0  0  0  0  0  0  0  0  0  0
  -18.6276  -40.6813  -13.1455 C   0  0  0  0  0  0  0  0  0  0  0  0
  -17.7946  -41.7791  -13.1680 C   0  0  0  0  0  0  0  0  0  0  0  0
  -16.7564  -41.8894  -12.2367 C   0  0  0  0  0  0  0  0  0  0  0  0
  -16.5486  -40.9213  -11.2980 C   0  0  0  0  0  0  0  0  0  0  0  0
  -15.4678  -41.0082  -10.3198 C   0  0  0  0  0  0  0  0  0  0  0  0
  -15.1645  -39.7964   -9.6495 N   0  0  0  0  0  0  0  0  0  0  0  0
  -15.3650  -39.7046   -8.2660 C   0  0  0  0  0  0  0  0  0  0  0  0
  -16.4585  -38.8474   -7.7456 C   0  0  1  0  0  0  0  0  0  0  0  0
  -16.6314  -37.7355   -8.5347 O   0  0  0  0  0  0  0  0  0  0  0  0
  -17.7806  -39.6177   -7.5122 C   0  0  2  0  0  0  0  0  0  0  0  0
  -18.7787  -38.5753   -7.0417 C   0  0  0  0  0  0  0  0  0  0  0  0
  -19.8861  -39.1330   -6.1974 C   0  0  0  0  0  0  0  0  0  0  0  0
  -19.5870  -38.9145   -4.8262 C   0  0  0  0  0  0  0  0  0  0  0  0
  -20.4143  -39.2948   -3.8096 C   0  0  0  0  0  0  0  0  0  0  0  0
  -21.5667  -39.9094   -4.2101 C   0  0  0  0  0  0  0  0  0  0  0  0
  -21.9152  -40.1535   -5.5669 C   0  0  0  0  0  0  0  0  0  0  0  0
  -23.2395  -40.8219   -5.6150 C   0  0  0  0  0  0  0  0  0  0  0  0
  -23.3696  -42.1040   -6.3497 C   0  0  0  0  0  0  0  0  0  0  0  0
  -23.2081  -43.3528   -5.5461 C   0  0  0  0  0  0  0  0  0  0  0  0
  -22.9820  -44.5848   -6.3451 C   0  0  0  0  0  0  0  0  0  0  0  0
  -22.1978  -44.3712   -7.5433 N   0  0  0  0  0  0  0  0  0  0  0  0
  -23.0400  -44.6247   -8.7703 C   0  0  0  0  0  0  0  0  0  0  0  0
  -20.8228  -44.0003   -7.7002 C   0  0  0  0  0  0  0  0  0  0  0  0
  -20.2838  -44.7251   -8.8051 C   0  0  0  0  0  0  0  0  0  0  0  0
  -18.9971  -44.6047   -9.2349 C   0  0  0  0  0  0  0  0  0  0  0  0
  -18.2164  -43.7269   -8.5351 C   0  0  0  0  0  0  0  0  0  0  0  0
  -18.6964  -42.9753   -7.4269 C   0  0  0  0  0  0  0  0  0  0  0  0
  -20.0144  -43.1200   -7.0119 C   0  0  0  0  0  0  0  0  0  0  0  0
  -17.6016  -42.1232   -6.9304 C   0  0  0  0  0  0  0  0  0  0  0  0
  -16.4746  -42.7785   -6.7413 O   0  0  0  0  0  0  0  0  0  0  0  0
  -17.5795  -40.7144   -6.6299 N   0  0  0  0  0  0  0  0  0  0  0  0
  -21.0563  -39.7574   -6.5679 C   0  0  0  0  0  0  0  0  0  0  0  0
  -17.3960  -39.8270  -11.2948 C   0  0  0  0  0  0  0  0  0  0  0  0
  1  2  1  0
  2  3  1  0
  2  4  1  0
  4  5  2  0
  5  6  1  0
  6  7  2  0
  7  8  1  0
  8  9  1  0
  9 10  1  0
 10 11  1  0
 11 12  1  0
 12 13  1  6
 12 14  1  0
 14 15  1  1
 15 16  1  0
 16 17  1  0
 17 18  2  0
 18 19  1  0
 19 20  2  0
 20 21  1  0
 21 22  1  0
 22 23  1  0
 23 24  1  0
 24 25  1  0
 25 26  1  0
 25 27  1  0
 27 28  1  0
 28 29  2  0
 29 30  1  0
 30 31  2  0
 31 32  1  0
 31 33  1  0
 33 34  2  0
 33 35  1  0
 20 36  1  0
  8 37  2  0
 32 27  2  0
 35 14  1  0
 36 16  2  0
 37  4  1  0
M  END
$$$$
