
     RDKit          3D

 37 40  0  0  0  0  0  0  0  0999 V2000
  -12.3500  -42.6259  -13.9003 C   0  0  0  0  0  0  0  0  0  0  0  0
  -12.3600  -42.1496  -12.4795 C   0  0  0  0  0  0  0  0  0  0  0  0
  -11.1460  -42.6523  -11.7244 C   0  0  0  0  0  0  0  0  0  0  0  0
  -12.4514  -40.6734  -12.4660 C   0  0  0  0  0  0  0  0  0  0  0  0
  -11.8543  -39.9578  -13.4568 C   0  0  0  0  0  0  0  0  0  0  0  0
  -11.9470  -38.5827  -13.4482 C   0  0  0  0  0  0  0  0  0  0  0  0
  -12.6478  -37.9347  -12.4253 C   0  0  0  0  0  0  0  0  0  0  0  0
  -13.2490  -38.6438  -11.4268 C   0  0  0  0  0  0  0  0  0  0  0  0
  -13.9929  -37.9926  -10.3520 C   0  0  0  0  0  0  0  0  0  0  0  0
  -13.7382  -38.4982   -9.0522 N   0  0  0  0  0  0  0  0  0  0  0  0
  -14.7953  -39.0211   -8.2961 C   0  0  0  0  0  0  0  0  0  0  0  0
  -15.9897  -38.1797   -8.0378 C   0  0  1  0  0  0  0  0  0  0  0  0
  -16.0504  -37.1262   -8.9183 O   0  0  0  0  0  0  0  0  0  0  0  0
  -17.3088  -38.9882   -7.9921 C   0  0  2  0  0  0  0  0  0  0  0  0
  -18.4125  -37.9765   -8.2413 C   0  0  0  0  0  0  0  0  0  0  0  0
  -19.7375  -38.3675   -7.6568 C   0  0  0  0  0  0  0  0  0  0  0  0
  -19.9217  -37.6958   -6.4190 C   0  0  0  0  0  0  0  0  0  0  0  0
  -21.0424  -37.8326   -5.6524 C   0  0  0  0  0  0  0  0  0  0  0  0
  -21.9879  -38.6734   -6.1672 C   0  0  0  0  0  0  0  0  0  0  0  0
  -21.8551  -39.3706   -7.3994 C   0  0  0  0  0  0  0  0  0  0  0  0
  -23.0814  -40.1718   -7.6383 C   0  0  0  0  0  0  0  0  0  0  0  0
  -22.9484  -41.6257   -7.9012 C   0  0  0  0  0  0  0  0  0  0  0  0
  -23.0623  -42.5307   -6.7182 C   0  0  0  0  0  0  0  0  0  0  0  0
  -22.5726  -43.9155   -6.9418 C   0  0  0  0  0  0  0  0  0  0  0  0
  -21.4300  -43.9979   -7.8274 N   0  0  0  0  0  0  0  0  0  0  0  0
  -21.8056  -44.7214   -9.0980 C   0  0  0  0  0  0  0  0  0  0  0  0
  -20.0852  -43.5353   -7.6545 C   0  0  0  0  0  0  0  0  0  0  0  0
  -19.2001  -44.5014   -8.2203 C   0  0  0  0  0  0  0  0  0  0  0  0
  -17.8445  -44.3709   -8.2334 C   0  0  0  0  0  0  0  0  0  0  0  0
  -17.3515  -43.2320   -7.6593 C   0  0  0  0  0  0  0  0  0  0  0  0
  -18.1822  -42.2326   -7.0809 C   0  0  0  0  0  0  0  0  0  0  0  0
  -19.5622  -42.3943   -7.0826 C   0  0  0  0  0  0  0  0  0  0  0  0
  -17.3246  -41.1447   -6.5788 C   0  0  0  0  0  0  0  0  0  0  0  0
  -16.3249  -41.5695   -5.8335 O   0  0  0  0  0  0  0  0  0  0  0  0
  -17.4128  -39.7206   -6.7778 N   0  0  0  0  0  0  0  0  0  0  0  0
  -20.7100  -39.2103   -8.1475 C   0  0  0  0  0  0  0  0  0  0  0  0
  -13.1445  -40.0236  -11.4562 C   0  0  0  0  0  0  0  0  0  0  0  0
  1  2  1  0
  2  3  1  0
  2  4  1  0
  4  5  2  0
  5  6  1  0
  6  7  2  0
  7  8  1  0
  8  9  1  0
  9 10  1  0
 10 11  1  0
 11 12  1  0
 12 13  1  6
 12 14  1  0
 14 15  1  1
 15 16  1  0
 16 17  1  0
 17 18  2  0
 18 19  1  0
 19 20  2  0
 20 21  1  0
 21 22  1  0
 22 23  1  0
 23 24  1  0
 24 25  1  0
 25 26  1  0
 25 27  1  0
 27 28  1  0
 28 29  2  0
 29 30  1  0
 30 31  2  0
 31 32  1  0
 31 33  1  0
 33 34  2  0
 33 35  1  0
 20 36  1  0
  8 37  2  0
 32 27  2  0
 35 14  1  0
 36 16  2  0
 37  4  1  0
M  END
$$$$
