
     RDKit          3D

 37 40  0  0  0  0  0  0  0  0999 V2000
  -16.7302  -36.5431  -12.1412 C   0  0  0  0  0  0  0  0  0  0  0  0
  -15.3084  -36.1481  -12.4021 C   0  0  0  0  0  0  0  0  0  0  0  0
  -14.9640  -34.8476  -11.7044 C   0  0  0  0  0  0  0  0  0  0  0  0
  -14.4168  -37.2537  -11.9897 C   0  0  0  0  0  0  0  0  0  0  0  0
  -13.3016  -37.5211  -12.7213 C   0  0  0  0  0  0  0  0  0  0  0  0
  -12.4666  -38.5461  -12.3316 C   0  0  0  0  0  0  0  0  0  0  0  0
  -12.7705  -39.3027  -11.1946 C   0  0  0  0  0  0  0  0  0  0  0  0
  -13.8872  -39.0427  -10.4552 C   0  0  0  0  0  0  0  0  0  0  0  0
  -14.2232  -39.8119   -9.2603 C   0  0  0  0  0  0  0  0  0  0  0  0
  -14.5705  -39.0378   -8.1246 N   0  0  0  0  0  0  0  0  0  0  0  0
  -15.6108  -38.1042   -8.2180 C   0  0  0  0  0  0  0  0  0  0  0  0
  -16.5931  -37.9975   -7.1112 C   0  0  1  0  0  0  0  0  0  0  0  0
  -16.9763  -36.6922   -6.9162 O   0  0  0  0  0  0  0  0  0  0  0  0
  -17.8021  -38.9504   -7.2729 C   0  0  2  0  0  0  0  0  0  0  0  0
  -19.0313  -38.0666   -7.1638 C   0  0  0  0  0  0  0  0  0  0  0  0
  -20.2565  -38.7875   -6.6848 C   0  0  0  0  0  0  0  0  0  0  0  0
  -20.4289  -38.5489   -5.2953 C   0  0  0  0  0  0  0  0  0  0  0  0
  -21.4684  -39.0571   -4.5717 C   0  0  0  0  0  0  0  0  0  0  0  0
  -22.3436  -39.8226   -5.2887 C   0  0  0  0  0  0  0  0  0  0  0  0
  -22.2186  -40.0938   -6.6789 C   0  0  0  0  0  0  0  0  0  0  0  0
  -23.3569  -40.9420   -7.1121 C   0  0  0  0  0  0  0  0  0  0  0  0
  -23.0743  -42.2187   -7.8124 C   0  0  0  0  0  0  0  0  0  0  0  0
  -22.9970  -43.4437   -6.9610 C   0  0  0  0  0  0  0  0  0  0  0  0
  -22.3662  -44.6196   -7.6144 C   0  0  0  0  0  0  0  0  0  0  0  0
  -21.2880  -44.2799   -8.5191 N   0  0  0  0  0  0  0  0  0  0  0  0
  -21.6664  -44.6320   -9.9375 C   0  0  0  0  0  0  0  0  0  0  0  0
  -19.9975  -43.7160   -8.2564 C   0  0  0  0  0  0  0  0  0  0  0  0
  -19.0484  -44.3411   -9.1196 C   0  0  0  0  0  0  0  0  0  0  0  0
  -17.7217  -44.0337   -9.1361 C   0  0  0  0  0  0  0  0  0  0  0  0
  -17.3252  -43.0646   -8.2566 C   0  0  0  0  0  0  0  0  0  0  0  0
  -18.2235  -42.4046   -7.3730 C   0  0  0  0  0  0  0  0  0  0  0  0
  -19.5717  -42.7402   -7.3794 C   0  0  0  0  0  0  0  0  0  0  0  0
  -17.4651  -41.4135   -6.5895 C   0  0  0  0  0  0  0  0  0  0  0  0
  -16.3720  -41.9055   -6.0433 O   0  0  0  0  0  0  0  0  0  0  0  0
  -17.7329  -40.0203   -6.3391 N   0  0  0  0  0  0  0  0  0  0  0  0
  -21.1565  -39.5656   -7.3785 C   0  0  0  0  0  0  0  0  0  0  0  0
  -14.7105  -38.0079  -10.8639 C   0  0  0  0  0  0  0  0  0  0  0  0
  1  2  1  0
  2  3  1  0
  2  4  1  0
  4  5  2  0
  5  6  1  0
  6  7  2  0
  7  8  1  0
  8  9  1  0
  9 10  1  0
 10 11  1  0
 11 12  1  0
 12 13  1  6
 12 14  1  0
 14 15  1  1
 15 16  1  0
 16 17  1  0
 17 18  2  0
 18 19  1  0
 19 20  2  0
 20 21  1  0
 21 22  1  0
 22 23  1  0
 23 24  1  0
 24 25  1  0
 25 26  1  0
 25 27  1  0
 27 28  1  0
 28 29  2  0
 29 30  1  0
 30 31  2  0
 31 32  1  0
 31 33  1  0
 33 34  2  0
 33 35  1  0
 20 36  1  0
  8 37  2  0
 32 27  2  0
 35 14  1  0
 36 16  2  0
 37  4  1  0
M  END
$$$$
