
     RDKit          3D

 37 40  0  0  0  0  0  0  0  0999 V2000
  -11.2911  -43.0479   -9.9268 C   0  0  0  0  0  0  0  0  0  0  0  0
  -12.6175  -42.6916   -9.3273 C   0  0  0  0  0  0  0  0  0  0  0  0
  -12.4502  -42.0806   -7.9505 C   0  0  0  0  0  0  0  0  0  0  0  0
  -13.3387  -41.7902  -10.2519 C   0  0  0  0  0  0  0  0  0  0  0  0
  -14.0031  -42.3167  -11.3158 C   0  0  0  0  0  0  0  0  0  0  0  0
  -14.6819  -41.4770  -12.1723 C   0  0  0  0  0  0  0  0  0  0  0  0
  -14.6814  -40.0964  -11.9457 C   0  0  0  0  0  0  0  0  0  0  0  0
  -14.0171  -39.5590  -10.8821 C   0  0  0  0  0  0  0  0  0  0  0  0
  -14.0072  -38.1227  -10.6185 C   0  0  0  0  0  0  0  0  0  0  0  0
  -15.2059  -37.6040  -10.0674 N   0  0  0  0  0  0  0  0  0  0  0  0
  -16.0454  -38.4460   -9.3265 C   0  0  0  0  0  0  0  0  0  0  0  0
  -17.1789  -37.8592   -8.5700 C   0  0  1  0  0  0  0  0  0  0  0  0
  -17.6695  -36.7429   -9.2041 O   0  0  0  0  0  0  0  0  0  0  0  0
  -18.2888  -38.8857   -8.2378 C   0  0  2  0  0  0  0  0  0  0  0  0
  -19.5801  -38.0886   -8.2032 C   0  0  0  0  0  0  0  0  0  0  0  0
  -20.6441  -38.6944   -7.3366 C   0  0  0  0  0  0  0  0  0  0  0  0
  -20.6517  -38.0408   -6.0757 C   0  0  0  0  0  0  0  0  0  0  0  0
  -21.5227  -38.3568   -5.0737 C   0  0  0  0  0  0  0  0  0  0  0  0
  -22.3992  -39.3608   -5.3738 C   0  0  0  0  0  0  0  0  0  0  0  0
  -22.4349  -40.0483   -6.6180 C   0  0  0  0  0  0  0  0  0  0  0  0
  -23.5232  -41.0570   -6.5839 C   0  0  0  0  0  0  0  0  0  0  0  0
  -23.2018  -42.4699   -6.9016 C   0  0  0  0  0  0  0  0  0  0  0  0
  -22.8783  -43.3569   -5.7440 C   0  0  0  0  0  0  0  0  0  0  0  0
  -22.2186  -44.6385   -6.1046 C   0  0  0  0  0  0  0  0  0  0  0  0
  -21.3157  -44.5367   -7.2319 N   0  0  0  0  0  0  0  0  0  0  0  0
  -21.8423  -45.3402   -8.3964 C   0  0  0  0  0  0  0  0  0  0  0  0
  -20.0699  -43.8419   -7.3649 C   0  0  0  0  0  0  0  0  0  0  0  0
  -19.1845  -44.6487   -8.1407 C   0  0  0  0  0  0  0  0  0  0  0  0
  -17.9132  -44.2826   -8.4642 C   0  0  0  0  0  0  0  0  0  0  0  0
  -17.5083  -43.0635   -7.9954 C   0  0  0  0  0  0  0  0  0  0  0  0
  -18.3447  -42.2141   -7.2192 C   0  0  0  0  0  0  0  0  0  0  0  0
  -19.6372  -42.6156   -6.9052 C   0  0  0  0  0  0  0  0  0  0  0  0
  -17.5986  -40.9827   -6.9059 C   0  0  0  0  0  0  0  0  0  0  0  0
  -16.3950  -41.2104   -6.4213 O   0  0  0  0  0  0  0  0  0  0  0  0
  -17.9788  -39.6005   -7.0485 N   0  0  0  0  0  0  0  0  0  0  0  0
  -21.5404  -39.7044   -7.6070 C   0  0  0  0  0  0  0  0  0  0  0  0
  -13.3435  -40.4209  -10.0341 C   0  0  0  0  0  0  0  0  0  0  0  0
  1  2  1  0
  2  3  1  0
  2  4  1  0
  4  5  2  0
  5  6  1  0
  6  7  2  0
  7  8  1  0
  8  9  1  0
  9 10  1  0
 10 11  1  0
 11 12  1  0
 12 13  1  6
 12 14  1  0
 14 15  1  1
 15 16  1  0
 16 17  1  0
 17 18  2  0
 18 19  1  0
 19 20  2  0
 20 21  1  0
 21 22  1  0
 22 23  1  0
 23 24  1  0
 24 25  1  0
 25 26  1  0
 25 27  1  0
 27 28  1  0
 28 29  2  0
 29 30  1  0
 30 31  2  0
 31 32  1  0
 31 33  1  0
 33 34  2  0
 33 35  1  0
 20 36  1  0
  8 37  2  0
 32 27  2  0
 35 14  1  0
 36 16  2  0
 37  4  1  0
M  END
$$$$
