
     RDKit          3D

 37 40  0  0  0  0  0  0  0  0999 V2000
  -12.9669  -34.8423  -11.9099 C   0  0  0  0  0  0  0  0  0  0  0  0
  -12.1968  -35.9511  -12.5604 C   0  0  0  0  0  0  0  0  0  0  0  0
  -10.7467  -35.9429  -12.1202 C   0  0  0  0  0  0  0  0  0  0  0  0
  -12.8609  -37.2389  -12.2635 C   0  0  0  0  0  0  0  0  0  0  0  0
  -13.4420  -37.9397  -13.2743 C   0  0  0  0  0  0  0  0  0  0  0  0
  -14.0534  -39.1437  -12.9983 C   0  0  0  0  0  0  0  0  0  0  0  0
  -14.0752  -39.6337  -11.6880 C   0  0  0  0  0  0  0  0  0  0  0  0
  -13.4962  -38.9375  -10.6676 C   0  0  0  0  0  0  0  0  0  0  0  0
  -13.4981  -39.4300   -9.2929 C   0  0  0  0  0  0  0  0  0  0  0  0
  -14.7659  -39.8271   -8.7980 N   0  0  0  0  0  0  0  0  0  0  0  0
  -15.9015  -39.0765   -9.1289 C   0  0  0  0  0  0  0  0  0  0  0  0
  -16.7999  -38.6027   -8.0473 C   0  0  1  0  0  0  0  0  0  0  0  0
  -17.0616  -37.2597   -8.1767 O   0  0  0  0  0  0  0  0  0  0  0  0
  -18.0907  -39.4459   -7.9115 C   0  0  2  0  0  0  0  0  0  0  0  0
  -19.2172  -38.4399   -7.7596 C   0  0  0  0  0  0  0  0  0  0  0  0
  -20.4115  -38.9726   -7.0248 C   0  0  0  0  0  0  0  0  0  0  0  0
  -20.3585  -38.5467   -5.6708 C   0  0  0  0  0  0  0  0  0  0  0  0
  -21.3171  -38.8569   -4.7503 C   0  0  0  0  0  0  0  0  0  0  0  0
  -22.3457  -39.6170   -5.2302 C   0  0  0  0  0  0  0  0  0  0  0  0
  -22.4482  -40.0704   -6.5740 C   0  0  0  0  0  0  0  0  0  0  0  0
  -23.7010  -40.8511   -6.7286 C   0  0  0  0  0  0  0  0  0  0  0  0
  -23.6258  -42.2267   -7.2786 C   0  0  0  0  0  0  0  0  0  0  0  0
  -23.5208  -43.3374   -6.2853 C   0  0  0  0  0  0  0  0  0  0  0  0
  -23.0875  -44.6416   -6.8503 C   0  0  0  0  0  0  0  0  0  0  0  0
  -22.1306  -44.5240   -7.9305 N   0  0  0  0  0  0  0  0  0  0  0  0
  -22.7399  -45.0118   -9.2227 C   0  0  0  0  0  0  0  0  0  0  0  0
  -20.7751  -44.0602   -7.9248 C   0  0  0  0  0  0  0  0  0  0  0  0
  -20.0154  -44.8777   -8.8144 C   0  0  0  0  0  0  0  0  0  0  0  0
  -18.6855  -44.7055   -9.0523 C   0  0  0  0  0  0  0  0  0  0  0  0
  -18.0891  -43.6774   -8.3761 C   0  0  0  0  0  0  0  0  0  0  0  0
  -18.7929  -42.8280   -7.4781 C   0  0  0  0  0  0  0  0  0  0  0  0
  -20.1496  -43.0289   -7.2560 C   0  0  0  0  0  0  0  0  0  0  0  0
  -17.8519  -41.8256   -6.9482 C   0  0  0  0  0  0  0  0  0  0  0  0
  -16.7326  -42.3497   -6.4925 O   0  0  0  0  0  0  0  0  0  0  0  0
  -17.9695  -40.3926   -6.8576 N   0  0  0  0  0  0  0  0  0  0  0  0
  -21.4621  -39.7397   -7.4767 C   0  0  0  0  0  0  0  0  0  0  0  0
  -12.8866  -37.7317  -10.9678 C   0  0  0  0  0  0  0  0  0  0  0  0
  1  2  1  0
  2  3  1  0
  2  4  1  0
  4  5  2  0
  5  6  1  0
  6  7  2  0
  7  8  1  0
  8  9  1  0
  9 10  1  0
 10 11  1  0
 11 12  1  0
 12 13  1  6
 12 14  1  0
 14 15  1  1
 15 16  1  0
 16 17  1  0
 17 18  2  0
 18 19  1  0
 19 20  2  0
 20 21  1  0
 21 22  1  0
 22 23  1  0
 23 24  1  0
 24 25  1  0
 25 26  1  0
 25 27  1  0
 27 28  1  0
 28 29  2  0
 29 30  1  0
 30 31  2  0
 31 32  1  0
 31 33  1  0
 33 34  2  0
 33 35  1  0
 20 36  1  0
  8 37  2  0
 32 27  2  0
 35 14  1  0
 36 16  2  0
 37  4  1  0
M  END
$$$$
