
     RDKit          3D

 37 40  0  0  0  0  0  0  0  0999 V2000
  -12.1612  -38.7242  -14.6510 C   0  0  0  0  0  0  0  0  0  0  0  0
  -11.4517  -38.3382  -13.3888 C   0  0  0  0  0  0  0  0  0  0  0  0
  -10.1409  -37.6392  -13.6885 C   0  0  0  0  0  0  0  0  0  0  0  0
  -12.3521  -37.5023  -12.5652 C   0  0  0  0  0  0  0  0  0  0  0  0
  -13.0184  -36.4673  -13.1441 C   0  0  0  0  0  0  0  0  0  0  0  0
  -13.8638  -35.6939  -12.3780 C   0  0  0  0  0  0  0  0  0  0  0  0
  -14.0284  -35.9744  -11.0172 C   0  0  0  0  0  0  0  0  0  0  0  0
  -13.3636  -37.0095  -10.4275 C   0  0  0  0  0  0  0  0  0  0  0  0
  -13.5235  -37.3283   -9.0114 C   0  0  0  0  0  0  0  0  0  0  0  0
  -13.8711  -38.6743   -8.7334 N   0  0  0  0  0  0  0  0  0  0  0  0
  -15.1775  -39.1148   -8.9821 C   0  0  0  0  0  0  0  0  0  0  0  0
  -16.3193  -38.2290   -8.6458 C   0  0  1  0  0  0  0  0  0  0  0  0
  -16.4678  -37.2377   -9.5861 O   0  0  0  0  0  0  0  0  0  0  0  0
  -17.6362  -39.0005   -8.3876 C   0  0  2  0  0  0  0  0  0  0  0  0
  -18.7433  -37.9732   -8.5387 C   0  0  0  0  0  0  0  0  0  0  0  0
  -19.9865  -38.3029   -7.7667 C   0  0  0  0  0  0  0  0  0  0  0  0
  -19.9919  -37.5706   -6.5498 C   0  0  0  0  0  0  0  0  0  0  0  0
  -21.0036  -37.6432   -5.6367 C   0  0  0  0  0  0  0  0  0  0  0  0
  -22.0251  -38.4823   -5.9811 C   0  0  0  0  0  0  0  0  0  0  0  0
  -22.0703  -39.2385   -7.1844 C   0  0  0  0  0  0  0  0  0  0  0  0
  -23.3328  -40.0180   -7.2205 C   0  0  0  0  0  0  0  0  0  0  0  0
  -23.2640  -41.4854   -7.4272 C   0  0  0  0  0  0  0  0  0  0  0  0
  -23.2376  -42.3319   -6.1968 C   0  0  0  0  0  0  0  0  0  0  0  0
  -22.8088  -43.7376   -6.4149 C   0  0  0  0  0  0  0  0  0  0  0  0
  -21.7955  -43.8899   -7.4378 N   0  0  0  0  0  0  0  0  0  0  0  0
  -22.3501  -44.6610   -8.6111 C   0  0  0  0  0  0  0  0  0  0  0  0
  -20.4309  -43.4545   -7.4660 C   0  0  0  0  0  0  0  0  0  0  0  0
  -19.6475  -44.4679   -8.0954 C   0  0  0  0  0  0  0  0  0  0  0  0
  -18.3033  -44.3731   -8.2930 C   0  0  0  0  0  0  0  0  0  0  0  0
  -17.7166  -43.2220   -7.8451 C   0  0  0  0  0  0  0  0  0  0  0  0
  -18.4438  -42.1762   -7.2120 C   0  0  0  0  0  0  0  0  0  0  0  0
  -19.8147  -42.3023   -7.0244 C   0  0  0  0  0  0  0  0  0  0  0  0
  -17.5063  -41.0887   -6.8808 C   0  0  0  0  0  0  0  0  0  0  0  0
  -16.4251  -41.5044   -6.2536 O   0  0  0  0  0  0  0  0  0  0  0  0
  -17.5924  -39.6735   -7.1359 N   0  0  0  0  0  0  0  0  0  0  0  0
  -21.0316  -39.1421   -8.0835 C   0  0  0  0  0  0  0  0  0  0  0  0
  -12.5212  -37.7739  -11.2161 C   0  0  0  0  0  0  0  0  0  0  0  0
  1  2  1  0
  2  3  1  0
  2  4  1  0
  4  5  2  0
  5  6  1  0
  6  7  2  0
  7  8  1  0
  8  9  1  0
  9 10  1  0
 10 11  1  0
 11 12  1  0
 12 13  1  6
 12 14  1  0
 14 15  1  1
 15 16  1  0
 16 17  1  0
 17 18  2  0
 18 19  1  0
 19 20  2  0
 20 21  1  0
 21 22  1  0
 22 23  1  0
 23 24  1  0
 24 25  1  0
 25 26  1  0
 25 27  1  0
 27 28  1  0
 28 29  2  0
 29 30  1  0
 30 31  2  0
 31 32  1  0
 31 33  1  0
 33 34  2  0
 33 35  1  0
 20 36  1  0
  8 37  2  0
 32 27  2  0
 35 14  1  0
 36 16  2  0
 37  4  1  0
M  END
$$$$
