
     RDKit          3D

 37 40  0  0  0  0  0  0  0  0999 V2000
  -13.0015  -35.1059  -13.8938 C   0  0  0  0  0  0  0  0  0  0  0  0
  -12.6028  -35.4923  -12.5019 C   0  0  0  0  0  0  0  0  0  0  0  0
  -13.1821  -34.5347  -11.4801 C   0  0  0  0  0  0  0  0  0  0  0  0
  -13.0169  -36.8900  -12.2516 C   0  0  0  0  0  0  0  0  0  0  0  0
  -13.4489  -37.6551  -13.2901 C   0  0  0  0  0  0  0  0  0  0  0  0
  -13.8266  -38.9600  -13.0577 C   0  0  0  0  0  0  0  0  0  0  0  0
  -13.7668  -39.4861  -11.7626 C   0  0  0  0  0  0  0  0  0  0  0  0
  -13.3360  -38.7261  -10.7146 C   0  0  0  0  0  0  0  0  0  0  0  0
  -13.2566  -39.2530   -9.3550 C   0  0  0  0  0  0  0  0  0  0  0  0
  -14.3695  -40.0296   -8.9449 N   0  0  0  0  0  0  0  0  0  0  0  0
  -15.6625  -39.5075   -9.0804 C   0  0  0  0  0  0  0  0  0  0  0  0
  -16.4192  -39.1165   -7.8656 C   0  0  1  0  0  0  0  0  0  0  0  0
  -16.4790  -37.7491   -7.7409 O   0  0  0  0  0  0  0  0  0  0  0  0
  -17.8148  -39.7797   -7.7748 C   0  0  2  0  0  0  0  0  0  0  0  0
  -18.8116  -38.6573   -7.9997 C   0  0  0  0  0  0  0  0  0  0  0  0
  -20.1526  -38.9022   -7.3736 C   0  0  0  0  0  0  0  0  0  0  0  0
  -20.2271  -38.2087   -6.1364 C   0  0  0  0  0  0  0  0  0  0  0  0
  -21.3326  -38.2215   -5.3362 C   0  0  0  0  0  0  0  0  0  0  0  0
  -22.3771  -38.9594   -5.8164 C   0  0  0  0  0  0  0  0  0  0  0  0
  -22.3561  -39.6728   -7.0462 C   0  0  0  0  0  0  0  0  0  0  0  0
  -23.6672  -40.3400   -7.2427 C   0  0  0  0  0  0  0  0  0  0  0  0
  -23.6975  -41.8010   -7.4976 C   0  0  0  0  0  0  0  0  0  0  0  0
  -23.8715  -42.6829   -6.3046 C   0  0  0  0  0  0  0  0  0  0  0  0
  -23.5387  -44.1131   -6.5313 C   0  0  0  0  0  0  0  0  0  0  0  0
  -22.4384  -44.3211   -7.4492 N   0  0  0  0  0  0  0  0  0  0  0  0
  -22.9267  -45.0066   -8.7024 C   0  0  0  0  0  0  0  0  0  0  0  0
  -21.0474  -44.0035   -7.3195 C   0  0  0  0  0  0  0  0  0  0  0  0
  -20.2874  -45.0611   -7.9032 C   0  0  0  0  0  0  0  0  0  0  0  0
  -18.9267  -45.0758   -7.9570 C   0  0  0  0  0  0  0  0  0  0  0  0
  -18.2983  -43.9931   -7.4068 C   0  0  0  0  0  0  0  0  0  0  0  0
  -19.0004  -42.9081   -6.8124 C   0  0  0  0  0  0  0  0  0  0  0  0
  -20.3892  -42.9219   -6.7724 C   0  0  0  0  0  0  0  0  0  0  0  0
  -18.0174  -41.9153   -6.3444 C   0  0  0  0  0  0  0  0  0  0  0  0
  -17.0466  -42.4405   -5.6253 O   0  0  0  0  0  0  0  0  0  0  0  0
  -17.9596  -40.4909   -6.5522 N   0  0  0  0  0  0  0  0  0  0  0  0
  -21.2234  -39.6390   -7.8288 C   0  0  0  0  0  0  0  0  0  0  0  0
  -12.9601  -37.4190  -10.9713 C   0  0  0  0  0  0  0  0  0  0  0  0
  1  2  1  0
  2  3  1  0
  2  4  1  0
  4  5  2  0
  5  6  1  0
  6  7  2  0
  7  8  1  0
  8  9  1  0
  9 10  1  0
 10 11  1  0
 11 12  1  0
 12 13  1  6
 12 14  1  0
 14 15  1  1
 15 16  1  0
 16 17  1  0
 17 18  2  0
 18 19  1  0
 19 20  2  0
 20 21  1  0
 21 22  1  0
 22 23  1  0
 23 24  1  0
 24 25  1  0
 25 26  1  0
 25 27  1  0
 27 28  1  0
 28 29  2  0
 29 30  1  0
 30 31  2  0
 31 32  1  0
 31 33  1  0
 33 34  2  0
 33 35  1  0
 20 36  1  0
  8 37  2  0
 32 27  2  0
 35 14  1  0
 36 16  2  0
 37  4  1  0
M  END
$$$$
