
     RDKit          3D

 37 40  0  0  0  0  0  0  0  0999 V2000
  -19.0515  -37.3822  -11.8361 C   0  0  0  0  0  0  0  0  0  0  0  0
  -20.4959  -37.6771  -11.5668 C   0  0  0  0  0  0  0  0  0  0  0  0
  -21.0041  -38.7901  -12.4611 C   0  0  0  0  0  0  0  0  0  0  0  0
  -20.6643  -37.9955  -10.1323 C   0  0  0  0  0  0  0  0  0  0  0  0
  -21.5561  -37.2851   -9.3904 C   0  0  0  0  0  0  0  0  0  0  0  0
  -21.7187  -37.5879   -8.0556 C   0  0  0  0  0  0  0  0  0  0  0  0
  -20.9682  -38.6157   -7.4745 C   0  0  0  0  0  0  0  0  0  0  0  0
  -20.0706  -39.3329   -8.2103 C   0  0  0  0  0  0  0  0  0  0  0  0
  -19.2806  -40.4155   -7.6302 C   0  0  0  0  0  0  0  0  0  0  0  0
  -18.5433  -40.0674   -6.4705 N   0  0  0  0  0  0  0  0  0  0  0  0
  -17.1663  -39.8310   -6.5736 C   0  0  0  0  0  0  0  0  0  0  0  0
  -16.6728  -38.8226   -7.5438 C   0  0  1  0  0  0  0  0  0  0  0  0
  -16.0891  -37.7601   -6.8964 O   0  0  0  0  0  0  0  0  0  0  0  0
  -15.7572  -39.4235   -8.6375 C   0  0  2  0  0  0  0  0  0  0  0  0
  -14.6912  -38.3739   -8.8945 C   0  0  0  0  0  0  0  0  0  0  0  0
  -14.0928  -38.4406  -10.2685 C   0  0  0  0  0  0  0  0  0  0  0  0
  -14.7117  -37.4679  -11.0981 C   0  0  0  0  0  0  0  0  0  0  0  0
  -14.3692  -37.2709  -12.4044 C   0  0  0  0  0  0  0  0  0  0  0  0
  -13.3750  -38.0873  -12.8639 C   0  0  0  0  0  0  0  0  0  0  0  0
  -12.7227  -39.0765  -12.0780 C   0  0  0  0  0  0  0  0  0  0  0  0
  -11.6921  -39.7519  -12.9055 C   0  0  0  0  0  0  0  0  0  0  0  0
  -11.7198  -41.2306  -13.0196 C   0  0  0  0  0  0  0  0  0  0  0  0
  -12.4620  -41.7959  -14.1862 C   0  0  0  0  0  0  0  0  0  0  0  0
  -12.7808  -43.2433  -14.0817 C   0  0  0  0  0  0  0  0  0  0  0  0
  -13.0774  -43.6829  -12.7344 N   0  0  0  0  0  0  0  0  0  0  0  0
  -12.0166  -44.6433  -12.2534 C   0  0  0  0  0  0  0  0  0  0  0  0
  -14.1776  -43.3641  -11.8739 C   0  0  0  0  0  0  0  0  0  0  0  0
  -14.5458  -44.5425  -11.1579 C   0  0  0  0  0  0  0  0  0  0  0  0
  -15.5558  -44.5900  -10.2454 C   0  0  0  0  0  0  0  0  0  0  0  0
  -16.2256  -43.4159  -10.0386 C   0  0  0  0  0  0  0  0  0  0  0  0
  -15.9045  -42.2093  -10.7201 C   0  0  0  0  0  0  0  0  0  0  0  0
  -14.8686  -42.1924  -11.6458 C   0  0  0  0  0  0  0  0  0  0  0  0
  -16.8072  -41.1476  -10.2416 C   0  0  0  0  0  0  0  0  0  0  0  0
  -18.0770  -41.4981  -10.2515 O   0  0  0  0  0  0  0  0  0  0  0  0
  -16.5157  -39.8165   -9.7741 N   0  0  0  0  0  0  0  0  0  0  0  0
  -13.0940  -39.2494  -10.7632 C   0  0  0  0  0  0  0  0  0  0  0  0
  -19.9248  -39.0129   -9.5489 C   0  0  0  0  0  0  0  0  0  0  0  0
  1  2  1  0
  2  3  1  0
  2  4  1  0
  4  5  2  0
  5  6  1  0
  6  7  2  0
  7  8  1  0
  8  9  1  0
  9 10  1  0
 10 11  1  0
 11 12  1  0
 12 13  1  1
 12 14  1  0
 14 15  1  6
 15 16  1  0
 16 17  1  0
 17 18  2  0
 18 19  1  0
 19 20  2  0
 20 21  1  0
 21 22  1  0
 22 23  1  0
 23 24  1  0
 24 25  1  0
 25 26  1  0
 25 27  1  0
 27 28  1  0
 28 29  2  0
 29 30  1  0
 30 31  2  0
 31 32  1  0
 31 33  1  0
 33 34  2  0
 33 35  1  0
 20 36  1  0
  8 37  2  0
 32 27  2  0
 35 14  1  0
 36 16  2  0
 37  4  1  0
M  END
$$$$
