
     RDKit          3D

 37 40  0  0  0  0  0  0  0  0999 V2000
  -10.3450  -37.6017  -14.4967 C   0  0  0  0  0  0  0  0  0  0  0  0
  -10.6720  -37.0065  -13.1608 C   0  0  0  0  0  0  0  0  0  0  0  0
  -11.0660  -35.5490  -13.2917 C   0  0  0  0  0  0  0  0  0  0  0  0
  -11.7322  -37.8138  -12.5192 C   0  0  0  0  0  0  0  0  0  0  0  0
  -11.5165  -39.1367  -12.2867 C   0  0  0  0  0  0  0  0  0  0  0  0
  -12.5016  -39.8865  -11.6811 C   0  0  0  0  0  0  0  0  0  0  0  0
  -13.7114  -39.2873  -11.3139 C   0  0  0  0  0  0  0  0  0  0  0  0
  -13.9374  -37.9616  -11.5440 C   0  0  0  0  0  0  0  0  0  0  0  0
  -15.1877  -37.3101  -11.1636 C   0  0  0  0  0  0  0  0  0  0  0  0
  -16.2432  -38.1905  -10.8159 N   0  0  0  0  0  0  0  0  0  0  0  0
  -16.3007  -38.7206   -9.5204 C   0  0  0  0  0  0  0  0  0  0  0  0
  -17.1614  -38.0655   -8.5048 C   0  0  1  0  0  0  0  0  0  0  0  0
  -17.5680  -36.8234   -8.9303 O   0  0  0  0  0  0  0  0  0  0  0  0
  -18.3459  -38.9495   -8.0453 C   0  0  2  0  0  0  0  0  0  0  0  0
  -19.3837  -37.9848   -7.5011 C   0  0  0  0  0  0  0  0  0  0  0  0
  -20.2998  -38.5915   -6.4799 C   0  0  0  0  0  0  0  0  0  0  0  0
  -19.8483  -38.2444   -5.1787 C   0  0  0  0  0  0  0  0  0  0  0  0
  -20.4857  -38.6337   -4.0364 C   0  0  0  0  0  0  0  0  0  0  0  0
  -21.6045  -39.3917   -4.2362 C   0  0  0  0  0  0  0  0  0  0  0  0
  -22.0998  -39.7683   -5.5147 C   0  0  0  0  0  0  0  0  0  0  0  0
  -23.3352  -40.5719   -5.3391 C   0  0  0  0  0  0  0  0  0  0  0  0
  -23.4164  -41.9104   -5.9734 C   0  0  0  0  0  0  0  0  0  0  0  0
  -23.0106  -43.0742   -5.1295 C   0  0  0  0  0  0  0  0  0  0  0  0
  -22.7551  -44.3309   -5.8799 C   0  0  0  0  0  0  0  0  0  0  0  0
  -22.1655  -44.1246   -7.1861 N   0  0  0  0  0  0  0  0  0  0  0  0
  -23.1288  -44.5520   -8.2670 C   0  0  0  0  0  0  0  0  0  0  0  0
  -20.8739  -43.6256   -7.5543 C   0  0  0  0  0  0  0  0  0  0  0  0
  -20.4079  -44.3689   -8.6800 C   0  0  0  0  0  0  0  0  0  0  0  0
  -19.2112  -44.1473   -9.2913 C   0  0  0  0  0  0  0  0  0  0  0  0
  -18.4485  -43.1450   -8.7589 C   0  0  0  0  0  0  0  0  0  0  0  0
  -18.8590  -42.3688   -7.6398 C   0  0  0  0  0  0  0  0  0  0  0  0
  -20.0857  -42.6188   -7.0374 C   0  0  0  0  0  0  0  0  0  0  0  0
  -17.8109  -41.3743   -7.3508 C   0  0  0  0  0  0  0  0  0  0  0  0
  -16.6023  -41.8939   -7.2833 O   0  0  0  0  0  0  0  0  0  0  0  0
  -17.9077  -39.9527   -7.1380 N   0  0  0  0  0  0  0  0  0  0  0  0
  -21.4311  -39.3589   -6.6469 C   0  0  0  0  0  0  0  0  0  0  0  0
  -12.9338  -37.2275  -12.1517 C   0  0  0  0  0  0  0  0  0  0  0  0
  1  2  1  0
  2  3  1  0
  2  4  1  0
  4  5  2  0
  5  6  1  0
  6  7  2  0
  7  8  1  0
  8  9  1  0
  9 10  1  0
 10 11  1  0
 11 12  1  0
 12 13  1  6
 12 14  1  0
 14 15  1  1
 15 16  1  0
 16 17  1  0
 17 18  2  0
 18 19  1  0
 19 20  2  0
 20 21  1  0
 21 22  1  0
 22 23  1  0
 23 24  1  0
 24 25  1  0
 25 26  1  0
 25 27  1  0
 27 28  1  0
 28 29  2  0
 29 30  1  0
 30 31  2  0
 31 32  1  0
 31 33  1  0
 33 34  2  0
 33 35  1  0
 20 36  1  0
  8 37  2  0
 32 27  2  0
 35 14  1  0
 36 16  2  0
 37  4  1  0
M  END
$$$$
