
     RDKit          3D

 37 40  0  0  0  0  0  0  0  0999 V2000
  -10.3301  -42.7441   -8.7539 C   0  0  0  0  0  0  0  0  0  0  0  0
  -11.6865  -42.9835   -9.3442 C   0  0  0  0  0  0  0  0  0  0  0  0
  -12.1223  -44.4220   -9.1506 C   0  0  0  0  0  0  0  0  0  0  0  0
  -12.6465  -42.0270   -8.7517 C   0  0  0  0  0  0  0  0  0  0  0  0
  -13.0727  -42.2134   -7.4734 C   0  0  0  0  0  0  0  0  0  0  0  0
  -13.9608  -41.3170   -6.9190 C   0  0  0  0  0  0  0  0  0  0  0  0
  -14.4182  -40.2290   -7.6704 C   0  0  0  0  0  0  0  0  0  0  0  0
  -13.9972  -40.0344   -8.9535 C   0  0  0  0  0  0  0  0  0  0  0  0
  -14.4530  -38.9032   -9.7566 C   0  0  0  0  0  0  0  0  0  0  0  0
  -15.2601  -39.2433  -10.8714 N   0  0  0  0  0  0  0  0  0  0  0  0
  -16.6404  -39.0095  -10.8206 C   0  0  0  0  0  0  0  0  0  0  0  0
  -17.2094  -38.2653   -9.6701 C   0  0  1  0  0  0  0  0  0  0  0  0
  -17.5355  -36.9789  -10.0277 O   0  0  0  0  0  0  0  0  0  0  0  0
  -18.3846  -39.0040   -8.9850 C   0  0  2  0  0  0  0  0  0  0  0  0
  -19.4109  -37.9300   -8.6731 C   0  0  0  0  0  0  0  0  0  0  0  0
  -20.3061  -38.2638   -7.5167 C   0  0  0  0  0  0  0  0  0  0  0  0
  -19.8283  -37.6113   -6.3491 C   0  0  0  0  0  0  0  0  0  0  0  0
  -20.4424  -37.7061   -5.1340 C   0  0  0  0  0  0  0  0  0  0  0  0
  -21.5652  -38.4841   -5.1202 C   0  0  0  0  0  0  0  0  0  0  0  0
  -22.0865  -39.1594   -6.2578 C   0  0  0  0  0  0  0  0  0  0  0  0
  -23.3182  -39.8892   -5.8667 C   0  0  0  0  0  0  0  0  0  0  0  0
  -23.4126  -41.3418   -6.1525 C   0  0  0  0  0  0  0  0  0  0  0  0
  -22.9899  -42.2659   -5.0576 C   0  0  0  0  0  0  0  0  0  0  0  0
  -22.7500  -43.6693   -5.4827 C   0  0  0  0  0  0  0  0  0  0  0  0
  -22.1870  -43.7918   -6.8110 N   0  0  0  0  0  0  0  0  0  0  0  0
  -23.1722  -44.4656   -7.7353 C   0  0  0  0  0  0  0  0  0  0  0  0
  -20.9031  -43.4048   -7.3154 C   0  0  0  0  0  0  0  0  0  0  0  0
  -20.4602  -44.4031   -8.2340 C   0  0  0  0  0  0  0  0  0  0  0  0
  -19.2761  -44.3441   -8.9042 C   0  0  0  0  0  0  0  0  0  0  0  0
  -18.5025  -43.2460   -8.6484 C   0  0  0  0  0  0  0  0  0  0  0  0
  -18.8900  -42.2175   -7.7453 C   0  0  0  0  0  0  0  0  0  0  0  0
  -20.1043  -42.3061   -7.0760 C   0  0  0  0  0  0  0  0  0  0  0  0
  -17.8360  -41.1879   -7.7291 C   0  0  0  0  0  0  0  0  0  0  0  0
  -16.6264  -41.6815   -7.5602 O   0  0  0  0  0  0  0  0  0  0  0  0
  -17.9282  -39.7570   -7.8687 N   0  0  0  0  0  0  0  0  0  0  0  0
  -21.4408  -39.0428   -7.4686 C   0  0  0  0  0  0  0  0  0  0  0  0
  -13.1042  -40.9459   -9.4895 C   0  0  0  0  0  0  0  0  0  0  0  0
  1  2  1  0
  2  3  1  0
  2  4  1  0
  4  5  2  0
  5  6  1  0
  6  7  2  0
  7  8  1  0
  8  9  1  0
  9 10  1  0
 10 11  1  0
 11 12  1  0
 12 13  1  6
 12 14  1  0
 14 15  1  1
 15 16  1  0
 16 17  1  0
 17 18  2  0
 18 19  1  0
 19 20  2  0
 20 21  1  0
 21 22  1  0
 22 23  1  0
 23 24  1  0
 24 25  1  0
 25 26  1  0
 25 27  1  0
 27 28  1  0
 28 29  2  0
 29 30  1  0
 30 31  2  0
 31 32  1  0
 31 33  1  0
 33 34  2  0
 33 35  1  0
 20 36  1  0
  8 37  2  0
 32 27  2  0
 35 14  1  0
 36 16  2  0
 37  4  1  0
M  END
$$$$
