
     RDKit          3D

 37 40  0  0  0  0  0  0  0  0999 V2000
  -14.9945  -42.8309  -11.4641 C   0  0  0  0  0  0  0  0  0  0  0  0
  -15.4188  -41.8614  -12.5250 C   0  0  0  0  0  0  0  0  0  0  0  0
  -16.9284  -41.8082  -12.6470 C   0  0  0  0  0  0  0  0  0  0  0  0
  -14.8379  -40.5344  -12.2264 C   0  0  0  0  0  0  0  0  0  0  0  0
  -14.7814  -39.5936  -13.2073 C   0  0  0  0  0  0  0  0  0  0  0  0
  -14.2476  -38.3543  -12.9262 C   0  0  0  0  0  0  0  0  0  0  0  0
  -13.7673  -38.0739  -11.6424 C   0  0  0  0  0  0  0  0  0  0  0  0
  -13.8187  -39.0113  -10.6525 C   0  0  0  0  0  0  0  0  0  0  0  0
  -13.3315  -38.7418   -9.3025 C   0  0  0  0  0  0  0  0  0  0  0  0
  -14.2827  -38.1646   -8.4239 N   0  0  0  0  0  0  0  0  0  0  0  0
  -15.3876  -38.9202   -8.0106 C   0  0  0  0  0  0  0  0  0  0  0  0
  -16.6268  -38.2233   -7.5864 C   0  0  1  0  0  0  0  0  0  0  0  0
  -16.8081  -37.0623   -8.2992 O   0  0  0  0  0  0  0  0  0  0  0  0
  -17.8788  -39.1331   -7.6106 C   0  0  2  0  0  0  0  0  0  0  0  0
  -19.0563  -38.1960   -7.8084 C   0  0  0  0  0  0  0  0  0  0  0  0
  -20.3513  -38.7264   -7.2681 C   0  0  0  0  0  0  0  0  0  0  0  0
  -20.5977  -38.1537   -5.9919 C   0  0  0  0  0  0  0  0  0  0  0  0
  -21.7104  -38.4271   -5.2507 C   0  0  0  0  0  0  0  0  0  0  0  0
  -22.5829  -39.3033   -5.8314 C   0  0  0  0  0  0  0  0  0  0  0  0
  -22.3857  -39.9057   -7.1043 C   0  0  0  0  0  0  0  0  0  0  0  0
  -23.5435  -40.7824   -7.4108 C   0  0  0  0  0  0  0  0  0  0  0  0
  -23.2948  -42.2011   -7.7656 C   0  0  0  0  0  0  0  0  0  0  0  0
  -23.3469  -43.1879   -6.6453 C   0  0  0  0  0  0  0  0  0  0  0  0
  -22.7484  -44.5128   -6.9517 C   0  0  0  0  0  0  0  0  0  0  0  0
  -21.5957  -44.4478   -7.8255 N   0  0  0  0  0  0  0  0  0  0  0  0
  -21.9030  -45.1134   -9.1452 C   0  0  0  0  0  0  0  0  0  0  0  0
  -20.2927  -43.8945   -7.6052 C   0  0  0  0  0  0  0  0  0  0  0  0
  -19.3300  -44.7496   -8.2206 C   0  0  0  0  0  0  0  0  0  0  0  0
  -17.9888  -44.5136   -8.2073 C   0  0  0  0  0  0  0  0  0  0  0  0
  -17.5913  -43.3800   -7.5542 C   0  0  0  0  0  0  0  0  0  0  0  0
  -18.5025  -42.4884   -6.9233 C   0  0  0  0  0  0  0  0  0  0  0  0
  -19.8654  -42.7563   -6.9537 C   0  0  0  0  0  0  0  0  0  0  0  0
  -17.7369  -41.3724   -6.3404 C   0  0  0  0  0  0  0  0  0  0  0  0
  -16.7131  -41.7662   -5.6110 O   0  0  0  0  0  0  0  0  0  0  0  0
  -17.9349  -39.9495   -6.4479 N   0  0  0  0  0  0  0  0  0  0  0  0
  -21.2507  -39.6081   -7.8252 C   0  0  0  0  0  0  0  0  0  0  0  0
  -14.3601  -40.2482  -10.9566 C   0  0  0  0  0  0  0  0  0  0  0  0
  1  2  1  0
  2  3  1  0
  2  4  1  0
  4  5  2  0
  5  6  1  0
  6  7  2  0
  7  8  1  0
  8  9  1  0
  9 10  1  0
 10 11  1  0
 11 12  1  0
 12 13  1  6
 12 14  1  0
 14 15  1  1
 15 16  1  0
 16 17  1  0
 17 18  2  0
 18 19  1  0
 19 20  2  0
 20 21  1  0
 21 22  1  0
 22 23  1  0
 23 24  1  0
 24 25  1  0
 25 26  1  0
 25 27  1  0
 27 28  1  0
 28 29  2  0
 29 30  1  0
 30 31  2  0
 31 32  1  0
 31 33  1  0
 33 34  2  0
 33 35  1  0
 20 36  1  0
  8 37  2  0
 32 27  2  0
 35 14  1  0
 36 16  2  0
 37  4  1  0
M  END
$$$$
