
     RDKit          3D

 37 39  0  0  0  0  0  0  0  0999 V2000
  -18.7977  -48.6978   -7.1117 C   0  0  0  0  0  0  0  0  0  0  0  0
  -19.0077  -47.4492   -7.5333 O   0  0  0  0  0  0  0  0  0  0  0  0
  -18.3353  -46.5126   -8.2308 C   0  0  0  0  0  0  0  0  0  0  0  0
  -17.9349  -45.3211   -7.6354 C   0  0  0  0  0  0  0  0  0  0  0  0
  -17.2417  -44.2779   -8.2863 C   0  0  0  0  0  0  0  0  0  0  0  0
  -16.9348  -44.4499   -9.6268 C   0  0  0  0  0  0  0  0  0  0  0  0
  -17.3198  -45.6141  -10.2271 C   0  0  0  0  0  0  0  0  0  0  0  0
  -17.2343  -46.1025  -11.5766 N   0  0  0  0  0  0  0  0  0  0  0  0
  -16.1548  -46.1963  -12.5058 C   0  0  0  0  0  0  0  0  0  0  0  0
  -14.8509  -46.6423  -11.9095 C   0  0  0  0  0  0  0  0  0  0  0  0
  -14.0612  -45.5714  -11.2471 C   0  0  0  0  0  0  0  0  0  0  0  0
  -13.9531  -44.2834  -12.0359 C   0  0  0  0  0  0  0  0  0  0  0  0
  -12.8483  -43.4363  -11.3847 C   0  0  0  0  0  0  0  0  0  0  0  0
  -13.1869  -43.0065  -10.0203 C   0  0  0  0  0  0  0  0  0  0  0  0
  -13.5077  -41.5432   -9.8667 C   0  0  0  0  0  0  0  0  0  0  0  0
  -13.8784  -41.2119   -8.4286 C   0  0  1  0  0  0  0  0  0  0  0  0
  -12.6238  -40.5618   -7.7923 C   0  0  0  0  0  0  0  0  0  0  0  0
  -14.9611  -40.2065   -8.3030 C   0  0  0  0  0  0  0  0  0  0  0  0
  -16.3329  -40.6920   -7.8513 C   0  0  2  0  0  0  0  0  0  0  0  0
  -16.2240  -42.0100   -7.2803 N   0  0  0  0  0  0  0  0  0  0  0  0
  -16.9748  -43.1682   -7.3767 C   0  0  0  0  0  0  0  0  0  0  0  0
  -17.6798  -43.2396   -6.1947 O   0  0  0  0  0  0  0  0  0  0  0  0
  -17.2474  -40.5361   -9.0186 C   0  0  2  0  0  0  0  0  0  0  0  0
  -16.7012  -40.0110  -10.1597 O   0  0  0  0  0  0  0  0  0  0  0  0
  -18.6412  -40.1592   -8.7600 C   0  0  0  0  0  0  0  0  0  0  0  0
  -19.6450  -41.0398   -8.3556 N   0  0  0  0  0  0  0  0  0  0  0  0
  -20.6461  -40.5421   -7.4880 C   0  0  0  0  0  0  0  0  0  0  0  0
  -21.5347  -39.5494   -8.1367 C   0  0  0  0  0  0  0  0  0  0  0  0
  -21.0726  -38.2874   -8.3880 C   0  0  0  0  0  0  0  0  0  0  0  0
  -21.8188  -37.3087   -8.9792 C   0  0  0  0  0  0  0  0  0  0  0  0
  -23.1259  -37.6158   -9.3476 C   0  0  0  0  0  0  0  0  0  0  0  0
  -23.6207  -38.8721   -9.1103 C   0  0  0  0  0  0  0  0  0  0  0  0
  -22.8143  -39.8530   -8.4964 C   0  0  0  0  0  0  0  0  0  0  0  0
  -21.2561  -35.9598   -9.1757 C   0  0  0  0  0  0  0  0  0  0  0  0
  -20.3911  -36.0519  -10.4275 C   0  0  0  0  0  0  0  0  0  0  0  0
  -20.4515  -35.4459   -8.0237 C   0  0  0  0  0  0  0  0  0  0  0  0
  -17.9985  -46.5872   -9.5003 N   0  0  0  0  0  0  0  0  0  0  0  0
  1  2  1  0
  2  3  1  0
  3  4  2  0
  4  5  1  0
  5  6  2  0
  6  7  1  0
  7  8  1  0
  8  9  1  0
  9 10  1  0
 10 11  1  0
 11 12  1  0
 12 13  1  0
 13 14  1  0
 14 15  1  0
 15 16  1  0
 16 17  1  1
 16 18  1  0
 19 18  1  6
 19 20  1  0
 20 21  1  0
 21 22  2  0
 19 23  1  0
 23 24  1  6
 23 25  1  0
 25 26  1  0
 26 27  1  0
 27 28  1  0
 28 29  2  0
 29 30  1  0
 30 31  2  0
 31 32  1  0
 32 33  2  0
 30 34  1  0
 34 35  1  0
 34 36  1  0
  7 37  2  0
 21  5  1  0
 33 28  1  0
 37  3  1  0
M  END
$$$$
