
     RDKit          3D

 37 39  0  0  0  0  0  0  0  0999 V2000
  -14.5822  -46.2459  -12.5139 C   0  0  0  0  0  0  0  0  0  0  0  0
  -14.6007  -45.2870  -11.5861 O   0  0  0  0  0  0  0  0  0  0  0  0
  -14.5774  -43.9400  -11.5527 C   0  0  0  0  0  0  0  0  0  0  0  0
  -14.5369  -43.2506  -10.3454 C   0  0  0  0  0  0  0  0  0  0  0  0
  -14.5250  -41.8456  -10.2098 C   0  0  0  0  0  0  0  0  0  0  0  0
  -14.5579  -41.0885  -11.3701 C   0  0  0  0  0  0  0  0  0  0  0  0
  -14.5972  -41.7491  -12.5642 C   0  0  0  0  0  0  0  0  0  0  0  0
  -14.7004  -41.3115  -13.9298 N   0  0  0  0  0  0  0  0  0  0  0  0
  -13.9749  -40.3501  -14.6960 C   0  0  0  0  0  0  0  0  0  0  0  0
  -12.4921  -40.3495  -14.4597 C   0  0  0  0  0  0  0  0  0  0  0  0
  -12.0444  -39.5911  -13.2624 C   0  0  0  0  0  0  0  0  0  0  0  0
  -12.6799  -38.2260  -13.1026 C   0  0  0  0  0  0  0  0  0  0  0  0
  -11.8706  -37.4630  -12.0419 C   0  0  0  0  0  0  0  0  0  0  0  0
  -11.9616  -38.0713  -10.7068 C   0  0  0  0  0  0  0  0  0  0  0  0
  -12.7821  -37.3041   -9.7038 C   0  0  0  0  0  0  0  0  0  0  0  0
  -12.8415  -38.0356   -8.3708 C   0  0  1  0  0  0  0  0  0  0  0  0
  -11.8269  -37.3273   -7.4378 C   0  0  0  0  0  0  0  0  0  0  0  0
  -14.1542  -37.9363   -7.6884 C   0  0  0  0  0  0  0  0  0  0  0  0
  -15.0367  -39.1780   -7.6609 C   0  0  2  0  0  0  0  0  0  0  0  0
  -14.2595  -40.3407   -8.0061 N   0  0  0  0  0  0  0  0  0  0  0  0
  -14.4822  -41.4473   -8.8063 C   0  0  0  0  0  0  0  0  0  0  0  0
  -14.7445  -42.4782   -7.9301 O   0  0  0  0  0  0  0  0  0  0  0  0
  -16.2210  -38.8801   -8.5165 C   0  0  2  0  0  0  0  0  0  0  0  0
  -16.0778  -37.8713   -9.4319 O   0  0  0  0  0  0  0  0  0  0  0  0
  -17.5546  -38.9981   -7.9172 C   0  0  0  0  0  0  0  0  0  0  0  0
  -18.2951  -40.1782   -7.8425 N   0  0  0  0  0  0  0  0  0  0  0  0
  -19.4632  -40.2727   -8.6358 C   0  0  0  0  0  0  0  0  0  0  0  0
  -20.6441  -39.6347   -8.0078 C   0  0  0  0  0  0  0  0  0  0  0  0
  -21.0890  -40.0781   -6.7933 C   0  0  0  0  0  0  0  0  0  0  0  0
  -22.1673  -39.5528   -6.1412 C   0  0  0  0  0  0  0  0  0  0  0  0
  -22.8521  -38.5041   -6.7494 C   0  0  0  0  0  0  0  0  0  0  0  0
  -22.4323  -38.0351   -7.9674 C   0  0  0  0  0  0  0  0  0  0  0  0
  -21.3128  -38.6080   -8.6059 C   0  0  0  0  0  0  0  0  0  0  0  0
  -22.6059  -40.1187   -4.8520 C   0  0  0  0  0  0  0  0  0  0  0  0
  -22.6861  -38.9394   -3.8895 C   0  0  0  0  0  0  0  0  0  0  0  0
  -21.7088  -41.1812   -4.2999 C   0  0  0  0  0  0  0  0  0  0  0  0
  -14.6034  -43.1399  -12.5967 N   0  0  0  0  0  0  0  0  0  0  0  0
  1  2  1  0
  2  3  1  0
  3  4  2  0
  4  5  1  0
  5  6  2  0
  6  7  1  0
  7  8  1  0
  8  9  1  0
  9 10  1  0
 10 11  1  0
 11 12  1  0
 12 13  1  0
 13 14  1  0
 14 15  1  0
 15 16  1  0
 16 17  1  1
 16 18  1  0
 19 18  1  6
 19 20  1  0
 20 21  1  0
 21 22  2  0
 19 23  1  0
 23 24  1  1
 23 25  1  0
 25 26  1  0
 26 27  1  0
 27 28  1  0
 28 29  2  0
 29 30  1  0
 30 31  2  0
 31 32  1  0
 32 33  2  0
 30 34  1  0
 34 35  1  0
 34 36  1  0
  7 37  2  0
 21  5  1  0
 33 28  1  0
 37  3  1  0
M  END
$$$$
