
     RDKit          3D

 37 39  0  0  0  0  0  0  0  0999 V2000
  -17.8220  -49.2304   -5.8500 C   0  0  0  0  0  0  0  0  0  0  0  0
  -17.9307  -47.9004   -5.8424 O   0  0  0  0  0  0  0  0  0  0  0  0
  -17.8943  -46.8981   -6.7424 C   0  0  0  0  0  0  0  0  0  0  0  0
  -17.6574  -45.5854   -6.3486 C   0  0  0  0  0  0  0  0  0  0  0  0
  -17.6156  -44.4705   -7.2134 C   0  0  0  0  0  0  0  0  0  0  0  0
  -17.8288  -44.6975   -8.5639 C   0  0  0  0  0  0  0  0  0  0  0  0
  -18.0623  -45.9804   -8.9680 C   0  0  0  0  0  0  0  0  0  0  0  0
  -18.3796  -46.5709  -10.2399 N   0  0  0  0  0  0  0  0  0  0  0  0
  -17.7801  -46.4691  -11.5313 C   0  0  0  0  0  0  0  0  0  0  0  0
  -16.2786  -46.4777  -11.5282 C   0  0  0  0  0  0  0  0  0  0  0  0
  -15.6409  -45.1675  -11.2345 C   0  0  0  0  0  0  0  0  0  0  0  0
  -16.2346  -43.9920  -11.9818 C   0  0  0  0  0  0  0  0  0  0  0  0
  -15.2617  -42.8118  -11.8305 C   0  0  0  0  0  0  0  0  0  0  0  0
  -15.1419  -42.3443  -10.4420 C   0  0  0  0  0  0  0  0  0  0  0  0
  -15.7871  -41.0149  -10.1518 C   0  0  0  0  0  0  0  0  0  0  0  0
  -15.6372  -40.6423   -8.6841 C   0  0  1  0  0  0  0  0  0  0  0  0
  -14.4825  -39.6115   -8.6104 C   0  0  0  0  0  0  0  0  0  0  0  0
  -16.8235  -39.9604   -8.1127 C   0  0  0  0  0  0  0  0  0  0  0  0
  -17.6977  -40.7473   -7.1441 C   0  0  2  0  0  0  0  0  0  0  0  0
  -16.9926  -41.9164   -6.6848 N   0  0  0  0  0  0  0  0  0  0  0  0
  -17.3468  -43.2380   -6.4794 C   0  0  0  0  0  0  0  0  0  0  0  0
  -17.4720  -43.3690   -5.1132 O   0  0  0  0  0  0  0  0  0  0  0  0
  -19.0016  -40.9727   -7.8314 C   0  0  2  0  0  0  0  0  0  0  0  0
  -19.2837  -40.1561   -8.8942 O   0  0  0  0  0  0  0  0  0  0  0  0
  -20.1566  -41.3595   -7.0141 C   0  0  0  0  0  0  0  0  0  0  0  0
  -21.0200  -42.4171   -7.3011 N   0  0  0  0  0  0  0  0  0  0  0  0
  -22.2304  -42.1150   -7.9692 C   0  0  0  0  0  0  0  0  0  0  0  0
  -22.7422  -40.7597   -7.6579 C   0  0  0  0  0  0  0  0  0  0  0  0
  -22.1169  -40.0000   -6.7084 C   0  0  0  0  0  0  0  0  0  0  0  0
  -22.5179  -38.7436   -6.3554 C   0  0  0  0  0  0  0  0  0  0  0  0
  -23.6278  -38.2059   -7.0014 C   0  0  0  0  0  0  0  0  0  0  0  0
  -24.2781  -38.9408   -7.9588 C   0  0  0  0  0  0  0  0  0  0  0  0
  -23.8294  -40.2357   -8.2921 C   0  0  0  0  0  0  0  0  0  0  0  0
  -21.8114  -38.0086   -5.2899 C   0  0  0  0  0  0  0  0  0  0  0  0
  -20.4498  -38.6811   -5.1577 C   0  0  0  0  0  0  0  0  0  0  0  0
  -22.5153  -37.9944   -3.9697 C   0  0  0  0  0  0  0  0  0  0  0  0
  -18.0819  -47.0161   -8.0392 N   0  0  0  0  0  0  0  0  0  0  0  0
  1  2  1  0
  2  3  1  0
  3  4  2  0
  4  5  1  0
  5  6  2  0
  6  7  1  0
  7  8  1  0
  8  9  1  0
  9 10  1  0
 10 11  1  0
 11 12  1  0
 12 13  1  0
 13 14  1  0
 14 15  1  0
 15 16  1  0
 16 17  1  6
 16 18  1  0
 19 18  1  6
 19 20  1  0
 20 21  1  0
 21 22  2  0
 19 23  1  0
 23 24  1  1
 23 25  1  0
 25 26  1  0
 26 27  1  0
 27 28  1  0
 28 29  2  0
 29 30  1  0
 30 31  2  0
 31 32  1  0
 32 33  2  0
 30 34  1  0
 34 35  1  0
 34 36  1  0
  7 37  2  0
 21  5  1  0
 33 28  1  0
 37  3  1  0
M  END
$$$$
