
     RDKit          3D

 37 39  0  0  0  0  0  0  0  0999 V2000
  -18.4563  -47.5263   -7.7867 C   0  0  0  0  0  0  0  0  0  0  0  0
  -18.6927  -46.3283   -8.3248 O   0  0  0  0  0  0  0  0  0  0  0  0
  -18.7866  -45.0526   -7.9006 C   0  0  0  0  0  0  0  0  0  0  0  0
  -18.8112  -43.9942   -8.8026 C   0  0  0  0  0  0  0  0  0  0  0  0
  -18.8924  -42.6288   -8.4542 C   0  0  0  0  0  0  0  0  0  0  0  0
  -18.9509  -42.3128   -7.1060 C   0  0  0  0  0  0  0  0  0  0  0  0
  -18.9285  -43.3397   -6.2067 C   0  0  0  0  0  0  0  0  0  0  0  0
  -18.9088  -43.3915   -4.7700 N   0  0  0  0  0  0  0  0  0  0  0  0
  -19.7175  -42.7761   -3.7677 C   0  0  0  0  0  0  0  0  0  0  0  0
  -21.1866  -42.7474   -4.0774 C   0  0  0  0  0  0  0  0  0  0  0  0
  -21.6214  -41.6420   -4.9708 C   0  0  0  0  0  0  0  0  0  0  0  0
  -21.0536  -40.2828   -4.6201 C   0  0  0  0  0  0  0  0  0  0  0  0
  -21.8554  -39.2326   -5.4051 C   0  0  0  0  0  0  0  0  0  0  0  0
  -21.6737  -39.3447   -6.8595 C   0  0  0  0  0  0  0  0  0  0  0  0
  -20.8524  -38.2524   -7.4922 C   0  0  0  0  0  0  0  0  0  0  0  0
  -20.6957  -38.4820   -8.9882 C   0  0  1  0  0  0  0  0  0  0  0  0
  -21.7050  -37.5341   -9.6842 C   0  0  0  0  0  0  0  0  0  0  0  0
  -19.3616  -38.1091   -9.5173 C   0  0  0  0  0  0  0  0  0  0  0  0
  -18.4135  -39.2347   -9.9119 C   0  0  2  0  0  0  0  0  0  0  0  0
  -19.1416  -40.4721  -10.0284 N   0  0  0  0  0  0  0  0  0  0  0  0
  -18.8951  -41.7768   -9.6392 C   0  0  0  0  0  0  0  0  0  0  0  0
  -18.5399  -42.4364  -10.7959 O   0  0  0  0  0  0  0  0  0  0  0  0
  -17.2854  -39.2050   -8.9373 C   0  0  2  0  0  0  0  0  0  0  0  0
  -17.1577  -38.0698   -8.1816 O   0  0  0  0  0  0  0  0  0  0  0  0
  -16.0241  -39.8490   -9.3192 C   0  0  0  0  0  0  0  0  0  0  0  0
  -14.9775  -40.1382   -8.4431 N   0  0  0  0  0  0  0  0  0  0  0  0
  -13.6962  -40.3624   -9.0007 C   0  0  0  0  0  0  0  0  0  0  0  0
  -13.3256  -39.3581  -10.0253 C   0  0  0  0  0  0  0  0  0  0  0  0
  -13.9920  -38.1654  -10.0782 C   0  0  0  0  0  0  0  0  0  0  0  0
  -13.7206  -37.1831  -10.9868 C   0  0  0  0  0  0  0  0  0  0  0  0
  -12.7053  -37.4107  -11.9120 C   0  0  0  0  0  0  0  0  0  0  0  0
  -12.0169  -38.5960  -11.8866 C   0  0  0  0  0  0  0  0  0  0  0  0
  -12.3309  -39.5838  -10.9301 C   0  0  0  0  0  0  0  0  0  0  0  0
  -14.5167  -35.9419  -11.0013 C   0  0  0  0  0  0  0  0  0  0  0  0
  -15.7745  -36.2489  -10.1967 C   0  0  0  0  0  0  0  0  0  0  0  0
  -14.8796  -35.4496  -12.3668 C   0  0  0  0  0  0  0  0  0  0  0  0
  -18.8493  -44.6569   -6.6476 N   0  0  0  0  0  0  0  0  0  0  0  0
  1  2  1  0
  2  3  1  0
  3  4  2  0
  4  5  1  0
  5  6  2  0
  6  7  1  0
  7  8  1  0
  8  9  1  0
  9 10  1  0
 10 11  1  0
 11 12  1  0
 12 13  1  0
 13 14  1  0
 14 15  1  0
 15 16  1  0
 16 17  1  6
 16 18  1  0
 19 18  1  1
 19 20  1  0
 20 21  1  0
 21 22  2  0
 19 23  1  0
 23 24  1  6
 23 25  1  0
 25 26  1  0
 26 27  1  0
 27 28  1  0
 28 29  2  0
 29 30  1  0
 30 31  2  0
 31 32  1  0
 32 33  2  0
 30 34  1  0
 34 35  1  0
 34 36  1  0
  7 37  2  0
 21  5  1  0
 33 28  1  0
 37  3  1  0
M  END
$$$$
