
     RDKit          3D

 37 39  0  0  0  0  0  0  0  0999 V2000
  -18.4131  -47.3232   -9.1133 C   0  0  0  0  0  0  0  0  0  0  0  0
  -18.3363  -46.0114   -9.3455 O   0  0  0  0  0  0  0  0  0  0  0  0
  -18.5293  -44.8700   -8.6556 C   0  0  0  0  0  0  0  0  0  0  0  0
  -18.4845  -43.6313   -9.2864 C   0  0  0  0  0  0  0  0  0  0  0  0
  -18.6590  -42.3849   -8.6473 C   0  0  0  0  0  0  0  0  0  0  0  0
  -18.8926  -42.3913   -7.2812 C   0  0  0  0  0  0  0  0  0  0  0  0
  -18.9405  -43.5988   -6.6459 C   0  0  0  0  0  0  0  0  0  0  0  0
  -19.0932  -43.9827   -5.2689 N   0  0  0  0  0  0  0  0  0  0  0  0
  -20.0402  -43.6240   -4.2630 C   0  0  0  0  0  0  0  0  0  0  0  0
  -21.4609  -43.5371   -4.7414 C   0  0  0  0  0  0  0  0  0  0  0  0
  -21.8258  -42.2583   -5.4053 C   0  0  0  0  0  0  0  0  0  0  0  0
  -21.3567  -41.0128   -4.6831 C   0  0  0  0  0  0  0  0  0  0  0  0
  -22.0967  -39.8161   -5.3015 C   0  0  0  0  0  0  0  0  0  0  0  0
  -21.7358  -39.5856   -6.7077 C   0  0  0  0  0  0  0  0  0  0  0  0
  -20.8858  -38.3691   -6.9638 C   0  0  0  0  0  0  0  0  0  0  0  0
  -20.5402  -38.2436   -8.4403 C   0  0  1  0  0  0  0  0  0  0  0  0
  -21.4929  -37.1689   -9.0225 C   0  0  0  0  0  0  0  0  0  0  0  0
  -19.1669  -37.7462   -8.6963 C   0  0  0  0  0  0  0  0  0  0  0  0
  -18.1359  -38.7410   -9.2150 C   0  0  2  0  0  0  0  0  0  0  0  0
  -18.7971  -39.9239   -9.7035 N   0  0  0  0  0  0  0  0  0  0  0  0
  -18.5503  -41.2810   -9.5959 C   0  0  0  0  0  0  0  0  0  0  0  0
  -18.0327  -41.6508  -10.8184 O   0  0  0  0  0  0  0  0  0  0  0  0
  -17.1364  -38.9286   -8.1246 C   0  0  2  0  0  0  0  0  0  0  0  0
  -17.4170  -38.3288   -6.9257 O   0  0  0  0  0  0  0  0  0  0  0  0
  -15.7158  -38.9692   -8.4879 C   0  0  0  0  0  0  0  0  0  0  0  0
  -14.9043  -40.1016   -8.4133 N   0  0  0  0  0  0  0  0  0  0  0  0
  -13.9311  -40.2809   -9.4250 C   0  0  0  0  0  0  0  0  0  0  0  0
  -13.3205  -39.0078   -9.8747 C   0  0  0  0  0  0  0  0  0  0  0  0
  -13.8287  -38.3600  -10.9662 C   0  0  0  0  0  0  0  0  0  0  0  0
  -13.3309  -37.1854  -11.4526 C   0  0  0  0  0  0  0  0  0  0  0  0
  -12.2429  -36.6152  -10.7972 C   0  0  0  0  0  0  0  0  0  0  0  0
  -11.7089  -37.2386   -9.6992 C   0  0  0  0  0  0  0  0  0  0  0  0
  -12.2550  -38.4518   -9.2309 C   0  0  0  0  0  0  0  0  0  0  0  0
  -13.9128  -36.5743  -12.6620 C   0  0  0  0  0  0  0  0  0  0  0  0
  -15.4027  -36.8925  -12.6091 C   0  0  0  0  0  0  0  0  0  0  0  0
  -13.3230  -37.0564  -13.9498 C   0  0  0  0  0  0  0  0  0  0  0  0
  -18.7584  -44.7768   -7.3634 N   0  0  0  0  0  0  0  0  0  0  0  0
  1  2  1  0
  2  3  1  0
  3  4  2  0
  4  5  1  0
  5  6  2  0
  6  7  1  0
  7  8  1  0
  8  9  1  0
  9 10  1  0
 10 11  1  0
 11 12  1  0
 12 13  1  0
 13 14  1  0
 14 15  1  0
 15 16  1  0
 16 17  1  1
 16 18  1  0
 19 18  1  1
 19 20  1  0
 20 21  1  0
 21 22  2  0
 19 23  1  0
 23 24  1  1
 23 25  1  0
 25 26  1  0
 26 27  1  0
 27 28  1  0
 28 29  2  0
 29 30  1  0
 30 31  2  0
 31 32  1  0
 32 33  2  0
 30 34  1  0
 34 35  1  0
 34 36  1  0
  7 37  2  0
 21  5  1  0
 33 28  1  0
 37  3  1  0
M  END
$$$$
