
     RDKit          3D

 37 39  0  0  0  0  0  0  0  0999 V2000
  -17.2926  -47.4606  -10.2832 C   0  0  0  0  0  0  0  0  0  0  0  0
  -17.1674  -46.3014   -9.6340 O   0  0  0  0  0  0  0  0  0  0  0  0
  -16.5947  -45.1010   -9.8511 C   0  0  0  0  0  0  0  0  0  0  0  0
  -16.6031  -44.1122   -8.8731 C   0  0  0  0  0  0  0  0  0  0  0  0
  -16.0441  -42.8235   -9.0128 C   0  0  0  0  0  0  0  0  0  0  0  0
  -15.4388  -42.5141  -10.2205 C   0  0  0  0  0  0  0  0  0  0  0  0
  -15.4210  -43.4735  -11.1917 C   0  0  0  0  0  0  0  0  0  0  0  0
  -14.9535  -43.4913  -12.5511 N   0  0  0  0  0  0  0  0  0  0  0  0
  -13.7139  -43.1202  -13.1538 C   0  0  0  0  0  0  0  0  0  0  0  0
  -12.4934  -43.5264  -12.3791 C   0  0  0  0  0  0  0  0  0  0  0  0
  -12.1175  -42.6120  -11.2693 C   0  0  0  0  0  0  0  0  0  0  0  0
  -12.1428  -41.1403  -11.6244 C   0  0  0  0  0  0  0  0  0  0  0  0
  -11.4140  -40.3837  -10.5025 C   0  0  0  0  0  0  0  0  0  0  0  0
  -12.1125  -40.4641   -9.2116 C   0  0  0  0  0  0  0  0  0  0  0  0
  -12.7786  -39.1916   -8.7590 C   0  0  0  0  0  0  0  0  0  0  0  0
  -13.5005  -39.3926   -7.4347 C   0  0  1  0  0  0  0  0  0  0  0  0
  -12.5817  -38.7926   -6.3404 C   0  0  0  0  0  0  0  0  0  0  0  0
  -14.7838  -38.6567   -7.3316 C   0  0  0  0  0  0  0  0  0  0  0  0
  -16.0738  -39.4641   -7.4043 C   0  0  2  0  0  0  0  0  0  0  0  0
  -15.7906  -40.8619   -7.2020 N   0  0  0  0  0  0  0  0  0  0  0  0
  -16.2256  -42.0309   -7.8008 C   0  0  0  0  0  0  0  0  0  0  0  0
  -17.1230  -42.5792   -6.9101 O   0  0  0  0  0  0  0  0  0  0  0  0
  -16.7413  -39.0895   -8.6839 C   0  0  2  0  0  0  0  0  0  0  0  0
  -16.1390  -38.1076   -9.4250 O   0  0  0  0  0  0  0  0  0  0  0  0
  -18.2075  -39.0976   -8.7276 C   0  0  0  0  0  0  0  0  0  0  0  0
  -18.9942  -40.2318   -8.9303 N   0  0  0  0  0  0  0  0  0  0  0  0
  -20.0308  -40.4876   -8.0014 C   0  0  0  0  0  0  0  0  0  0  0  0
  -21.2350  -39.6554   -8.2322 C   0  0  0  0  0  0  0  0  0  0  0  0
  -21.9681  -39.2127   -7.1664 C   0  0  0  0  0  0  0  0  0  0  0  0
  -23.0904  -38.4441   -7.2830 C   0  0  0  0  0  0  0  0  0  0  0  0
  -23.5109  -38.0909   -8.5624 C   0  0  0  0  0  0  0  0  0  0  0  0
  -22.7987  -38.5179   -9.6532 C   0  0  0  0  0  0  0  0  0  0  0  0
  -21.6445  -39.3112   -9.4863 C   0  0  0  0  0  0  0  0  0  0  0  0
  -23.8468  -38.0441   -6.0819 C   0  0  0  0  0  0  0  0  0  0  0  0
  -23.2521  -38.8495   -4.9325 C   0  0  0  0  0  0  0  0  0  0  0  0
  -25.3227  -38.2735   -6.1693 C   0  0  0  0  0  0  0  0  0  0  0  0
  -15.9974  -44.7182  -10.9589 N   0  0  0  0  0  0  0  0  0  0  0  0
  1  2  1  0
  2  3  1  0
  3  4  2  0
  4  5  1  0
  5  6  2  0
  6  7  1  0
  7  8  1  0
  8  9  1  0
  9 10  1  0
 10 11  1  0
 11 12  1  0
 12 13  1  0
 13 14  1  0
 14 15  1  0
 15 16  1  0
 16 17  1  1
 16 18  1  0
 19 18  1  6
 19 20  1  0
 20 21  1  0
 21 22  2  0
 19 23  1  0
 23 24  1  1
 23 25  1  0
 25 26  1  0
 26 27  1  0
 27 28  1  0
 28 29  2  0
 29 30  1  0
 30 31  2  0
 31 32  1  0
 32 33  2  0
 30 34  1  0
 34 35  1  0
 34 36  1  0
  7 37  2  0
 21  5  1  0
 33 28  1  0
 37  3  1  0
M  END
$$$$
