
     RDKit          3D

 37 39  0  0  0  0  0  0  0  0999 V2000
  -19.4555  -47.5556   -9.1224 C   0  0  0  0  0  0  0  0  0  0  0  0
  -18.4915  -46.7739   -8.6324 O   0  0  0  0  0  0  0  0  0  0  0  0
  -17.8499  -45.6459   -8.9959 C   0  0  0  0  0  0  0  0  0  0  0  0
  -17.6850  -44.5921   -8.1032 C   0  0  0  0  0  0  0  0  0  0  0  0
  -17.0426  -43.3698   -8.3957 C   0  0  0  0  0  0  0  0  0  0  0  0
  -16.5352  -43.2013   -9.6743 C   0  0  0  0  0  0  0  0  0  0  0  0
  -16.6877  -44.2261  -10.5634 C   0  0  0  0  0  0  0  0  0  0  0  0
  -16.3577  -44.3819  -11.9540 N   0  0  0  0  0  0  0  0  0  0  0  0
  -15.1573  -44.1631  -12.6948 C   0  0  0  0  0  0  0  0  0  0  0  0
  -13.9030  -44.6159  -12.0046 C   0  0  0  0  0  0  0  0  0  0  0  0
  -13.3500  -43.6596  -11.0102 C   0  0  0  0  0  0  0  0  0  0  0  0
  -13.2937  -42.2206  -11.4778 C   0  0  0  0  0  0  0  0  0  0  0  0
  -12.4018  -41.4505  -10.4910 C   0  0  0  0  0  0  0  0  0  0  0  0
  -12.9754  -41.3775   -9.1395 C   0  0  0  0  0  0  0  0  0  0  0  0
  -13.4920  -40.0232   -8.7311 C   0  0  0  0  0  0  0  0  0  0  0  0
  -14.0951  -40.0654   -7.3347 C   0  0  1  0  0  0  0  0  0  0  0  0
  -13.0297  -39.4694   -6.3801 C   0  0  0  0  0  0  0  0  0  0  0  0
  -15.3002  -39.2164   -7.1743 C   0  0  0  0  0  0  0  0  0  0  0  0
  -16.6508  -39.9131   -7.0644 C   0  0  2  0  0  0  0  0  0  0  0  0
  -16.4602  -41.3119   -6.7779 N   0  0  0  0  0  0  0  0  0  0  0  0
  -17.0422  -42.4792   -7.2394 C   0  0  0  0  0  0  0  0  0  0  0  0
  -17.8890  -42.8828   -6.2297 O   0  0  0  0  0  0  0  0  0  0  0  0
  -17.4081  -39.5756   -8.3038 C   0  0  2  0  0  0  0  0  0  0  0  0
  -16.9850  -38.4746   -9.0001 O   0  0  0  0  0  0  0  0  0  0  0  0
  -18.8569  -39.8047   -8.3131 C   0  0  0  0  0  0  0  0  0  0  0  0
  -19.5935  -40.3047   -7.2389 N   0  0  0  0  0  0  0  0  0  0  0  0
  -20.7148  -39.5577   -6.8061 C   0  0  0  0  0  0  0  0  0  0  0  0
  -21.8822  -39.6878   -7.7095 C   0  0  0  0  0  0  0  0  0  0  0  0
  -22.9807  -40.3923   -7.3013 C   0  0  0  0  0  0  0  0  0  0  0  0
  -24.0990  -40.5657   -8.0650 C   0  0  0  0  0  0  0  0  0  0  0  0
  -24.1207  -39.9902   -9.3326 C   0  0  0  0  0  0  0  0  0  0  0  0
  -23.0360  -39.2769   -9.7730 C   0  0  0  0  0  0  0  0  0  0  0  0
  -21.9007  -39.1232   -8.9504 C   0  0  0  0  0  0  0  0  0  0  0  0
  -25.2242  -41.3766   -7.5640 C   0  0  0  0  0  0  0  0  0  0  0  0
  -24.6992  -42.0885   -6.3225 C   0  0  0  0  0  0  0  0  0  0  0  0
  -25.7625  -42.3699   -8.5449 C   0  0  0  0  0  0  0  0  0  0  0  0
  -17.3349  -45.3966  -10.1805 N   0  0  0  0  0  0  0  0  0  0  0  0
  1  2  1  0
  2  3  1  0
  3  4  2  0
  4  5  1  0
  5  6  2  0
  6  7  1  0
  7  8  1  0
  8  9  1  0
  9 10  1  0
 10 11  1  0
 11 12  1  0
 12 13  1  0
 13 14  1  0
 14 15  1  0
 15 16  1  0
 16 17  1  1
 16 18  1  0
 19 18  1  6
 19 20  1  0
 20 21  1  0
 21 22  2  0
 19 23  1  0
 23 24  1  1
 23 25  1  0
 25 26  1  0
 26 27  1  0
 27 28  1  0
 28 29  2  0
 29 30  1  0
 30 31  2  0
 31 32  1  0
 32 33  2  0
 30 34  1  0
 34 35  1  0
 34 36  1  0
  7 37  2  0
 21  5  1  0
 33 28  1  0
 37  3  1  0
M  END
$$$$
