
     RDKit          3D

 37 39  0  0  0  0  0  0  0  0999 V2000
  -17.8580  -47.7245   -7.4065 C   0  0  0  0  0  0  0  0  0  0  0  0
  -18.5266  -46.6536   -7.8387 O   0  0  0  0  0  0  0  0  0  0  0  0
  -18.7289  -45.3832   -7.4371 C   0  0  0  0  0  0  0  0  0  0  0  0
  -18.6599  -44.3244   -8.3364 C   0  0  0  0  0  0  0  0  0  0  0  0
  -18.8417  -42.9637   -8.0081 C   0  0  0  0  0  0  0  0  0  0  0  0
  -19.1092  -42.6531   -6.6842 C   0  0  0  0  0  0  0  0  0  0  0  0
  -19.1812  -43.6804   -5.7879 C   0  0  0  0  0  0  0  0  0  0  0  0
  -19.3707  -43.7346   -4.3638 N   0  0  0  0  0  0  0  0  0  0  0  0
  -20.3401  -43.1517   -3.4931 C   0  0  0  0  0  0  0  0  0  0  0  0
  -21.7478  -43.1768   -4.0152 C   0  0  0  0  0  0  0  0  0  0  0  0
  -22.0872  -42.0863   -4.9664 C   0  0  0  0  0  0  0  0  0  0  0  0
  -21.6277  -40.7078   -4.5406 C   0  0  0  0  0  0  0  0  0  0  0  0
  -22.3439  -39.6863   -5.4382 C   0  0  0  0  0  0  0  0  0  0  0  0
  -21.9466  -39.7884   -6.8498 C   0  0  0  0  0  0  0  0  0  0  0  0
  -21.0822  -38.6651   -7.3587 C   0  0  0  0  0  0  0  0  0  0  0  0
  -20.6991  -38.8854   -8.8147 C   0  0  1  0  0  0  0  0  0  0  0  0
  -21.6295  -37.9741   -9.6544 C   0  0  0  0  0  0  0  0  0  0  0  0
  -19.3164  -38.4622   -9.1434 C   0  0  0  0  0  0  0  0  0  0  0  0
  -18.2797  -39.5510   -9.3908 C   0  0  2  0  0  0  0  0  0  0  0  0
  -18.9366  -40.8143   -9.6089 N   0  0  0  0  0  0  0  0  0  0  0  0
  -18.7019  -42.1098   -9.1835 C   0  0  0  0  0  0  0  0  0  0  0  0
  -18.1565  -42.7533  -10.2733 O   0  0  0  0  0  0  0  0  0  0  0  0
  -17.3089  -39.4817   -8.2612 C   0  0  2  0  0  0  0  0  0  0  0  0
  -17.6670  -38.7045   -7.1917 O   0  0  0  0  0  0  0  0  0  0  0  0
  -15.8768  -39.4901   -8.5783 C   0  0  0  0  0  0  0  0  0  0  0  0
  -15.3366  -39.2397   -9.8401 N   0  0  0  0  0  0  0  0  0  0  0  0
  -13.9278  -39.2720   -9.9704 C   0  0  0  0  0  0  0  0  0  0  0  0
  -13.4694  -39.0691  -11.3649 C   0  0  0  0  0  0  0  0  0  0  0  0
  -13.3025  -37.8002  -11.8462 C   0  0  0  0  0  0  0  0  0  0  0  0
  -12.8862  -37.5176  -13.1154 C   0  0  0  0  0  0  0  0  0  0  0  0
  -12.6155  -38.5849  -13.9674 C   0  0  0  0  0  0  0  0  0  0  0  0
  -12.7722  -39.8701  -13.5167 C   0  0  0  0  0  0  0  0  0  0  0  0
  -13.2052  -40.1162  -12.1971 C   0  0  0  0  0  0  0  0  0  0  0  0
  -12.7727  -36.1185  -13.5674 C   0  0  0  0  0  0  0  0  0  0  0  0
  -11.3833  -35.6586  -13.1411 C   0  0  0  0  0  0  0  0  0  0  0  0
  -13.8169  -35.1988  -13.0176 C   0  0  0  0  0  0  0  0  0  0  0  0
  -18.9895  -44.9928   -6.2081 N   0  0  0  0  0  0  0  0  0  0  0  0
  1  2  1  0
  2  3  1  0
  3  4  2  0
  4  5  1  0
  5  6  2  0
  6  7  1  0
  7  8  1  0
  8  9  1  0
  9 10  1  0
 10 11  1  0
 11 12  1  0
 12 13  1  0
 13 14  1  0
 14 15  1  0
 15 16  1  0
 16 17  1  6
 16 18  1  0
 19 18  1  1
 19 20  1  0
 20 21  1  0
 21 22  2  0
 19 23  1  0
 23 24  1  6
 23 25  1  0
 25 26  1  0
 26 27  1  0
 27 28  1  0
 28 29  2  0
 29 30  1  0
 30 31  2  0
 31 32  1  0
 32 33  2  0
 30 34  1  0
 34 35  1  0
 34 36  1  0
  7 37  2  0
 21  5  1  0
 33 28  1  0
 37  3  1  0
M  END
$$$$
