
     RDKit          3D

 37 39  0  0  0  0  0  0  0  0999 V2000
  -16.1478  -48.4709   -5.8483 C   0  0  0  0  0  0  0  0  0  0  0  0
  -16.7240  -47.7345   -6.8003 O   0  0  0  0  0  0  0  0  0  0  0  0
  -17.3380  -46.5384   -6.8923 C   0  0  0  0  0  0  0  0  0  0  0  0
  -16.8344  -45.5318   -7.7093 C   0  0  0  0  0  0  0  0  0  0  0  0
  -17.3974  -44.2461   -7.8590 C   0  0  0  0  0  0  0  0  0  0  0  0
  -18.5433  -43.9589   -7.1343 C   0  0  0  0  0  0  0  0  0  0  0  0
  -19.0518  -44.9360   -6.3276 C   0  0  0  0  0  0  0  0  0  0  0  0
  -20.1551  -44.9789   -5.4068 N   0  0  0  0  0  0  0  0  0  0  0  0
  -21.5312  -44.6192   -5.5271 C   0  0  0  0  0  0  0  0  0  0  0  0
  -22.1707  -45.0114   -6.8278 C   0  0  0  0  0  0  0  0  0  0  0  0
  -21.9269  -44.0769   -7.9576 C   0  0  0  0  0  0  0  0  0  0  0  0
  -22.1033  -42.6119   -7.6178 C   0  0  0  0  0  0  0  0  0  0  0  0
  -22.1537  -41.8350   -8.9430 C   0  0  0  0  0  0  0  0  0  0  0  0
  -20.8872  -41.8916   -9.6871 C   0  0  0  0  0  0  0  0  0  0  0  0
  -20.0954  -40.6108   -9.7097 C   0  0  0  0  0  0  0  0  0  0  0  0
  -18.7904  -40.7873  -10.4722 C   0  0  1  0  0  0  0  0  0  0  0  0
  -19.0161  -40.1676  -11.8745 C   0  0  0  0  0  0  0  0  0  0  0  0
  -17.6462  -40.0494   -9.8847 C   0  0  0  0  0  0  0  0  0  0  0  0
  -16.5721  -40.8577   -9.1674 C   0  0  2  0  0  0  0  0  0  0  0  0
  -16.6963  -42.2516   -9.5088 N   0  0  0  0  0  0  0  0  0  0  0  0
  -16.6226  -43.4313   -8.7896 C   0  0  0  0  0  0  0  0  0  0  0  0
  -15.3885  -43.9629   -9.0956 O   0  0  0  0  0  0  0  0  0  0  0  0
  -16.6669  -40.5064   -7.7214 C   0  0  2  0  0  0  0  0  0  0  0  0
  -16.7309  -41.5523   -6.8393 O   0  0  0  0  0  0  0  0  0  0  0  0
  -17.4468  -39.3219   -7.3469 C   0  0  0  0  0  0  0  0  0  0  0  0
  -16.9033  -38.0847   -6.9996 N   0  0  0  0  0  0  0  0  0  0  0  0
  -16.8210  -37.0960   -8.0088 C   0  0  0  0  0  0  0  0  0  0  0  0
  -18.1236  -36.8219   -8.6598 C   0  0  0  0  0  0  0  0  0  0  0  0
  -19.2284  -36.5800   -7.8914 C   0  0  0  0  0  0  0  0  0  0  0  0
  -20.4674  -36.3199   -8.4026 C   0  0  0  0  0  0  0  0  0  0  0  0
  -20.6122  -36.2995   -9.7872 C   0  0  0  0  0  0  0  0  0  0  0  0
  -19.5246  -36.5377  -10.5871 C   0  0  0  0  0  0  0  0  0  0  0  0
  -18.2625  -36.8026  -10.0160 C   0  0  0  0  0  0  0  0  0  0  0  0
  -21.6158  -36.1112   -7.5013 C   0  0  0  0  0  0  0  0  0  0  0  0
  -21.0587  -35.3791   -6.2859 C   0  0  0  0  0  0  0  0  0  0  0  0
  -22.3131  -37.3657   -7.0789 C   0  0  0  0  0  0  0  0  0  0  0  0
  -18.4262  -46.1761   -6.2478 N   0  0  0  0  0  0  0  0  0  0  0  0
  1  2  1  0
  2  3  1  0
  3  4  2  0
  4  5  1  0
  5  6  2  0
  6  7  1  0
  7  8  1  0
  8  9  1  0
  9 10  1  0
 10 11  1  0
 11 12  1  0
 12 13  1  0
 13 14  1  0
 14 15  1  0
 15 16  1  0
 16 17  1  6
 16 18  1  0
 19 18  1  6
 19 20  1  0
 20 21  1  0
 21 22  2  0
 19 23  1  0
 23 24  1  1
 23 25  1  0
 25 26  1  0
 26 27  1  0
 27 28  1  0
 28 29  2  0
 29 30  1  0
 30 31  2  0
 31 32  1  0
 32 33  2  0
 30 34  1  0
 34 35  1  0
 34 36  1  0
  7 37  2  0
 21  5  1  0
 33 28  1  0
 37  3  1  0
M  END
$$$$
