
     RDKit          3D

 37 39  0  0  0  0  0  0  0  0999 V2000
  -18.5410  -47.8615   -8.4339 C   0  0  0  0  0  0  0  0  0  0  0  0
  -18.6661  -46.5703   -8.7463 O   0  0  0  0  0  0  0  0  0  0  0  0
  -18.8726  -45.4087   -8.0950 C   0  0  0  0  0  0  0  0  0  0  0  0
  -18.6812  -44.1849   -8.7277 C   0  0  0  0  0  0  0  0  0  0  0  0
  -18.8573  -42.9204   -8.1256 C   0  0  0  0  0  0  0  0  0  0  0  0
  -19.2510  -42.8913   -6.7971 C   0  0  0  0  0  0  0  0  0  0  0  0
  -19.4442  -44.0837   -6.1608 C   0  0  0  0  0  0  0  0  0  0  0  0
  -19.7810  -44.4359   -4.8082 N   0  0  0  0  0  0  0  0  0  0  0  0
  -20.8181  -44.0077   -3.9258 C   0  0  0  0  0  0  0  0  0  0  0  0
  -22.1645  -43.8482   -4.5710 C   0  0  0  0  0  0  0  0  0  0  0  0
  -22.3730  -42.5616   -5.2856 C   0  0  0  0  0  0  0  0  0  0  0  0
  -21.9210  -41.3332   -4.5244 C   0  0  0  0  0  0  0  0  0  0  0  0
  -22.5115  -40.1066   -5.2378 C   0  0  0  0  0  0  0  0  0  0  0  0
  -21.9738  -39.9199   -6.5931 C   0  0  0  0  0  0  0  0  0  0  0  0
  -21.0300  -38.7579   -6.7574 C   0  0  0  0  0  0  0  0  0  0  0  0
  -20.5052  -38.6762   -8.1833 C   0  0  1  0  0  0  0  0  0  0  0  0
  -21.3179  -37.5587   -8.8849 C   0  0  0  0  0  0  0  0  0  0  0  0
  -19.0846  -38.2618   -8.2783 C   0  0  0  0  0  0  0  0  0  0  0  0
  -18.0592  -39.3217   -8.6611 C   0  0  2  0  0  0  0  0  0  0  0  0
  -18.7256  -40.4730   -9.2138 N   0  0  0  0  0  0  0  0  0  0  0  0
  -18.5729  -41.8400   -9.0648 C   0  0  0  0  0  0  0  0  0  0  0  0
  -17.9365  -42.2584  -10.2134 O   0  0  0  0  0  0  0  0  0  0  0  0
  -17.2085  -39.5481   -7.4576 C   0  0  2  0  0  0  0  0  0  0  0  0
  -17.3933  -38.6902   -6.4060 O   0  0  0  0  0  0  0  0  0  0  0  0
  -15.8286  -40.0019   -7.6613 C   0  0  0  0  0  0  0  0  0  0  0  0
  -14.7238  -39.1615   -7.8021 N   0  0  0  0  0  0  0  0  0  0  0  0
  -13.8139  -39.4415   -8.8492 C   0  0  0  0  0  0  0  0  0  0  0  0
  -14.3395  -39.0798  -10.1867 C   0  0  0  0  0  0  0  0  0  0  0  0
  -14.7376  -37.7955  -10.4345 C   0  0  0  0  0  0  0  0  0  0  0  0
  -15.2349  -37.3721  -11.6334 C   0  0  0  0  0  0  0  0  0  0  0  0
  -15.3413  -38.3036  -12.6627 C   0  0  0  0  0  0  0  0  0  0  0  0
  -14.9508  -39.6001  -12.4481 C   0  0  0  0  0  0  0  0  0  0  0  0
  -14.4427  -39.9942  -11.1928 C   0  0  0  0  0  0  0  0  0  0  0  0
  -15.6809  -35.9768  -11.8034 C   0  0  0  0  0  0  0  0  0  0  0  0
  -15.0954  -35.5154  -13.1331 C   0  0  0  0  0  0  0  0  0  0  0  0
  -15.2668  -35.0512  -10.7032 C   0  0  0  0  0  0  0  0  0  0  0  0
  -19.2474  -45.2816   -6.8404 N   0  0  0  0  0  0  0  0  0  0  0  0
  1  2  1  0
  2  3  1  0
  3  4  2  0
  4  5  1  0
  5  6  2  0
  6  7  1  0
  7  8  1  0
  8  9  1  0
  9 10  1  0
 10 11  1  0
 11 12  1  0
 12 13  1  0
 13 14  1  0
 14 15  1  0
 15 16  1  0
 16 17  1  6
 16 18  1  0
 19 18  1  1
 19 20  1  0
 20 21  1  0
 21 22  2  0
 19 23  1  0
 23 24  1  6
 23 25  1  0
 25 26  1  0
 26 27  1  0
 27 28  1  0
 28 29  2  0
 29 30  1  0
 30 31  2  0
 31 32  1  0
 32 33  2  0
 30 34  1  0
 34 35  1  0
 34 36  1  0
  7 37  2  0
 21  5  1  0
 33 28  1  0
 37  3  1  0
M  END
$$$$
