
     RDKit          3D

 37 39  0  0  0  0  0  0  0  0999 V2000
  -19.4056  -47.6954   -8.2612 C   0  0  0  0  0  0  0  0  0  0  0  0
  -18.9526  -46.4791   -8.5714 O   0  0  0  0  0  0  0  0  0  0  0  0
  -19.0613  -45.2273   -8.0845 C   0  0  0  0  0  0  0  0  0  0  0  0
  -18.7868  -44.1195   -8.8794 C   0  0  0  0  0  0  0  0  0  0  0  0
  -18.8581  -42.7750   -8.4555 C   0  0  0  0  0  0  0  0  0  0  0  0
  -19.2296  -42.5350   -7.1421 C   0  0  0  0  0  0  0  0  0  0  0  0
  -19.5035  -43.6111   -6.3478 C   0  0  0  0  0  0  0  0  0  0  0  0
  -19.8469  -43.7488   -4.9585 N   0  0  0  0  0  0  0  0  0  0  0  0
  -20.8360  -43.1259   -4.1392 C   0  0  0  0  0  0  0  0  0  0  0  0
  -22.1754  -42.9526   -4.7953 C   0  0  0  0  0  0  0  0  0  0  0  0
  -22.2960  -41.7632   -5.6785 C   0  0  0  0  0  0  0  0  0  0  0  0
  -21.7415  -40.4810   -5.0943 C   0  0  0  0  0  0  0  0  0  0  0  0
  -22.2475  -39.3213   -5.9667 C   0  0  0  0  0  0  0  0  0  0  0  0
  -21.7164  -39.3628   -7.3368 C   0  0  0  0  0  0  0  0  0  0  0  0
  -20.6897  -38.3102   -7.6620 C   0  0  0  0  0  0  0  0  0  0  0  0
  -20.1804  -38.4640   -9.0876 C   0  0  1  0  0  0  0  0  0  0  0  0
  -20.9160  -37.3934   -9.9327 C   0  0  0  0  0  0  0  0  0  0  0  0
  -18.7340  -38.1770   -9.2437 C   0  0  0  0  0  0  0  0  0  0  0  0
  -17.7973  -39.3550   -9.4815 C   0  0  2  0  0  0  0  0  0  0  0  0
  -18.5568  -40.5160   -9.8690 N   0  0  0  0  0  0  0  0  0  0  0  0
  -18.5059  -41.8577   -9.5348 C   0  0  0  0  0  0  0  0  0  0  0  0
  -17.9193  -42.4764  -10.6176 O   0  0  0  0  0  0  0  0  0  0  0  0
  -16.9493  -39.4800   -8.2615 C   0  0  2  0  0  0  0  0  0  0  0  0
  -16.8810  -38.3810   -7.4469 O   0  0  0  0  0  0  0  0  0  0  0  0
  -15.7164  -40.2694   -8.3540 C   0  0  0  0  0  0  0  0  0  0  0  0
  -14.4372  -39.7886   -8.0727 N   0  0  0  0  0  0  0  0  0  0  0  0
  -13.3530  -40.3437   -8.7933 C   0  0  0  0  0  0  0  0  0  0  0  0
  -13.2389  -39.8108  -10.1713 C   0  0  0  0  0  0  0  0  0  0  0  0
  -12.4951  -38.6875  -10.4048 C   0  0  0  0  0  0  0  0  0  0  0  0
  -12.3350  -38.1251  -11.6385 C   0  0  0  0  0  0  0  0  0  0  0  0
  -12.9659  -38.7327  -12.7208 C   0  0  0  0  0  0  0  0  0  0  0  0
  -13.7192  -39.8607  -12.5218 C   0  0  0  0  0  0  0  0  0  0  0  0
  -13.8579  -40.4078  -11.2292 C   0  0  0  0  0  0  0  0  0  0  0  0
  -11.5491  -36.8873  -11.7961 C   0  0  0  0  0  0  0  0  0  0  0  0
  -12.5691  -35.7564  -11.8619 C   0  0  0  0  0  0  0  0  0  0  0  0
  -10.6633  -36.8602  -13.0016 C   0  0  0  0  0  0  0  0  0  0  0  0
  -19.4076  -44.9020   -6.8577 N   0  0  0  0  0  0  0  0  0  0  0  0
  1  2  1  0
  2  3  1  0
  3  4  2  0
  4  5  1  0
  5  6  2  0
  6  7  1  0
  7  8  1  0
  8  9  1  0
  9 10  1  0
 10 11  1  0
 11 12  1  0
 12 13  1  0
 13 14  1  0
 14 15  1  0
 15 16  1  0
 16 17  1  6
 16 18  1  0
 19 18  1  1
 19 20  1  0
 20 21  1  0
 21 22  2  0
 19 23  1  0
 23 24  1  6
 23 25  1  0
 25 26  1  0
 26 27  1  0
 27 28  1  0
 28 29  2  0
 29 30  1  0
 30 31  2  0
 31 32  1  0
 32 33  2  0
 30 34  1  0
 34 35  1  0
 34 36  1  0
  7 37  2  0
 21  5  1  0
 33 28  1  0
 37  3  1  0
M  END
$$$$
