
     RDKit          3D

 37 39  0  0  0  0  0  0  0  0999 V2000
  -13.1792  -46.1466   -8.9480 C   0  0  0  0  0  0  0  0  0  0  0  0
  -13.6508  -44.9545   -8.5775 O   0  0  0  0  0  0  0  0  0  0  0  0
  -13.9607  -43.7840   -9.1691 C   0  0  0  0  0  0  0  0  0  0  0  0
  -14.5472  -42.7475   -8.4506 C   0  0  0  0  0  0  0  0  0  0  0  0
  -14.9199  -41.4952   -8.9847 C   0  0  0  0  0  0  0  0  0  0  0  0
  -14.6859  -41.2773  -10.3332 C   0  0  0  0  0  0  0  0  0  0  0  0
  -14.1102  -42.2840  -11.0536 C   0  0  0  0  0  0  0  0  0  0  0  0
  -13.7854  -42.4389  -12.4455 N   0  0  0  0  0  0  0  0  0  0  0  0
  -13.0719  -41.6187  -13.3705 C   0  0  0  0  0  0  0  0  0  0  0  0
  -11.8365  -40.9727  -12.8126 C   0  0  0  0  0  0  0  0  0  0  0  0
  -12.0716  -39.7270  -12.0367 C   0  0  0  0  0  0  0  0  0  0  0  0
  -13.0228  -38.7448  -12.6874 C   0  0  0  0  0  0  0  0  0  0  0  0
  -12.8835  -37.4074  -11.9432 C   0  0  0  0  0  0  0  0  0  0  0  0
  -13.3299  -37.4824  -10.5446 C   0  0  0  0  0  0  0  0  0  0  0  0
  -14.6266  -36.7784  -10.2435 C   0  0  0  0  0  0  0  0  0  0  0  0
  -15.0149  -36.9474   -8.7820 C   0  0  1  0  0  0  0  0  0  0  0  0
  -14.6306  -35.6248   -8.0717 C   0  0  0  0  0  0  0  0  0  0  0  0
  -16.4719  -37.1145   -8.5623 C   0  0  0  0  0  0  0  0  0  0  0  0
  -16.9781  -38.4982   -8.1745 C   0  0  2  0  0  0  0  0  0  0  0  0
  -15.8774  -39.3205   -7.7416 N   0  0  0  0  0  0  0  0  0  0  0  0
  -15.5103  -40.6360   -7.9632 C   0  0  0  0  0  0  0  0  0  0  0  0
  -15.8353  -41.3011   -6.8008 O   0  0  0  0  0  0  0  0  0  0  0  0
  -17.7811  -38.9984   -9.3270 C   0  0  2  0  0  0  0  0  0  0  0  0
  -18.2522  -38.0551  -10.2013 O   0  0  0  0  0  0  0  0  0  0  0  0
  -18.6667  -40.1467   -9.1066 C   0  0  0  0  0  0  0  0  0  0  0  0
  -20.0494  -40.1365   -9.2930 N   0  0  0  0  0  0  0  0  0  0  0  0
  -20.8514  -39.6392   -8.2384 C   0  0  0  0  0  0  0  0  0  0  0  0
  -21.3469  -40.7039   -7.3347 C   0  0  0  0  0  0  0  0  0  0  0  0
  -22.3716  -40.4370   -6.4698 C   0  0  0  0  0  0  0  0  0  0  0  0
  -22.8912  -41.3535   -5.6014 C   0  0  0  0  0  0  0  0  0  0  0  0
  -22.3450  -42.6342   -5.5985 C   0  0  0  0  0  0  0  0  0  0  0  0
  -21.3165  -42.9356   -6.4533 C   0  0  0  0  0  0  0  0  0  0  0  0
  -20.8100  -41.9572   -7.3339 C   0  0  0  0  0  0  0  0  0  0  0  0
  -23.9698  -40.9701   -4.6717 C   0  0  0  0  0  0  0  0  0  0  0  0
  -24.6727  -39.7839   -5.3217 C   0  0  0  0  0  0  0  0  0  0  0  0
  -23.5077  -40.6107   -3.2948 C   0  0  0  0  0  0  0  0  0  0  0  0
  -13.7750  -43.4851  -10.4367 N   0  0  0  0  0  0  0  0  0  0  0  0
  1  2  1  0
  2  3  1  0
  3  4  2  0
  4  5  1  0
  5  6  2  0
  6  7  1  0
  7  8  1  0
  8  9  1  0
  9 10  1  0
 10 11  1  0
 11 12  1  0
 12 13  1  0
 13 14  1  0
 14 15  1  0
 15 16  1  0
 16 17  1  1
 16 18  1  0
 19 18  1  6
 19 20  1  0
 20 21  1  0
 21 22  2  0
 19 23  1  0
 23 24  1  1
 23 25  1  0
 25 26  1  0
 26 27  1  0
 27 28  1  0
 28 29  2  0
 29 30  1  0
 30 31  2  0
 31 32  1  0
 32 33  2  0
 30 34  1  0
 34 35  1  0
 34 36  1  0
  7 37  2  0
 21  5  1  0
 33 28  1  0
 37  3  1  0
M  END
$$$$
