
     RDKit          3D

 37 39  0  0  0  0  0  0  0  0999 V2000
  -17.4861  -48.0348   -6.6248 C   0  0  0  0  0  0  0  0  0  0  0  0
  -17.7145  -47.2311   -7.6653 O   0  0  0  0  0  0  0  0  0  0  0  0
  -18.5485  -46.2173   -7.9699 C   0  0  0  0  0  0  0  0  0  0  0  0
  -18.0680  -45.0248   -8.5005 C   0  0  0  0  0  0  0  0  0  0  0  0
  -18.8595  -43.9052   -8.8361 C   0  0  0  0  0  0  0  0  0  0  0  0
  -20.2253  -43.9967   -8.6197 C   0  0  0  0  0  0  0  0  0  0  0  0
  -20.7142  -45.1606   -8.0999 C   0  0  0  0  0  0  0  0  0  0  0  0
  -22.0265  -45.5839   -7.6929 N   0  0  0  0  0  0  0  0  0  0  0  0
  -23.2976  -45.5557   -8.3419 C   0  0  0  0  0  0  0  0  0  0  0  0
  -23.2674  -45.9254   -9.7969 C   0  0  0  0  0  0  0  0  0  0  0  0
  -22.8796  -44.8261  -10.7190 C   0  0  0  0  0  0  0  0  0  0  0  0
  -23.5617  -43.5016  -10.4486 C   0  0  0  0  0  0  0  0  0  0  0  0
  -23.3181  -42.6007  -11.6698 C   0  0  0  0  0  0  0  0  0  0  0  0
  -21.9008  -42.2558  -11.8518 C   0  0  0  0  0  0  0  0  0  0  0  0
  -21.5388  -40.8290  -11.5338 C   0  0  0  0  0  0  0  0  0  0  0  0
  -20.0480  -40.5878  -11.7196 C   0  0  1  0  0  0  0  0  0  0  0  0
  -19.8879  -39.8710  -13.0842 C   0  0  0  0  0  0  0  0  0  0  0  0
  -19.4565  -39.6743  -10.7125 C   0  0  0  0  0  0  0  0  0  0  0  0
  -18.5560  -40.2817   -9.6440 C   0  0  2  0  0  0  0  0  0  0  0  0
  -18.1587  -41.6104  -10.0337 N   0  0  0  0  0  0  0  0  0  0  0  0
  -18.0440  -42.8175   -9.3673 C   0  0  0  0  0  0  0  0  0  0  0  0
  -16.6914  -42.9922   -9.1693 O   0  0  0  0  0  0  0  0  0  0  0  0
  -19.2801  -40.1473   -8.3475 C   0  0  2  0  0  0  0  0  0  0  0  0
  -20.5968  -39.7765   -8.4162 O   0  0  0  0  0  0  0  0  0  0  0  0
  -18.5410  -39.6244   -7.1934 C   0  0  0  0  0  0  0  0  0  0  0  0
  -18.0576  -40.3976   -6.1374 N   0  0  0  0  0  0  0  0  0  0  0  0
  -17.3728  -39.7307   -5.0939 C   0  0  0  0  0  0  0  0  0  0  0  0
  -18.2796  -39.2157   -4.0412 C   0  0  0  0  0  0  0  0  0  0  0  0
  -19.3848  -39.9377   -3.6852 C   0  0  0  0  0  0  0  0  0  0  0  0
  -20.2754  -39.5419   -2.7290 C   0  0  0  0  0  0  0  0  0  0  0  0
  -20.0424  -38.3328   -2.0791 C   0  0  0  0  0  0  0  0  0  0  0  0
  -18.9433  -37.5840   -2.4117 C   0  0  0  0  0  0  0  0  0  0  0  0
  -18.0490  -38.0312   -3.4065 C   0  0  0  0  0  0  0  0  0  0  0  0
  -21.4657  -40.3614   -2.4355 C   0  0  0  0  0  0  0  0  0  0  0  0
  -20.9719  -41.8026   -2.3837 C   0  0  0  0  0  0  0  0  0  0  0  0
  -22.5760  -40.2270   -3.4294 C   0  0  0  0  0  0  0  0  0  0  0  0
  -19.8534  -46.2124   -7.8026 N   0  0  0  0  0  0  0  0  0  0  0  0
  1  2  1  0
  2  3  1  0
  3  4  2  0
  4  5  1  0
  5  6  2  0
  6  7  1  0
  7  8  1  0
  8  9  1  0
  9 10  1  0
 10 11  1  0
 11 12  1  0
 12 13  1  0
 13 14  1  0
 14 15  1  0
 15 16  1  0
 16 17  1  6
 16 18  1  0
 19 18  1  6
 19 20  1  0
 20 21  1  0
 21 22  2  0
 19 23  1  0
 23 24  1  6
 23 25  1  0
 25 26  1  0
 26 27  1  0
 27 28  1  0
 28 29  2  0
 29 30  1  0
 30 31  2  0
 31 32  1  0
 32 33  2  0
 30 34  1  0
 34 35  1  0
 34 36  1  0
  7 37  2  0
 21  5  1  0
 33 28  1  0
 37  3  1  0
M  END
$$$$
