
     RDKit          3D

 37 39  0  0  0  0  0  0  0  0999 V2000
  -13.6836  -41.2830  -16.5966 C   0  0  0  0  0  0  0  0  0  0  0  0
  -14.2713  -40.9197  -15.4550 O   0  0  0  0  0  0  0  0  0  0  0  0
  -13.9689  -40.9177  -14.1417 C   0  0  0  0  0  0  0  0  0  0  0  0
  -14.9482  -41.1308  -13.1774 C   0  0  0  0  0  0  0  0  0  0  0  0
  -14.7312  -41.1322  -11.7826 C   0  0  0  0  0  0  0  0  0  0  0  0
  -13.4405  -40.9016  -11.3337 C   0  0  0  0  0  0  0  0  0  0  0  0
  -12.4665  -40.6912  -12.2669 C   0  0  0  0  0  0  0  0  0  0  0  0
  -11.0689  -40.3663  -12.1769 N   0  0  0  0  0  0  0  0  0  0  0  0
   -9.9862  -40.9415  -11.4460 C   0  0  0  0  0  0  0  0  0  0  0  0
   -9.9795  -42.4427  -11.4123 C   0  0  0  0  0  0  0  0  0  0  0  0
  -10.8685  -43.0546  -10.3904 C   0  0  0  0  0  0  0  0  0  0  0  0
  -10.7859  -42.4215   -9.0174 C   0  0  0  0  0  0  0  0  0  0  0  0
  -11.4863  -43.3691   -8.0307 C   0  0  0  0  0  0  0  0  0  0  0  0
  -12.9271  -43.5014   -8.2903 C   0  0  0  0  0  0  0  0  0  0  0  0
  -13.8270  -42.8306   -7.2863 C   0  0  0  0  0  0  0  0  0  0  0  0
  -15.2910  -42.9964   -7.6663 C   0  0  1  0  0  0  0  0  0  0  0  0
  -15.8505  -44.1281   -6.7676 C   0  0  0  0  0  0  0  0  0  0  0  0
  -16.1253  -41.8045   -7.3800 C   0  0  0  0  0  0  0  0  0  0  0  0
  -16.5948  -40.9651   -8.5618 C   0  0  2  0  0  0  0  0  0  0  0  0
  -16.4282  -41.7047   -9.7866 N   0  0  0  0  0  0  0  0  0  0  0  0
  -15.9693  -41.3847  -11.0521 C   0  0  0  0  0  0  0  0  0  0  0  0
  -17.1017  -41.2856  -11.8313 O   0  0  0  0  0  0  0  0  0  0  0  0
  -15.8889  -39.6554   -8.4635 C   0  0  2  0  0  0  0  0  0  0  0  0
  -15.1056  -39.4628   -7.3565 O   0  0  0  0  0  0  0  0  0  0  0  0
  -16.5778  -38.4593   -8.9599 C   0  0  0  0  0  0  0  0  0  0  0  0
  -16.9127  -37.3501   -8.1827 N   0  0  0  0  0  0  0  0  0  0  0  0
  -17.8040  -36.4022   -8.7393 C   0  0  0  0  0  0  0  0  0  0  0  0
  -19.0637  -37.0089   -9.2301 C   0  0  0  0  0  0  0  0  0  0  0  0
  -19.9135  -37.6154   -8.3472 C   0  0  0  0  0  0  0  0  0  0  0  0
  -21.0928  -38.2011   -8.7080 C   0  0  0  0  0  0  0  0  0  0  0  0
  -21.4496  -38.1777  -10.0536 C   0  0  0  0  0  0  0  0  0  0  0  0
  -20.6204  -37.5775  -10.9655 C   0  0  0  0  0  0  0  0  0  0  0  0
  -19.4105  -36.9846  -10.5485 C   0  0  0  0  0  0  0  0  0  0  0  0
  -21.9313  -38.8711   -7.6967 C   0  0  0  0  0  0  0  0  0  0  0  0
  -22.2509  -37.8059   -6.6541 C   0  0  0  0  0  0  0  0  0  0  0  0
  -21.2956  -40.0601   -7.0481 C   0  0  0  0  0  0  0  0  0  0  0  0
  -12.7778  -40.7112  -13.6227 N   0  0  0  0  0  0  0  0  0  0  0  0
  1  2  1  0
  2  3  1  0
  3  4  2  0
  4  5  1  0
  5  6  2  0
  6  7  1  0
  7  8  1  0
  8  9  1  0
  9 10  1  0
 10 11  1  0
 11 12  1  0
 12 13  1  0
 13 14  1  0
 14 15  1  0
 15 16  1  0
 16 17  1  1
 16 18  1  0
 19 18  1  1
 19 20  1  0
 20 21  1  0
 21 22  2  0
 19 23  1  0
 23 24  1  1
 23 25  1  0
 25 26  1  0
 26 27  1  0
 27 28  1  0
 28 29  2  0
 29 30  1  0
 30 31  2  0
 31 32  1  0
 32 33  2  0
 30 34  1  0
 34 35  1  0
 34 36  1  0
  7 37  2  0
 21  5  1  0
 33 28  1  0
 37  3  1  0
M  END
$$$$
