
     RDKit          3D

 37 39  0  0  0  0  0  0  0  0999 V2000
  -18.9529  -44.9765  -12.3562 C   0  0  0  0  0  0  0  0  0  0  0  0
  -19.3676  -43.7534  -12.0205 O   0  0  0  0  0  0  0  0  0  0  0  0
  -18.8085  -42.5602  -11.7384 C   0  0  0  0  0  0  0  0  0  0  0  0
  -17.8841  -42.4240  -10.7082 C   0  0  0  0  0  0  0  0  0  0  0  0
  -17.2582  -41.2167  -10.3297 C   0  0  0  0  0  0  0  0  0  0  0  0
  -17.5896  -40.0725  -11.0379 C   0  0  0  0  0  0  0  0  0  0  0  0
  -18.4951  -40.1882  -12.0531 C   0  0  0  0  0  0  0  0  0  0  0  0
  -19.1107  -39.2368  -12.9379 N   0  0  0  0  0  0  0  0  0  0  0  0
  -18.5808  -38.2093  -13.7752 C   0  0  0  0  0  0  0  0  0  0  0  0
  -17.3286  -38.5853  -14.5135 C   0  0  0  0  0  0  0  0  0  0  0  0
  -16.0723  -38.4610  -13.7289 C   0  0  0  0  0  0  0  0  0  0  0  0
  -15.9426  -37.1754  -12.9395 C   0  0  0  0  0  0  0  0  0  0  0  0
  -14.4798  -37.0622  -12.4816 C   0  0  0  0  0  0  0  0  0  0  0  0
  -14.0942  -38.1179  -11.5341 C   0  0  0  0  0  0  0  0  0  0  0  0
  -13.9013  -37.6667  -10.1103 C   0  0  0  0  0  0  0  0  0  0  0  0
  -13.5408  -38.8383   -9.2088 C   0  0  1  0  0  0  0  0  0  0  0  0
  -12.0091  -38.7633   -8.9859 C   0  0  0  0  0  0  0  0  0  0  0  0
  -14.1487  -38.7671   -7.8582 C   0  0  0  0  0  0  0  0  0  0  0  0
  -15.2899  -39.7255   -7.5410 C   0  0  2  0  0  0  0  0  0  0  0  0
  -15.3290  -40.7833   -8.5181 N   0  0  0  0  0  0  0  0  0  0  0  0
  -16.3436  -41.4200   -9.2106 C   0  0  0  0  0  0  0  0  0  0  0  0
  -16.4908  -42.6420   -8.5905 O   0  0  0  0  0  0  0  0  0  0  0  0
  -16.5193  -38.8941   -7.3976 C   0  0  2  0  0  0  0  0  0  0  0  0
  -16.3615  -37.5394   -7.5238 O   0  0  0  0  0  0  0  0  0  0  0  0
  -17.5326  -39.3194   -6.4260 C   0  0  0  0  0  0  0  0  0  0  0  0
  -18.2360  -40.5230   -6.4805 N   0  0  0  0  0  0  0  0  0  0  0  0
  -19.2098  -40.7612   -5.4817 C   0  0  0  0  0  0  0  0  0  0  0  0
  -20.5184  -40.1363   -5.7865 C   0  0  0  0  0  0  0  0  0  0  0  0
  -21.0510  -40.2546   -7.0402 C   0  0  0  0  0  0  0  0  0  0  0  0
  -22.2475  -39.7120   -7.4118 C   0  0  0  0  0  0  0  0  0  0  0  0
  -22.9661  -38.9978   -6.4568 C   0  0  0  0  0  0  0  0  0  0  0  0
  -22.4610  -38.8602   -5.1898 C   0  0  0  0  0  0  0  0  0  0  0  0
  -21.2199  -39.4373   -4.8493 C   0  0  0  0  0  0  0  0  0  0  0  0
  -22.7297  -39.8516   -8.7984 C   0  0  0  0  0  0  0  0  0  0  0  0
  -22.5881  -41.3310   -9.1377 C   0  0  0  0  0  0  0  0  0  0  0  0
  -21.9977  -39.0155   -9.8003 C   0  0  0  0  0  0  0  0  0  0  0  0
  -19.0578  -41.4245  -12.3539 N   0  0  0  0  0  0  0  0  0  0  0  0
  1  2  1  0
  2  3  1  0
  3  4  2  0
  4  5  1  0
  5  6  2  0
  6  7  1  0
  7  8  1  0
  8  9  1  0
  9 10  1  0
 10 11  1  0
 11 12  1  0
 12 13  1  0
 13 14  1  0
 14 15  1  0
 15 16  1  0
 16 17  1  1
 16 18  1  0
 19 18  1  6
 19 20  1  0
 20 21  1  0
 21 22  2  0
 19 23  1  0
 23 24  1  1
 23 25  1  0
 25 26  1  0
 26 27  1  0
 27 28  1  0
 28 29  2  0
 29 30  1  0
 30 31  2  0
 31 32  1  0
 32 33  2  0
 30 34  1  0
 34 35  1  0
 34 36  1  0
  7 37  2  0
 21  5  1  0
 33 28  1  0
 37  3  1  0
M  END
$$$$
