
     RDKit          3D

 37 39  0  0  0  0  0  0  0  0999 V2000
  -20.3775  -35.8760  -13.6973 C   0  0  0  0  0  0  0  0  0  0  0  0
  -19.6749  -36.7682  -12.9966 O   0  0  0  0  0  0  0  0  0  0  0  0
  -18.5290  -36.7911  -12.2876 C   0  0  0  0  0  0  0  0  0  0  0  0
  -18.0740  -37.9631  -11.6929 C   0  0  0  0  0  0  0  0  0  0  0  0
  -16.8977  -38.0816  -10.9216 C   0  0  0  0  0  0  0  0  0  0  0  0
  -16.1327  -36.9406  -10.7385 C   0  0  0  0  0  0  0  0  0  0  0  0
  -16.5644  -35.7813  -11.3160 C   0  0  0  0  0  0  0  0  0  0  0  0
  -16.0806  -34.4277  -11.2905 N   0  0  0  0  0  0  0  0  0  0  0  0
  -14.7965  -33.8536  -11.5332 C   0  0  0  0  0  0  0  0  0  0  0  0
  -14.0525  -34.4488  -12.6938 C   0  0  0  0  0  0  0  0  0  0  0  0
  -13.3259  -35.7109  -12.3968 C   0  0  0  0  0  0  0  0  0  0  0  0
  -12.5235  -35.6934  -11.1128 C   0  0  0  0  0  0  0  0  0  0  0  0
  -11.5878  -36.9123  -11.1382 C   0  0  0  0  0  0  0  0  0  0  0  0
  -12.3131  -38.1904  -11.1030 C   0  0  0  0  0  0  0  0  0  0  0  0
  -12.2158  -38.9510   -9.8069 C   0  0  0  0  0  0  0  0  0  0  0  0
  -13.0285  -40.2361   -9.8638 C   0  0  1  0  0  0  0  0  0  0  0  0
  -12.0163  -41.3827  -10.1136 C   0  0  0  0  0  0  0  0  0  0  0  0
  -13.7123  -40.5720   -8.5917 C   0  0  0  0  0  0  0  0  0  0  0  0
  -15.2243  -40.3947   -8.5292 C   0  0  2  0  0  0  0  0  0  0  0  0
  -15.7591  -40.2654   -9.8605 N   0  0  0  0  0  0  0  0  0  0  0  0
  -16.7114  -39.4476  -10.4424 C   0  0  0  0  0  0  0  0  0  0  0  0
  -17.8266  -40.2434  -10.5918 O   0  0  0  0  0  0  0  0  0  0  0  0
  -15.4844  -39.2698   -7.5857 C   0  0  2  0  0  0  0  0  0  0  0  0
  -14.4005  -38.7704   -6.9135 O   0  0  0  0  0  0  0  0  0  0  0  0
  -16.7417  -39.2772   -6.8302 C   0  0  0  0  0  0  0  0  0  0  0  0
  -17.7370  -38.3043   -6.9263 N   0  0  0  0  0  0  0  0  0  0  0  0
  -18.7762  -38.3298   -5.9660 C   0  0  0  0  0  0  0  0  0  0  0  0
  -20.0294  -38.9281   -6.4833 C   0  0  0  0  0  0  0  0  0  0  0  0
  -20.7474  -39.7849   -5.6961 C   0  0  0  0  0  0  0  0  0  0  0  0
  -21.9101  -40.3835   -6.0883 C   0  0  0  0  0  0  0  0  0  0  0  0
  -22.3915  -40.1032   -7.3643 C   0  0  0  0  0  0  0  0  0  0  0  0
  -21.6962  -39.2481   -8.1796 C   0  0  0  0  0  0  0  0  0  0  0  0
  -20.4984  -38.6518   -7.7334 C   0  0  0  0  0  0  0  0  0  0  0  0
  -22.6002  -41.3288   -5.1912 C   0  0  0  0  0  0  0  0  0  0  0  0
  -22.6929  -42.6390   -5.9648 C   0  0  0  0  0  0  0  0  0  0  0  0
  -23.9599  -40.8886   -4.7483 C   0  0  0  0  0  0  0  0  0  0  0  0
  -17.7384  -35.7640  -12.0623 N   0  0  0  0  0  0  0  0  0  0  0  0
  1  2  1  0
  2  3  1  0
  3  4  2  0
  4  5  1  0
  5  6  2  0
  6  7  1  0
  7  8  1  0
  8  9  1  0
  9 10  1  0
 10 11  1  0
 11 12  1  0
 12 13  1  0
 13 14  1  0
 14 15  1  0
 15 16  1  0
 16 17  1  1
 16 18  1  0
 19 18  1  6
 19 20  1  0
 20 21  1  0
 21 22  2  0
 19 23  1  0
 23 24  1  1
 23 25  1  0
 25 26  1  0
 26 27  1  0
 27 28  1  0
 28 29  2  0
 29 30  1  0
 30 31  2  0
 31 32  1  0
 32 33  2  0
 30 34  1  0
 34 35  1  0
 34 36  1  0
  7 37  2  0
 21  5  1  0
 33 28  1  0
 37  3  1  0
M  END
$$$$
