
     RDKit          3D

 37 39  0  0  0  0  0  0  0  0999 V2000
  -18.5984  -47.7663   -6.9292 C   0  0  0  0  0  0  0  0  0  0  0  0
  -18.7827  -46.6750   -7.6747 O   0  0  0  0  0  0  0  0  0  0  0  0
  -18.9489  -45.3531   -7.4721 C   0  0  0  0  0  0  0  0  0  0  0  0
  -18.6972  -44.4326   -8.4839 C   0  0  0  0  0  0  0  0  0  0  0  0
  -18.8280  -43.0324   -8.3623 C   0  0  0  0  0  0  0  0  0  0  0  0
  -19.2384  -42.5301   -7.1376 C   0  0  0  0  0  0  0  0  0  0  0  0
  -19.4907  -43.4198   -6.1332 C   0  0  0  0  0  0  0  0  0  0  0  0
  -19.8608  -43.2684   -4.7523 N   0  0  0  0  0  0  0  0  0  0  0  0
  -20.8910  -42.5246   -4.1018 C   0  0  0  0  0  0  0  0  0  0  0  0
  -22.2204  -42.5522   -4.7994 C   0  0  0  0  0  0  0  0  0  0  0  0
  -22.3644  -41.5874   -5.9209 C   0  0  0  0  0  0  0  0  0  0  0  0
  -21.8714  -40.1877   -5.6202 C   0  0  0  0  0  0  0  0  0  0  0  0
  -22.3995  -39.2653   -6.7303 C   0  0  0  0  0  0  0  0  0  0  0  0
  -21.8356  -39.5797   -8.0509 C   0  0  0  0  0  0  0  0  0  0  0  0
  -20.8413  -38.5808   -8.5814 C   0  0  0  0  0  0  0  0  0  0  0  0
  -20.2938  -39.0176   -9.9322 C   0  0  1  0  0  0  0  0  0  0  0  0
  -21.0487  -38.1857  -10.9998 C   0  0  0  0  0  0  0  0  0  0  0  0
  -18.8558  -38.7118  -10.1256 C   0  0  0  0  0  0  0  0  0  0  0  0
  -17.8709  -39.8738  -10.0889 C   0  0  2  0  0  0  0  0  0  0  0  0
  -18.5777  -41.1213  -10.2268 N   0  0  0  0  0  0  0  0  0  0  0  0
  -18.4851  -42.3560   -9.6093 C   0  0  0  0  0  0  0  0  0  0  0  0
  -17.8511  -43.1691  -10.5238 O   0  0  0  0  0  0  0  0  0  0  0  0
  -17.0473  -39.6977   -8.8585 C   0  0  2  0  0  0  0  0  0  0  0  0
  -17.4965  -38.7801   -7.9462 O   0  0  0  0  0  0  0  0  0  0  0  0
  -15.5890  -39.7965   -8.9822 C   0  0  0  0  0  0  0  0  0  0  0  0
  -14.8352  -40.9268   -8.6644 N   0  0  0  0  0  0  0  0  0  0  0  0
  -14.0312  -41.4889   -9.6843 C   0  0  0  0  0  0  0  0  0  0  0  0
  -13.5757  -40.4907  -10.6803 C   0  0  0  0  0  0  0  0  0  0  0  0
  -12.9036  -39.3751  -10.2641 C   0  0  0  0  0  0  0  0  0  0  0  0
  -12.4485  -38.4032  -11.1081 C   0  0  0  0  0  0  0  0  0  0  0  0
  -12.6825  -38.5593  -12.4716 C   0  0  0  0  0  0  0  0  0  0  0  0
  -13.3533  -39.6665  -12.9229 C   0  0  0  0  0  0  0  0  0  0  0  0
  -13.8064  -40.6462  -12.0151 C   0  0  0  0  0  0  0  0  0  0  0  0
  -11.7687  -37.2097  -10.5713 C   0  0  0  0  0  0  0  0  0  0  0  0
  -12.7646  -36.5621   -9.6161 C   0  0  0  0  0  0  0  0  0  0  0  0
  -11.3257  -36.2254  -11.6074 C   0  0  0  0  0  0  0  0  0  0  0  0
  -19.3353  -44.7853   -6.3500 N   0  0  0  0  0  0  0  0  0  0  0  0
  1  2  1  0
  2  3  1  0
  3  4  2  0
  4  5  1  0
  5  6  2  0
  6  7  1  0
  7  8  1  0
  8  9  1  0
  9 10  1  0
 10 11  1  0
 11 12  1  0
 12 13  1  0
 13 14  1  0
 14 15  1  0
 15 16  1  0
 16 17  1  6
 16 18  1  0
 19 18  1  1
 19 20  1  0
 20 21  1  0
 21 22  2  0
 19 23  1  0
 23 24  1  6
 23 25  1  0
 25 26  1  0
 26 27  1  0
 27 28  1  0
 28 29  2  0
 29 30  1  0
 30 31  2  0
 31 32  1  0
 32 33  2  0
 30 34  1  0
 34 35  1  0
 34 36  1  0
  7 37  2  0
 21  5  1  0
 33 28  1  0
 37  3  1  0
M  END
$$$$
