
     RDKit          3D

 37 39  0  0  0  0  0  0  0  0999 V2000
  -18.2614  -44.2501   -2.9884 C   0  0  0  0  0  0  0  0  0  0  0  0
  -18.1195  -43.8841   -4.2637 O   0  0  0  0  0  0  0  0  0  0  0  0
  -18.5815  -42.9101   -5.0724 C   0  0  0  0  0  0  0  0  0  0  0  0
  -18.1883  -42.8334   -6.4043 C   0  0  0  0  0  0  0  0  0  0  0  0
  -18.6056  -41.8446   -7.3211 C   0  0  0  0  0  0  0  0  0  0  0  0
  -19.4758  -40.8691   -6.8611 C   0  0  0  0  0  0  0  0  0  0  0  0
  -19.8727  -40.9295   -5.5562 C   0  0  0  0  0  0  0  0  0  0  0  0
  -20.6919  -40.0803   -4.7347 N   0  0  0  0  0  0  0  0  0  0  0  0
  -21.9951  -39.5259   -4.9128 C   0  0  0  0  0  0  0  0  0  0  0  0
  -22.9975  -40.4631   -5.5223 C   0  0  0  0  0  0  0  0  0  0  0  0
  -22.9441  -40.5672   -7.0041 C   0  0  0  0  0  0  0  0  0  0  0  0
  -22.8404  -39.2421   -7.7293 C   0  0  0  0  0  0  0  0  0  0  0  0
  -23.1394  -39.5053   -9.2137 C   0  0  0  0  0  0  0  0  0  0  0  0
  -22.1301  -40.3584   -9.8574 C   0  0  0  0  0  0  0  0  0  0  0  0
  -21.2183  -39.6568  -10.8291 C   0  0  0  0  0  0  0  0  0  0  0  0
  -20.1920  -40.6188  -11.4093 C   0  0  1  0  0  0  0  0  0  0  0  0
  -20.6987  -40.9978  -12.8239 C   0  0  0  0  0  0  0  0  0  0  0  0
  -18.8508  -40.0188  -11.6088 C   0  0  0  0  0  0  0  0  0  0  0  0
  -17.7358  -40.4388  -10.6590 C   0  0  2  0  0  0  0  0  0  0  0  0
  -18.1186  -41.6327   -9.9497 N   0  0  0  0  0  0  0  0  0  0  0  0
  -18.0067  -42.0520   -8.6359 C   0  0  0  0  0  0  0  0  0  0  0  0
  -16.9728  -42.9632   -8.6356 O   0  0  0  0  0  0  0  0  0  0  0  0
  -17.4029  -39.2419   -9.8345 C   0  0  2  0  0  0  0  0  0  0  0  0
  -18.4424  -38.4094   -9.5144 O   0  0  0  0  0  0  0  0  0  0  0  0
  -16.1164  -38.5770  -10.0681 C   0  0  0  0  0  0  0  0  0  0  0  0
  -15.1529  -38.3349   -9.0885 N   0  0  0  0  0  0  0  0  0  0  0  0
  -14.9033  -36.9887   -8.7304 C   0  0  0  0  0  0  0  0  0  0  0  0
  -14.2427  -36.2148   -9.8077 C   0  0  0  0  0  0  0  0  0  0  0  0
  -13.8070  -36.8558  -10.9341 C   0  0  0  0  0  0  0  0  0  0  0  0
  -13.1878  -36.2261  -11.9753 C   0  0  0  0  0  0  0  0  0  0  0  0
  -12.9900  -34.8510  -11.8832 C   0  0  0  0  0  0  0  0  0  0  0  0
  -13.4150  -34.1772  -10.7675 C   0  0  0  0  0  0  0  0  0  0  0  0
  -14.0503  -34.8682   -9.7148 C   0  0  0  0  0  0  0  0  0  0  0  0
  -12.7109  -37.0004  -13.1362 C   0  0  0  0  0  0  0  0  0  0  0  0
  -12.7472  -38.4609  -12.7012 C   0  0  0  0  0  0  0  0  0  0  0  0
  -11.3405  -36.6326  -13.6108 C   0  0  0  0  0  0  0  0  0  0  0  0
  -19.4081  -41.9463   -4.7279 N   0  0  0  0  0  0  0  0  0  0  0  0
  1  2  1  0
  2  3  1  0
  3  4  2  0
  4  5  1  0
  5  6  2  0
  6  7  1  0
  7  8  1  0
  8  9  1  0
  9 10  1  0
 10 11  1  0
 11 12  1  0
 12 13  1  0
 13 14  1  0
 14 15  1  0
 15 16  1  0
 16 17  1  6
 16 18  1  0
 19 18  1  6
 19 20  1  0
 20 21  1  0
 21 22  2  0
 19 23  1  0
 23 24  1  6
 23 25  1  0
 25 26  1  0
 26 27  1  0
 27 28  1  0
 28 29  2  0
 29 30  1  0
 30 31  2  0
 31 32  1  0
 32 33  2  0
 30 34  1  0
 34 35  1  0
 34 36  1  0
  7 37  2  0
 21  5  1  0
 33 28  1  0
 37  3  1  0
M  END
$$$$
