
     RDKit          3D

 37 39  0  0  0  0  0  0  0  0999 V2000
  -20.0606  -46.8575   -9.5623 C   0  0  0  0  0  0  0  0  0  0  0  0
  -19.3684  -45.7168   -9.5440 O   0  0  0  0  0  0  0  0  0  0  0  0
  -19.2985  -44.6124   -8.7749 C   0  0  0  0  0  0  0  0  0  0  0  0
  -18.9497  -43.3795   -9.3159 C   0  0  0  0  0  0  0  0  0  0  0  0
  -18.8361  -42.1742   -8.5900 C   0  0  0  0  0  0  0  0  0  0  0  0
  -19.0900  -42.2188   -7.2283 C   0  0  0  0  0  0  0  0  0  0  0  0
  -19.4344  -43.4210   -6.6806 C   0  0  0  0  0  0  0  0  0  0  0  0
  -19.6995  -43.8513   -5.3347 N   0  0  0  0  0  0  0  0  0  0  0  0
  -20.5534  -43.3479   -4.3076 C   0  0  0  0  0  0  0  0  0  0  0  0
  -21.9038  -42.8934   -4.7814 C   0  0  0  0  0  0  0  0  0  0  0  0
  -21.9429  -41.5220   -5.3532 C   0  0  0  0  0  0  0  0  0  0  0  0
  -21.2058  -40.4763   -4.5433 C   0  0  0  0  0  0  0  0  0  0  0  0
  -21.6297  -39.0984   -5.0763 C   0  0  0  0  0  0  0  0  0  0  0  0
  -21.1982  -38.8643   -6.4619 C   0  0  0  0  0  0  0  0  0  0  0  0
  -20.0797  -37.8699   -6.6291 C   0  0  0  0  0  0  0  0  0  0  0  0
  -19.6865  -37.7289   -8.0923 C   0  0  1  0  0  0  0  0  0  0  0  0
  -20.3465  -36.4212   -8.5983 C   0  0  0  0  0  0  0  0  0  0  0  0
  -18.2300  -37.5556   -8.3096 C   0  0  0  0  0  0  0  0  0  0  0  0
  -17.4543  -38.7287   -8.8959 C   0  0  2  0  0  0  0  0  0  0  0  0
  -18.3676  -39.6843   -9.4686 N   0  0  0  0  0  0  0  0  0  0  0  0
  -18.4513  -41.0653   -9.4574 C   0  0  0  0  0  0  0  0  0  0  0  0
  -18.0131  -41.4626  -10.7022 O   0  0  0  0  0  0  0  0  0  0  0  0
  -16.5483  -39.2229   -7.8198 C   0  0  2  0  0  0  0  0  0  0  0  0
  -16.6693  -38.6246   -6.5936 O   0  0  0  0  0  0  0  0  0  0  0  0
  -15.1864  -39.6216   -8.1910 C   0  0  0  0  0  0  0  0  0  0  0  0
  -14.8055  -40.9103   -8.5661 N   0  0  0  0  0  0  0  0  0  0  0  0
  -14.7867  -41.2144   -9.9481 C   0  0  0  0  0  0  0  0  0  0  0  0
  -13.9141  -40.3069  -10.7298 C   0  0  0  0  0  0  0  0  0  0  0  0
  -14.3154  -39.0225  -10.9726 C   0  0  0  0  0  0  0  0  0  0  0  0
  -13.5796  -38.1180  -11.6828 C   0  0  0  0  0  0  0  0  0  0  0  0
  -12.3489  -38.5290  -12.1878 C   0  0  0  0  0  0  0  0  0  0  0  0
  -11.9162  -39.8102  -11.9625 C   0  0  0  0  0  0  0  0  0  0  0  0
  -12.7094  -40.7121  -11.2232 C   0  0  0  0  0  0  0  0  0  0  0  0
  -14.1061  -36.7638  -11.9346 C   0  0  0  0  0  0  0  0  0  0  0  0
  -14.4717  -36.2020  -10.5655 C   0  0  0  0  0  0  0  0  0  0  0  0
  -15.2884  -36.7145  -12.8501 C   0  0  0  0  0  0  0  0  0  0  0  0
  -19.5232  -44.5564   -7.4798 N   0  0  0  0  0  0  0  0  0  0  0  0
  1  2  1  0
  2  3  1  0
  3  4  2  0
  4  5  1  0
  5  6  2  0
  6  7  1  0
  7  8  1  0
  8  9  1  0
  9 10  1  0
 10 11  1  0
 11 12  1  0
 12 13  1  0
 13 14  1  0
 14 15  1  0
 15 16  1  0
 16 17  1  1
 16 18  1  0
 19 18  1  1
 19 20  1  0
 20 21  1  0
 21 22  2  0
 19 23  1  0
 23 24  1  1
 23 25  1  0
 25 26  1  0
 26 27  1  0
 27 28  1  0
 28 29  2  0
 29 30  1  0
 30 31  2  0
 31 32  1  0
 32 33  2  0
 30 34  1  0
 34 35  1  0
 34 36  1  0
  7 37  2  0
 21  5  1  0
 33 28  1  0
 37  3  1  0
M  END
$$$$
