
     RDKit          3D

 37 39  0  0  0  0  0  0  0  0999 V2000
   -9.5164  -39.6922   -7.4269 C   0  0  0  0  0  0  0  0  0  0  0  0
  -10.8429  -39.6408   -7.2911 O   0  0  0  0  0  0  0  0  0  0  0  0
  -11.9269  -39.9928   -8.0101 C   0  0  0  0  0  0  0  0  0  0  0  0
  -13.1363  -39.3216   -7.8643 C   0  0  0  0  0  0  0  0  0  0  0  0
  -14.3260  -39.6263   -8.5601 C   0  0  0  0  0  0  0  0  0  0  0  0
  -14.2911  -40.6790   -9.4607 C   0  0  0  0  0  0  0  0  0  0  0  0
  -13.1117  -41.3486   -9.6169 C   0  0  0  0  0  0  0  0  0  0  0  0
  -12.7256  -42.4982  -10.3891 N   0  0  0  0  0  0  0  0  0  0  0  0
  -12.8883  -42.8392  -11.7656 C   0  0  0  0  0  0  0  0  0  0  0  0
  -12.6607  -41.7057  -12.7238 C   0  0  0  0  0  0  0  0  0  0  0  0
  -13.8208  -40.7956  -12.9112 C   0  0  0  0  0  0  0  0  0  0  0  0
  -15.1491  -41.4945  -13.1105 C   0  0  0  0  0  0  0  0  0  0  0  0
  -16.1492  -40.4452  -13.6213 C   0  0  0  0  0  0  0  0  0  0  0  0
  -16.4296  -39.3942  -12.6326 C   0  0  0  0  0  0  0  0  0  0  0  0
  -17.7961  -39.4507  -12.0021 C   0  0  0  0  0  0  0  0  0  0  0  0
  -17.9697  -38.3449  -10.9714 C   0  0  1  0  0  0  0  0  0  0  0  0
  -18.8055  -37.2349  -11.6576 C   0  0  0  0  0  0  0  0  0  0  0  0
  -18.7462  -38.7535   -9.7760 C   0  0  0  0  0  0  0  0  0  0  0  0
  -17.9880  -38.9506   -8.4692 C   0  0  2  0  0  0  0  0  0  0  0  0
  -16.6832  -38.3474   -8.5626 N   0  0  0  0  0  0  0  0  0  0  0  0
  -15.4125  -38.7319   -8.1728 C   0  0  0  0  0  0  0  0  0  0  0  0
  -15.1433  -37.9913   -7.0422 O   0  0  0  0  0  0  0  0  0  0  0  0
  -18.0364  -40.4090   -8.1624 C   0  0  2  0  0  0  0  0  0  0  0  0
  -18.4741  -41.2323   -9.1657 O   0  0  0  0  0  0  0  0  0  0  0  0
  -18.4148  -40.8182   -6.8056 C   0  0  0  0  0  0  0  0  0  0  0  0
  -18.4072  -39.9831   -5.6880 N   0  0  0  0  0  0  0  0  0  0  0  0
  -18.9408  -40.4947   -4.4813 C   0  0  0  0  0  0  0  0  0  0  0  0
  -20.3257  -41.0010   -4.6279 C   0  0  0  0  0  0  0  0  0  0  0  0
  -21.2182  -40.3193   -5.4078 C   0  0  0  0  0  0  0  0  0  0  0  0
  -22.5124  -40.7092   -5.5996 C   0  0  0  0  0  0  0  0  0  0  0  0
  -22.9467  -41.8694   -4.9640 C   0  0  0  0  0  0  0  0  0  0  0  0
  -22.0774  -42.5772   -4.1749 C   0  0  0  0  0  0  0  0  0  0  0  0
  -20.7482  -42.1374   -4.0042 C   0  0  0  0  0  0  0  0  0  0  0  0
  -23.4218  -39.8918   -6.4241 C   0  0  0  0  0  0  0  0  0  0  0  0
  -22.6013  -38.6885   -6.8742 C   0  0  0  0  0  0  0  0  0  0  0  0
  -24.6643  -39.4416   -5.7227 C   0  0  0  0  0  0  0  0  0  0  0  0
  -11.9891  -40.9721   -8.8864 N   0  0  0  0  0  0  0  0  0  0  0  0
  1  2  1  0
  2  3  1  0
  3  4  2  0
  4  5  1  0
  5  6  2  0
  6  7  1  0
  7  8  1  0
  8  9  1  0
  9 10  1  0
 10 11  1  0
 11 12  1  0
 12 13  1  0
 13 14  1  0
 14 15  1  0
 15 16  1  0
 16 17  1  6
 16 18  1  0
 19 18  1  6
 19 20  1  0
 20 21  1  0
 21 22  2  0
 19 23  1  0
 23 24  1  6
 23 25  1  0
 25 26  1  0
 26 27  1  0
 27 28  1  0
 28 29  2  0
 29 30  1  0
 30 31  2  0
 31 32  1  0
 32 33  2  0
 30 34  1  0
 34 35  1  0
 34 36  1  0
  7 37  2  0
 21  5  1  0
 33 28  1  0
 37  3  1  0
M  END
$$$$
