
     RDKit          3D

 37 39  0  0  0  0  0  0  0  0999 V2000
  -18.8730  -41.2376  -15.2873 C   0  0  0  0  0  0  0  0  0  0  0  0
  -18.6255  -40.9359  -14.0112 O   0  0  0  0  0  0  0  0  0  0  0  0
  -17.7596  -40.1640  -13.3255 C   0  0  0  0  0  0  0  0  0  0  0  0
  -17.1667  -40.6157  -12.1512 C   0  0  0  0  0  0  0  0  0  0  0  0
  -16.2623  -39.8765  -11.3587 C   0  0  0  0  0  0  0  0  0  0  0  0
  -15.9374  -38.5968  -11.7801 C   0  0  0  0  0  0  0  0  0  0  0  0
  -16.5098  -38.1375  -12.9313 C   0  0  0  0  0  0  0  0  0  0  0  0
  -16.4615  -36.8773  -13.6215 N   0  0  0  0  0  0  0  0  0  0  0  0
  -15.3811  -36.0463  -14.0456 C   0  0  0  0  0  0  0  0  0  0  0  0
  -14.2111  -36.7867  -14.6267 C   0  0  0  0  0  0  0  0  0  0  0  0
  -13.2619  -37.3480  -13.6301 C   0  0  0  0  0  0  0  0  0  0  0  0
  -12.8794  -36.3986  -12.5142 C   0  0  0  0  0  0  0  0  0  0  0  0
  -11.6629  -37.0014  -11.7940 C   0  0  0  0  0  0  0  0  0  0  0  0
  -11.9712  -38.2669  -11.1127 C   0  0  0  0  0  0  0  0  0  0  0  0
  -12.0160  -38.1950   -9.6091 C   0  0  0  0  0  0  0  0  0  0  0  0
  -12.3775  -39.5449   -9.0069 C   0  0  1  0  0  0  0  0  0  0  0  0
  -11.0506  -40.1703   -8.5074 C   0  0  0  0  0  0  0  0  0  0  0  0
  -13.2551  -39.4560   -7.8150 C   0  0  0  0  0  0  0  0  0  0  0  0
  -14.7117  -39.8748   -7.9720 C   0  0  2  0  0  0  0  0  0  0  0  0
  -14.8777  -40.6280   -9.1886 N   0  0  0  0  0  0  0  0  0  0  0  0
  -15.8290  -40.6407  -10.1932 C   0  0  0  0  0  0  0  0  0  0  0  0
  -16.5838  -41.7699   -9.9600 O   0  0  0  0  0  0  0  0  0  0  0  0
  -15.5304  -38.6370   -7.8280 C   0  0  2  0  0  0  0  0  0  0  0  0
  -14.9218  -37.5653   -7.2304 O   0  0  0  0  0  0  0  0  0  0  0  0
  -16.9620  -38.7837   -7.5438 C   0  0  0  0  0  0  0  0  0  0  0  0
  -17.5359  -39.8610   -6.8680 N   0  0  0  0  0  0  0  0  0  0  0  0
  -18.5904  -40.5532   -7.5095 C   0  0  0  0  0  0  0  0  0  0  0  0
  -19.8987  -39.8703   -7.3753 C   0  0  0  0  0  0  0  0  0  0  0  0
  -20.6410  -40.0434   -6.2402 C   0  0  0  0  0  0  0  0  0  0  0  0
  -21.8556  -39.4566   -6.0298 C   0  0  0  0  0  0  0  0  0  0  0  0
  -22.3662  -38.6338   -7.0302 C   0  0  0  0  0  0  0  0  0  0  0  0
  -21.6476  -38.4385   -8.1812 C   0  0  0  0  0  0  0  0  0  0  0  0
  -20.3962  -39.0651   -8.3567 C   0  0  0  0  0  0  0  0  0  0  0  0
  -22.6104  -39.7304   -4.7929 C   0  0  0  0  0  0  0  0  0  0  0  0
  -21.6084  -39.5735   -3.6548 C   0  0  0  0  0  0  0  0  0  0  0  0
  -23.2514  -41.0812   -4.7394 C   0  0  0  0  0  0  0  0  0  0  0  0
  -17.3900  -38.9430  -13.6469 N   0  0  0  0  0  0  0  0  0  0  0  0
  1  2  1  0
  2  3  1  0
  3  4  2  0
  4  5  1  0
  5  6  2  0
  6  7  1  0
  7  8  1  0
  8  9  1  0
  9 10  1  0
 10 11  1  0
 11 12  1  0
 12 13  1  0
 13 14  1  0
 14 15  1  0
 15 16  1  0
 16 17  1  1
 16 18  1  0
 19 18  1  6
 19 20  1  0
 20 21  1  0
 21 22  2  0
 19 23  1  0
 23 24  1  1
 23 25  1  0
 25 26  1  0
 26 27  1  0
 27 28  1  0
 28 29  2  0
 29 30  1  0
 30 31  2  0
 31 32  1  0
 32 33  2  0
 30 34  1  0
 34 35  1  0
 34 36  1  0
  7 37  2  0
 21  5  1  0
 33 28  1  0
 37  3  1  0
M  END
$$$$
