
     RDKit          3D

 39 41  0  0  0  0  0  0  0  0999 V2000
  -18.2246  -49.0844   -8.1590 C   0  0  0  0  0  0  0  0  0  0  0  0
  -18.0773  -47.7775   -7.7240 O   0  0  0  0  0  0  0  0  0  0  0  0
  -18.9337  -46.9550   -8.3964 C   0  0  0  0  0  0  0  0  0  0  0  0
  -19.2016  -45.7069   -7.6337 C   0  0  0  0  0  0  0  0  0  0  0  0
  -20.2650  -45.5796   -6.7832 C   0  0  0  0  0  0  0  0  0  0  0  0
  -20.5440  -44.4059   -6.0327 C   0  0  0  0  0  0  0  0  0  0  0  0
  -19.6866  -43.3142   -6.1678 C   0  0  0  0  0  0  0  0  0  0  0  0
  -18.6004  -43.4040   -7.0196 C   0  0  0  0  0  0  0  0  0  0  0  0
  -18.3920  -44.6216   -7.7355 C   0  0  0  0  0  0  0  0  0  0  0  0
  -17.5399  -42.4578   -7.3756 C   0  0  0  0  0  0  0  0  0  0  0  0
  -16.2861  -42.8847   -7.3686 O   0  0  0  0  0  0  0  0  0  0  0  0
  -17.5647  -41.0846   -7.7564 N   0  0  0  0  0  0  0  0  0  0  0  0
  -18.5958  -40.4813   -8.5955 C   0  0  1  0  0  0  0  0  0  0  0  0
  -19.7845  -40.0409   -7.8636 C   0  0  0  0  0  0  0  0  0  0  0  0
  -20.1219  -38.6021   -7.7171 C   0  0  2  0  0  0  0  0  0  0  0  0
  -19.0087  -37.7233   -7.2336 C   0  0  0  0  0  0  0  0  0  0  0  0
  -21.2584  -38.4248   -6.7322 C   0  0  0  0  0  0  0  0  0  0  0  0
  -22.3782  -39.3823   -6.8468 C   0  0  0  0  0  0  0  0  0  0  0  0
  -22.1894  -40.5140   -5.8864 C   0  0  0  0  0  0  0  0  0  0  0  0
  -23.3744  -40.8914   -5.0677 C   0  0  0  0  0  0  0  0  0  0  0  0
  -23.2974  -42.3888   -4.8698 C   0  0  0  0  0  0  0  0  0  0  0  0
  -22.4386  -42.8280   -3.7316 C   0  0  0  0  0  0  0  0  0  0  0  0
  -22.0658  -44.2811   -3.9032 C   0  0  0  0  0  0  0  0  0  0  0  0
  -21.7204  -44.6129   -5.2619 N   0  0  0  0  0  0  0  0  0  0  0  0
  -17.9961  -39.4730   -9.5519 C   0  0  2  0  0  0  0  0  0  0  0  0
  -18.9818  -38.6485   -9.9986 O   0  0  0  0  0  0  0  0  0  0  0  0
  -17.3990  -40.2239  -10.7161 C   0  0  0  0  0  0  0  0  0  0  0  0
  -16.0353  -40.5540  -10.6429 N   0  0  0  0  0  0  0  0  0  0  0  0
  -15.2649  -40.1296  -11.7650 C   0  0  0  0  0  0  0  0  0  0  0  0
  -14.2335  -39.1575  -11.2498 C   0  0  0  0  0  0  0  0  0  0  0  0
  -12.9087  -39.5156  -11.1711 C   0  0  0  0  0  0  0  0  0  0  0  0
  -11.9626  -38.6324  -10.7069 C   0  0  0  0  0  0  0  0  0  0  0  0
  -12.3514  -37.3807  -10.3191 C   0  0  0  0  0  0  0  0  0  0  0  0
  -13.6972  -37.0114  -10.3970 C   0  0  0  0  0  0  0  0  0  0  0  0
  -14.6183  -37.9049  -10.8610 C   0  0  0  0  0  0  0  0  0  0  0  0
  -14.0625  -35.7252   -9.9937 O   0  0  0  0  0  0  0  0  0  0  0  0
  -15.4114  -35.4010   -9.7107 C   0  0  0  0  0  0  0  0  0  0  0  0
  -10.6407  -39.0057  -10.6341 O   0  0  0  0  0  0  0  0  0  0  0  0
   -9.7438  -38.7036  -11.6688 C   0  0  0  0  0  0  0  0  0  0  0  0
  1  2  1  0
  2  3  1  0
  3  4  1  0
  4  5  2  0
  5  6  1  0
  6  7  2  0
  7  8  1  0
  8  9  2  0
  8 10  1  0
 10 11  2  0
 10 12  1  0
 12 13  1  0
 13 14  1  1
 14 15  1  0
 15 16  1  1
 15 17  1  0
 17 18  1  0
 18 19  1  0
 19 20  1  0
 20 21  1  0
 21 22  1  0
 22 23  1  0
 23 24  1  0
 13 25  1  0
 25 26  1  6
 25 27  1  0
 27 28  1  0
 28 29  1  0
 29 30  1  0
 30 31  2  0
 31 32  1  0
 32 33  2  0
 33 34  1  0
 34 35  2  0
 34 36  1  0
 36 37  1  0
 32 38  1  0
 38 39  1  0
  9  4  1  0
 24  6  1  0
 35 30  1  0
M  END
$$$$
