
     RDKit          3D

 39 41  0  0  0  0  0  0  0  0999 V2000
  -19.2840  -40.5920   -0.9813 C   0  0  0  0  0  0  0  0  0  0  0  0
  -19.9578  -39.8928   -1.9692 O   0  0  0  0  0  0  0  0  0  0  0  0
  -21.1429  -40.5044   -2.2583 C   0  0  0  0  0  0  0  0  0  0  0  0
  -21.4504  -40.4367   -3.7116 C   0  0  0  0  0  0  0  0  0  0  0  0
  -22.5366  -41.0587   -4.2625 C   0  0  0  0  0  0  0  0  0  0  0  0
  -22.8644  -41.0062   -5.6439 C   0  0  0  0  0  0  0  0  0  0  0  0
  -22.0320  -40.2793   -6.4947 C   0  0  0  0  0  0  0  0  0  0  0  0
  -20.9225  -39.6370   -5.9752 C   0  0  0  0  0  0  0  0  0  0  0  0
  -20.6668  -39.7399   -4.5743 C   0  0  0  0  0  0  0  0  0  0  0  0
  -19.8760  -38.8152   -6.5885 C   0  0  0  0  0  0  0  0  0  0  0  0
  -19.5547  -37.6684   -6.0090 O   0  0  0  0  0  0  0  0  0  0  0  0
  -19.0712  -38.9939   -7.7512 N   0  0  0  0  0  0  0  0  0  0  0  0
  -18.5352  -40.2782   -8.1922 C   0  0  1  0  0  0  0  0  0  0  0  0
  -19.4566  -41.0631   -9.0153 C   0  0  0  0  0  0  0  0  0  0  0  0
  -19.1974  -41.3111  -10.4564 C   0  0  2  0  0  0  0  0  0  0  0  0
  -18.8703  -40.0976  -11.2722 C   0  0  0  0  0  0  0  0  0  0  0  0
  -20.4083  -41.9448  -11.1083 C   0  0  0  0  0  0  0  0  0  0  0  0
  -21.0805  -43.0133  -10.3399 C   0  0  0  0  0  0  0  0  0  0  0  0
  -22.2305  -42.4478   -9.5676 C   0  0  0  0  0  0  0  0  0  0  0  0
  -23.5162  -43.1937   -9.6543 C   0  0  0  0  0  0  0  0  0  0  0  0
  -24.1894  -43.0424   -8.3086 C   0  0  0  0  0  0  0  0  0  0  0  0
  -24.9878  -41.7929   -8.1433 C   0  0  0  0  0  0  0  0  0  0  0  0
  -25.2171  -41.5229   -6.6756 C   0  0  0  0  0  0  0  0  0  0  0  0
  -24.0452  -41.7638   -5.8731 N   0  0  0  0  0  0  0  0  0  0  0  0
  -17.1310  -40.1226   -8.7354 C   0  0  2  0  0  0  0  0  0  0  0  0
  -16.4381  -41.2698   -8.5013 O   0  0  0  0  0  0  0  0  0  0  0  0
  -16.4695  -38.9760   -8.0121 C   0  0  0  0  0  0  0  0  0  0  0  0
  -17.3060  -38.0240   -7.4056 N   0  0  0  0  0  0  0  0  0  0  0  0
  -16.9815  -36.6708   -7.7165 C   0  0  0  0  0  0  0  0  0  0  0  0
  -16.8022  -36.5925   -9.2118 C   0  0  0  0  0  0  0  0  0  0  0  0
  -17.8538  -36.2505  -10.0282 C   0  0  0  0  0  0  0  0  0  0  0  0
  -17.6957  -36.1724  -11.3918 C   0  0  0  0  0  0  0  0  0  0  0  0
  -16.4717  -36.4403  -11.9382 C   0  0  0  0  0  0  0  0  0  0  0  0
  -15.3989  -36.7887  -11.1127 C   0  0  0  0  0  0  0  0  0  0  0  0
  -15.5798  -36.8597   -9.7620 C   0  0  0  0  0  0  0  0  0  0  0  0
  -14.1610  -37.0560  -11.7013 O   0  0  0  0  0  0  0  0  0  0  0  0
  -12.9743  -36.4530  -11.2187 C   0  0  0  0  0  0  0  0  0  0  0  0
  -18.7578  -35.8288  -12.1955 O   0  0  0  0  0  0  0  0  0  0  0  0
  -18.8268  -36.2575  -13.5287 C   0  0  0  0  0  0  0  0  0  0  0  0
  1  2  1  0
  2  3  1  0
  3  4  1  0
  4  5  2  0
  5  6  1  0
  6  7  2  0
  7  8  1  0
  8  9  2  0
  8 10  1  0
 10 11  2  0
 10 12  1  0
 12 13  1  0
 13 14  1  6
 14 15  1  0
 15 16  1  6
 15 17  1  0
 17 18  1  0
 18 19  1  0
 19 20  1  0
 20 21  1  0
 21 22  1  0
 22 23  1  0
 23 24  1  0
 13 25  1  0
 25 26  1  1
 25 27  1  0
 27 28  1  0
 28 29  1  0
 29 30  1  0
 30 31  2  0
 31 32  1  0
 32 33  2  0
 33 34  1  0
 34 35  2  0
 34 36  1  0
 36 37  1  0
 32 38  1  0
 38 39  1  0
  9  4  1  0
 24  6  1  0
 35 30  1  0
M  END
$$$$
