
     RDKit          3D

 39 41  0  0  0  0  0  0  0  0999 V2000
  -12.5462  -44.9936   -8.5763 C   0  0  0  0  0  0  0  0  0  0  0  0
  -12.3256  -43.8355   -9.3036 O   0  0  0  0  0  0  0  0  0  0  0  0
  -12.8496  -43.9565  -10.5577 C   0  0  0  0  0  0  0  0  0  0  0  0
  -13.4202  -42.6692  -11.0360 C   0  0  0  0  0  0  0  0  0  0  0  0
  -12.7358  -41.8260  -11.8671 C   0  0  0  0  0  0  0  0  0  0  0  0
  -13.2548  -40.5947  -12.3500 C   0  0  0  0  0  0  0  0  0  0  0  0
  -14.5382  -40.2170  -11.9556 C   0  0  0  0  0  0  0  0  0  0  0  0
  -15.2617  -41.0430  -11.1143 C   0  0  0  0  0  0  0  0  0  0  0  0
  -14.6654  -42.2642  -10.6767 C   0  0  0  0  0  0  0  0  0  0  0  0
  -16.6012  -40.9342  -10.5308 C   0  0  0  0  0  0  0  0  0  0  0  0
  -17.4044  -41.9853  -10.5963 O   0  0  0  0  0  0  0  0  0  0  0  0
  -17.2740  -39.8720   -9.8595 N   0  0  0  0  0  0  0  0  0  0  0  0
  -16.6294  -38.9415   -8.9376 C   0  0  1  0  0  0  0  0  0  0  0  0
  -15.9951  -37.7938   -9.5880 C   0  0  0  0  0  0  0  0  0  0  0  0
  -16.5224  -36.4151   -9.4254 C   0  0  2  0  0  0  0  0  0  0  0  0
  -17.9910  -36.2515   -9.6738 C   0  0  0  0  0  0  0  0  0  0  0  0
  -15.8245  -35.4679  -10.3786 C   0  0  0  0  0  0  0  0  0  0  0  0
  -14.3613  -35.6304  -10.5074 C   0  0  0  0  0  0  0  0  0  0  0  0
  -14.0401  -36.4936  -11.6866 C   0  0  0  0  0  0  0  0  0  0  0  0
  -12.9754  -35.9954  -12.6005 C   0  0  0  0  0  0  0  0  0  0  0  0
  -12.2513  -37.2177  -13.1191 C   0  0  0  0  0  0  0  0  0  0  0  0
  -12.8866  -37.8688  -14.3016 C   0  0  0  0  0  0  0  0  0  0  0  0
  -12.3770  -39.2832  -14.4418 C   0  0  0  0  0  0  0  0  0  0  0  0
  -12.2833  -39.9714  -13.1797 N   0  0  0  0  0  0  0  0  0  0  0  0
  -17.5350  -38.6220   -7.7675 C   0  0  2  0  0  0  0  0  0  0  0  0
  -16.9500  -39.0677   -6.6228 O   0  0  0  0  0  0  0  0  0  0  0  0
  -18.8464  -39.3374   -7.9765 C   0  0  0  0  0  0  0  0  0  0  0  0
  -18.7963  -40.6460   -8.4855 N   0  0  0  0  0  0  0  0  0  0  0  0
  -19.7234  -41.5479   -7.8855 C   0  0  0  0  0  0  0  0  0  0  0  0
  -20.7651  -40.7102   -7.1875 C   0  0  0  0  0  0  0  0  0  0  0  0
  -21.0264  -40.8860   -5.8495 C   0  0  0  0  0  0  0  0  0  0  0  0
  -21.9713  -40.1222   -5.2059 C   0  0  0  0  0  0  0  0  0  0  0  0
  -22.6583  -39.1751   -5.9128 C   0  0  0  0  0  0  0  0  0  0  0  0
  -22.3966  -38.9922   -7.2736 C   0  0  0  0  0  0  0  0  0  0  0  0
  -21.4542  -39.7622   -7.8908 C   0  0  0  0  0  0  0  0  0  0  0  0
  -23.1149  -38.0162   -7.9677 O   0  0  0  0  0  0  0  0  0  0  0  0
  -23.9162  -37.0703   -7.2837 C   0  0  0  0  0  0  0  0  0  0  0  0
  -22.2214  -40.3101   -3.8665 O   0  0  0  0  0  0  0  0  0  0  0  0
  -21.1817  -40.2970   -2.9258 C   0  0  0  0  0  0  0  0  0  0  0  0
  1  2  1  0
  2  3  1  0
  3  4  1  0
  4  5  2  0
  5  6  1  0
  6  7  2  0
  7  8  1  0
  8  9  2  0
  8 10  1  0
 10 11  2  0
 10 12  1  0
 12 13  1  0
 13 14  1  6
 14 15  1  0
 15 16  1  6
 15 17  1  0
 17 18  1  0
 18 19  1  0
 19 20  1  0
 20 21  1  0
 21 22  1  0
 22 23  1  0
 23 24  1  0
 13 25  1  0
 25 26  1  1
 25 27  1  0
 27 28  1  0
 28 29  1  0
 29 30  1  0
 30 31  2  0
 31 32  1  0
 32 33  2  0
 33 34  1  0
 34 35  2  0
 34 36  1  0
 36 37  1  0
 32 38  1  0
 38 39  1  0
  9  4  1  0
 24  6  1  0
 35 30  1  0
M  END
$$$$
