
     RDKit          3D

 39 41  0  0  0  0  0  0  0  0999 V2000
  -17.6226  -45.0636  -12.4080 C   0  0  0  0  0  0  0  0  0  0  0  0
  -18.3357  -45.8943  -11.5592 O   0  0  0  0  0  0  0  0  0  0  0  0
  -17.6687  -46.0512  -10.3791 C   0  0  0  0  0  0  0  0  0  0  0  0
  -18.3084  -45.2741   -9.2845 C   0  0  0  0  0  0  0  0  0  0  0  0
  -19.6396  -45.3794   -8.9897 C   0  0  0  0  0  0  0  0  0  0  0  0
  -20.2799  -44.6594   -7.9455 C   0  0  0  0  0  0  0  0  0  0  0  0
  -19.5105  -43.7907   -7.1719 C   0  0  0  0  0  0  0  0  0  0  0  0
  -18.1602  -43.6559   -7.4402 C   0  0  0  0  0  0  0  0  0  0  0  0
  -17.5960  -44.4182   -8.5074 C   0  0  0  0  0  0  0  0  0  0  0  0
  -17.1046  -42.8454   -6.8275 C   0  0  0  0  0  0  0  0  0  0  0  0
  -15.9543  -43.4302   -6.5288 O   0  0  0  0  0  0  0  0  0  0  0  0
  -17.0398  -41.4699   -6.4597 N   0  0  0  0  0  0  0  0  0  0  0  0
  -17.6410  -40.3832   -7.2270 C   0  0  1  0  0  0  0  0  0  0  0  0
  -19.0515  -40.1402   -6.9208 C   0  0  0  0  0  0  0  0  0  0  0  0
  -19.4992  -38.8997   -6.2378 C   0  0  2  0  0  0  0  0  0  0  0  0
  -18.7538  -38.5459   -4.9871 C   0  0  0  0  0  0  0  0  0  0  0  0
  -20.9569  -39.0116   -5.8437 C   0  0  0  0  0  0  0  0  0  0  0  0
  -21.8627  -39.6039   -6.8501 C   0  0  0  0  0  0  0  0  0  0  0  0
  -22.0429  -41.0654   -6.5851 C   0  0  0  0  0  0  0  0  0  0  0  0
  -23.4418  -41.5748   -6.6109 C   0  0  0  0  0  0  0  0  0  0  0  0
  -23.3739  -42.9822   -7.1602 C   0  0  0  0  0  0  0  0  0  0  0  0
  -23.0659  -44.0360   -6.1499 C   0  0  0  0  0  0  0  0  0  0  0  0
  -22.5748  -45.2831   -6.8452 C   0  0  0  0  0  0  0  0  0  0  0  0
  -21.6599  -44.9997   -7.9213 N   0  0  0  0  0  0  0  0  0  0  0  0
  -16.7453  -39.1631   -7.2334 C   0  0  2  0  0  0  0  0  0  0  0  0
  -17.5066  -38.0561   -7.0188 O   0  0  0  0  0  0  0  0  0  0  0  0
  -16.0862  -39.0685   -8.5870 C   0  0  0  0  0  0  0  0  0  0  0  0
  -14.8963  -39.7903   -8.7797 N   0  0  0  0  0  0  0  0  0  0  0  0
  -14.6260  -40.1297  -10.1379 C   0  0  0  0  0  0  0  0  0  0  0  0
  -14.2421  -38.8534  -10.8435 C   0  0  0  0  0  0  0  0  0  0  0  0
  -15.1644  -37.8524  -11.0355 C   0  0  0  0  0  0  0  0  0  0  0  0
  -14.8196  -36.6844  -11.6737 C   0  0  0  0  0  0  0  0  0  0  0  0
  -13.5385  -36.5218  -12.1219 C   0  0  0  0  0  0  0  0  0  0  0  0
  -12.5967  -37.5364  -11.9295 C   0  0  0  0  0  0  0  0  0  0  0  0
  -12.9621  -38.6871  -11.2933 C   0  0  0  0  0  0  0  0  0  0  0  0
  -11.2961  -37.3398  -12.3986 O   0  0  0  0  0  0  0  0  0  0  0  0
  -11.0264  -36.4365  -13.4550 C   0  0  0  0  0  0  0  0  0  0  0  0
  -15.7540  -35.6920  -11.8583 O   0  0  0  0  0  0  0  0  0  0  0  0
  -16.7895  -35.8357  -12.7927 C   0  0  0  0  0  0  0  0  0  0  0  0
  1  2  1  0
  2  3  1  0
  3  4  1  0
  4  5  2  0
  5  6  1  0
  6  7  2  0
  7  8  1  0
  8  9  2  0
  8 10  1  0
 10 11  2  0
 10 12  1  0
 12 13  1  0
 13 14  1  1
 14 15  1  0
 15 16  1  1
 15 17  1  0
 17 18  1  0
 18 19  1  0
 19 20  1  0
 20 21  1  0
 21 22  1  0
 22 23  1  0
 23 24  1  0
 13 25  1  0
 25 26  1  6
 25 27  1  0
 27 28  1  0
 28 29  1  0
 29 30  1  0
 30 31  2  0
 31 32  1  0
 32 33  2  0
 33 34  1  0
 34 35  2  0
 34 36  1  0
 36 37  1  0
 32 38  1  0
 38 39  1  0
  9  4  1  0
 24  6  1  0
 35 30  1  0
M  END
$$$$
