
     RDKit          3D

 39 41  0  0  0  0  0  0  0  0999 V2000
  -19.2657  -45.8391   -6.5969 C   0  0  0  0  0  0  0  0  0  0  0  0
  -19.6424  -45.0460   -7.6683 O   0  0  0  0  0  0  0  0  0  0  0  0
  -19.1750  -45.5744   -8.8364 C   0  0  0  0  0  0  0  0  0  0  0  0
  -18.0776  -44.7488   -9.4069 C   0  0  0  0  0  0  0  0  0  0  0  0
  -16.9991  -45.2986  -10.0429 C   0  0  0  0  0  0  0  0  0  0  0  0
  -15.9392  -44.5390  -10.6072 C   0  0  0  0  0  0  0  0  0  0  0  0
  -15.9956  -43.1489  -10.5090 C   0  0  0  0  0  0  0  0  0  0  0  0
  -17.0703  -42.5554   -9.8717 C   0  0  0  0  0  0  0  0  0  0  0  0
  -18.0936  -43.3930   -9.3336 C   0  0  0  0  0  0  0  0  0  0  0  0
  -17.4158  -41.1562   -9.6074 C   0  0  0  0  0  0  0  0  0  0  0  0
  -18.6476  -40.7499   -9.8753 O   0  0  0  0  0  0  0  0  0  0  0  0
  -16.6648  -40.0624   -9.0867 N   0  0  0  0  0  0  0  0  0  0  0  0
  -15.6708  -40.1779   -8.0238 C   0  0  1  0  0  0  0  0  0  0  0  0
  -14.3337  -40.5491   -8.4894 C   0  0  0  0  0  0  0  0  0  0  0  0
  -13.1934  -39.5998   -8.4244 C   0  0  2  0  0  0  0  0  0  0  0  0
  -13.4512  -38.2400   -8.9984 C   0  0  0  0  0  0  0  0  0  0  0  0
  -12.0012  -40.1559   -9.1743 C   0  0  0  0  0  0  0  0  0  0  0  0
  -11.7104  -41.5902   -8.9686 C   0  0  0  0  0  0  0  0  0  0  0  0
  -12.3312  -42.4039  -10.0601 C   0  0  0  0  0  0  0  0  0  0  0  0
  -11.4607  -43.4305  -10.6967 C   0  0  0  0  0  0  0  0  0  0  0  0
  -12.3622  -44.5891  -11.0602 C   0  0  0  0  0  0  0  0  0  0  0  0
  -13.0648  -44.4509  -12.3691 C   0  0  0  0  0  0  0  0  0  0  0  0
  -14.2462  -45.3900  -12.4171 C   0  0  0  0  0  0  0  0  0  0  0  0
  -14.9848  -45.4228  -11.1807 N   0  0  0  0  0  0  0  0  0  0  0  0
  -15.7394  -38.9922   -7.0854 C   0  0  2  0  0  0  0  0  0  0  0  0
  -15.1277  -39.3202   -5.9152 O   0  0  0  0  0  0  0  0  0  0  0  0
  -17.1920  -38.6792   -6.8259 C   0  0  0  0  0  0  0  0  0  0  0  0
  -17.7717  -37.6351   -7.5660 N   0  0  0  0  0  0  0  0  0  0  0  0
  -18.3961  -38.0485   -8.7793 C   0  0  0  0  0  0  0  0  0  0  0  0
  -19.7339  -38.6377   -8.4085 C   0  0  0  0  0  0  0  0  0  0  0  0
  -19.8208  -39.9010   -7.8738 C   0  0  0  0  0  0  0  0  0  0  0  0
  -21.0369  -40.4421   -7.5290 C   0  0  0  0  0  0  0  0  0  0  0  0
  -22.1733  -39.7078   -7.7233 C   0  0  0  0  0  0  0  0  0  0  0  0
  -22.0907  -38.4227   -8.2668 C   0  0  0  0  0  0  0  0  0  0  0  0
  -20.8726  -37.9066   -8.6013 C   0  0  0  0  0  0  0  0  0  0  0  0
  -23.2698  -37.6977   -8.4525 O   0  0  0  0  0  0  0  0  0  0  0  0
  -24.3357  -37.7811   -7.5243 C   0  0  0  0  0  0  0  0  0  0  0  0
  -21.1075  -41.7078   -6.9950 O   0  0  0  0  0  0  0  0  0  0  0  0
  -22.2858  -42.1783   -6.3980 C   0  0  0  0  0  0  0  0  0  0  0  0
  1  2  1  0
  2  3  1  0
  3  4  1  0
  4  5  2  0
  5  6  1  0
  6  7  2  0
  7  8  1  0
  8  9  2  0
  8 10  1  0
 10 11  2  0
 10 12  1  0
 12 13  1  0
 13 14  1  6
 14 15  1  0
 15 16  1  6
 15 17  1  0
 17 18  1  0
 18 19  1  0
 19 20  1  0
 20 21  1  0
 21 22  1  0
 22 23  1  0
 23 24  1  0
 13 25  1  0
 25 26  1  1
 25 27  1  0
 27 28  1  0
 28 29  1  0
 29 30  1  0
 30 31  2  0
 31 32  1  0
 32 33  2  0
 33 34  1  0
 34 35  2  0
 34 36  1  0
 36 37  1  0
 32 38  1  0
 38 39  1  0
  9  4  1  0
 24  6  1  0
 35 30  1  0
M  END
$$$$
