
     RDKit          3D

 39 41  0  0  0  0  0  0  0  0999 V2000
  -22.0352  -43.4028  -13.4762 C   0  0  0  0  0  0  0  0  0  0  0  0
  -21.1700  -42.4139  -13.0377 O   0  0  0  0  0  0  0  0  0  0  0  0
  -21.8091  -41.5750  -12.1718 C   0  0  0  0  0  0  0  0  0  0  0  0
  -21.4629  -41.8838  -10.7589 C   0  0  0  0  0  0  0  0  0  0  0  0
  -22.3799  -42.3661   -9.8664 C   0  0  0  0  0  0  0  0  0  0  0  0
  -22.0804  -42.6804   -8.5136 C   0  0  0  0  0  0  0  0  0  0  0  0
  -20.7750  -42.4865   -8.0622 C   0  0  0  0  0  0  0  0  0  0  0  0
  -19.8191  -41.9989   -8.9350 C   0  0  0  0  0  0  0  0  0  0  0  0
  -20.2046  -41.7102  -10.2791 C   0  0  0  0  0  0  0  0  0  0  0  0
  -18.3958  -41.6908   -8.7739 C   0  0  0  0  0  0  0  0  0  0  0  0
  -17.5476  -42.1337   -9.6897 O   0  0  0  0  0  0  0  0  0  0  0  0
  -17.6755  -40.9666   -7.7799 N   0  0  0  0  0  0  0  0  0  0  0  0
  -18.1685  -39.7613   -7.1201 C   0  0  1  0  0  0  0  0  0  0  0  0
  -19.0204  -40.0181   -5.9579 C   0  0  0  0  0  0  0  0  0  0  0  0
  -18.5800  -39.6859   -4.5791 C   0  0  2  0  0  0  0  0  0  0  0  0
  -17.2217  -40.1892   -4.1957 C   0  0  0  0  0  0  0  0  0  0  0  0
  -19.5456  -40.2610   -3.5643 C   0  0  0  0  0  0  0  0  0  0  0  0
  -20.9832  -40.1196   -3.8765 C   0  0  0  0  0  0  0  0  0  0  0  0
  -21.4912  -41.3607   -4.5403 C   0  0  0  0  0  0  0  0  0  0  0  0
  -22.7691  -41.9158   -4.0152 C   0  0  0  0  0  0  0  0  0  0  0  0
  -23.4925  -42.5165   -5.1997 C   0  0  0  0  0  0  0  0  0  0  0  0
  -23.0887  -43.9118   -5.5401 C   0  0  0  0  0  0  0  0  0  0  0  0
  -23.5040  -44.2336   -6.9556 C   0  0  0  0  0  0  0  0  0  0  0  0
  -23.2588  -43.1482   -7.8706 N   0  0  0  0  0  0  0  0  0  0  0  0
  -17.0522  -38.7600   -6.9142 C   0  0  2  0  0  0  0  0  0  0  0  0
  -17.5929  -37.5195   -6.7740 O   0  0  0  0  0  0  0  0  0  0  0  0
  -16.1619  -38.7886   -8.1316 C   0  0  0  0  0  0  0  0  0  0  0  0
  -16.7255  -38.3904   -9.3555 N   0  0  0  0  0  0  0  0  0  0  0  0
  -15.8345  -38.4630  -10.4662 C   0  0  0  0  0  0  0  0  0  0  0  0
  -16.6641  -38.2684  -11.7105 C   0  0  0  0  0  0  0  0  0  0  0  0
  -17.6637  -39.1548  -12.0337 C   0  0  0  0  0  0  0  0  0  0  0  0
  -18.4269  -38.9805  -13.1640 C   0  0  0  0  0  0  0  0  0  0  0  0
  -18.1831  -37.9075  -13.9750 C   0  0  0  0  0  0  0  0  0  0  0  0
  -17.1678  -37.0031  -13.6512 C   0  0  0  0  0  0  0  0  0  0  0  0
  -16.4233  -37.1968  -12.5241 C   0  0  0  0  0  0  0  0  0  0  0  0
  -16.9437  -35.9168  -14.4997 O   0  0  0  0  0  0  0  0  0  0  0  0
  -17.8831  -34.8627  -14.6048 C   0  0  0  0  0  0  0  0  0  0  0  0
  -19.4237  -39.8763  -13.4739 O   0  0  0  0  0  0  0  0  0  0  0  0
  -19.1238  -41.1443  -13.9920 C   0  0  0  0  0  0  0  0  0  0  0  0
  1  2  1  0
  2  3  1  0
  3  4  1  0
  4  5  2  0
  5  6  1  0
  6  7  2  0
  7  8  1  0
  8  9  2  0
  8 10  1  0
 10 11  2  0
 10 12  1  0
 12 13  1  0
 13 14  1  1
 14 15  1  0
 15 16  1  1
 15 17  1  0
 17 18  1  0
 18 19  1  0
 19 20  1  0
 20 21  1  0
 21 22  1  0
 22 23  1  0
 23 24  1  0
 13 25  1  0
 25 26  1  6
 25 27  1  0
 27 28  1  0
 28 29  1  0
 29 30  1  0
 30 31  2  0
 31 32  1  0
 32 33  2  0
 33 34  1  0
 34 35  2  0
 34 36  1  0
 36 37  1  0
 32 38  1  0
 38 39  1  0
  9  4  1  0
 24  6  1  0
 35 30  1  0
M  END
$$$$
