
     RDKit          3D

 39 41  0  0  0  0  0  0  0  0999 V2000
  -17.3940  -48.1311   -8.1476 C   0  0  0  0  0  0  0  0  0  0  0  0
  -18.6093  -47.4702   -8.2193 O   0  0  0  0  0  0  0  0  0  0  0  0
  -18.4813  -46.3203   -8.9428 C   0  0  0  0  0  0  0  0  0  0  0  0
  -18.8979  -45.1310   -8.1533 C   0  0  0  0  0  0  0  0  0  0  0  0
  -20.0924  -45.0709   -7.4903 C   0  0  0  0  0  0  0  0  0  0  0  0
  -20.5165  -43.9550   -6.7198 C   0  0  0  0  0  0  0  0  0  0  0  0
  -19.6688  -42.8510   -6.6314 C   0  0  0  0  0  0  0  0  0  0  0  0
  -18.4522  -42.8734   -7.2893 C   0  0  0  0  0  0  0  0  0  0  0  0
  -18.1028  -44.0360   -8.0408 C   0  0  0  0  0  0  0  0  0  0  0  0
  -17.3642  -41.8977   -7.3931 C   0  0  0  0  0  0  0  0  0  0  0  0
  -16.1222  -42.3159   -7.2014 O   0  0  0  0  0  0  0  0  0  0  0  0
  -17.3492  -40.5011   -7.6776 N   0  0  0  0  0  0  0  0  0  0  0  0
  -18.2336  -39.8467   -8.6372 C   0  0  1  0  0  0  0  0  0  0  0  0
  -19.5372  -39.4668   -8.0906 C   0  0  0  0  0  0  0  0  0  0  0  0
  -19.9210  -38.0441   -7.9057 C   0  0  2  0  0  0  0  0  0  0  0  0
  -18.9225  -37.1945   -7.1801 C   0  0  0  0  0  0  0  0  0  0  0  0
  -21.2114  -37.9441   -7.1196 C   0  0  0  0  0  0  0  0  0  0  0  0
  -22.2777  -38.8983   -7.4891 C   0  0  0  0  0  0  0  0  0  0  0  0
  -22.2341  -40.0938   -6.5903 C   0  0  0  0  0  0  0  0  0  0  0  0
  -23.5338  -40.5357   -6.0139 C   0  0  0  0  0  0  0  0  0  0  0  0
  -23.4641  -42.0428   -5.9088 C   0  0  0  0  0  0  0  0  0  0  0  0
  -22.8033  -42.5558   -4.6735 C   0  0  0  0  0  0  0  0  0  0  0  0
  -22.3801  -43.9907   -4.8781 C   0  0  0  0  0  0  0  0  0  0  0  0
  -21.8027  -44.2235   -6.1772 N   0  0  0  0  0  0  0  0  0  0  0  0
  -17.4986  -38.7695   -9.4057 C   0  0  2  0  0  0  0  0  0  0  0  0
  -18.3531  -38.2068  -10.3025 O   0  0  0  0  0  0  0  0  0  0  0  0
  -16.3488  -39.4141  -10.1391 C   0  0  0  0  0  0  0  0  0  0  0  0
  -15.4901  -38.5718  -10.8651 N   0  0  0  0  0  0  0  0  0  0  0  0
  -14.1640  -38.4937  -10.3472 C   0  0  0  0  0  0  0  0  0  0  0  0
  -13.5033  -39.8206  -10.6246 C   0  0  0  0  0  0  0  0  0  0  0  0
  -12.9581  -40.5608   -9.6026 C   0  0  0  0  0  0  0  0  0  0  0  0
  -12.3587  -41.7737   -9.8481 C   0  0  0  0  0  0  0  0  0  0  0  0
  -12.3070  -42.2453  -11.1301 C   0  0  0  0  0  0  0  0  0  0  0  0
  -12.8597  -41.4967  -12.1730 C   0  0  0  0  0  0  0  0  0  0  0  0
  -13.4495  -40.2956  -11.9051 C   0  0  0  0  0  0  0  0  0  0  0  0
  -12.7913  -42.0060  -13.4715 O   0  0  0  0  0  0  0  0  0  0  0  0
  -13.9650  -42.3185  -14.1992 C   0  0  0  0  0  0  0  0  0  0  0  0
  -11.8176  -42.5026   -8.8147 O   0  0  0  0  0  0  0  0  0  0  0  0
  -10.6100  -42.1213   -8.2128 C   0  0  0  0  0  0  0  0  0  0  0  0
  1  2  1  0
  2  3  1  0
  3  4  1  0
  4  5  2  0
  5  6  1  0
  6  7  2  0
  7  8  1  0
  8  9  2  0
  8 10  1  0
 10 11  2  0
 10 12  1  0
 12 13  1  0
 13 14  1  1
 14 15  1  0
 15 16  1  1
 15 17  1  0
 17 18  1  0
 18 19  1  0
 19 20  1  0
 20 21  1  0
 21 22  1  0
 22 23  1  0
 23 24  1  0
 13 25  1  0
 25 26  1  6
 25 27  1  0
 27 28  1  0
 28 29  1  0
 29 30  1  0
 30 31  2  0
 31 32  1  0
 32 33  2  0
 33 34  1  0
 34 35  2  0
 34 36  1  0
 36 37  1  0
 32 38  1  0
 38 39  1  0
  9  4  1  0
 24  6  1  0
 35 30  1  0
M  END
$$$$
