
     RDKit          3D

 39 41  0  0  0  0  0  0  0  0999 V2000
  -21.1386  -39.7852  -14.2738 C   0  0  0  0  0  0  0  0  0  0  0  0
  -21.8746  -40.5519  -13.3854 O   0  0  0  0  0  0  0  0  0  0  0  0
  -21.2345  -41.7304  -13.1332 C   0  0  0  0  0  0  0  0  0  0  0  0
  -20.9958  -41.9199  -11.6778 C   0  0  0  0  0  0  0  0  0  0  0  0
  -21.9829  -42.3120  -10.8164 C   0  0  0  0  0  0  0  0  0  0  0  0
  -21.7866  -42.5116   -9.4234 C   0  0  0  0  0  0  0  0  0  0  0  0
  -20.5136  -42.2952   -8.8965 C   0  0  0  0  0  0  0  0  0  0  0  0
  -19.4890  -41.8966   -9.7359 C   0  0  0  0  0  0  0  0  0  0  0  0
  -19.7720  -41.7206  -11.1242 C   0  0  0  0  0  0  0  0  0  0  0  0
  -18.0754  -41.5930   -9.4986 C   0  0  0  0  0  0  0  0  0  0  0  0
  -17.1721  -42.1237  -10.3090 O   0  0  0  0  0  0  0  0  0  0  0  0
  -17.4148  -40.7941   -8.5203 N   0  0  0  0  0  0  0  0  0  0  0  0
  -17.9315  -39.5304   -8.0036 C   0  0  1  0  0  0  0  0  0  0  0  0
  -18.8689  -39.6753   -6.8888 C   0  0  0  0  0  0  0  0  0  0  0  0
  -18.5221  -39.2304   -5.5150 C   0  0  2  0  0  0  0  0  0  0  0  0
  -17.2041  -39.7149   -4.9922 C   0  0  0  0  0  0  0  0  0  0  0  0
  -19.5682  -39.7037   -4.5278 C   0  0  0  0  0  0  0  0  0  0  0  0
  -20.9769  -39.5725   -4.9547 C   0  0  0  0  0  0  0  0  0  0  0  0
  -21.4589  -40.8601   -5.5452 C   0  0  0  0  0  0  0  0  0  0  0  0
  -22.7809  -41.3523   -5.0690 C   0  0  0  0  0  0  0  0  0  0  0  0
  -23.4288  -42.0444   -6.2473 C   0  0  0  0  0  0  0  0  0  0  0  0
  -23.0273  -43.4687   -6.4369 C   0  0  0  0  0  0  0  0  0  0  0  0
  -23.3462  -43.9068   -7.8462 C   0  0  0  0  0  0  0  0  0  0  0  0
  -23.0164  -42.9078   -8.8303 N   0  0  0  0  0  0  0  0  0  0  0  0
  -16.8146  -38.5286   -7.8033 C   0  0  2  0  0  0  0  0  0  0  0  0
  -17.0232  -37.8635   -6.6349 O   0  0  0  0  0  0  0  0  0  0  0  0
  -16.8444  -37.5523   -8.9529 C   0  0  0  0  0  0  0  0  0  0  0  0
  -17.5345  -37.9398  -10.1138 N   0  0  0  0  0  0  0  0  0  0  0  0
  -16.7028  -38.4616  -11.1476 C   0  0  0  0  0  0  0  0  0  0  0  0
  -15.4125  -37.6817  -11.1116 C   0  0  0  0  0  0  0  0  0  0  0  0
  -14.2356  -38.2880  -10.7419 C   0  0  0  0  0  0  0  0  0  0  0  0
  -13.0550  -37.5839  -10.7118 C   0  0  0  0  0  0  0  0  0  0  0  0
  -13.0579  -36.2610  -11.0557 C   0  0  0  0  0  0  0  0  0  0  0  0
  -14.2518  -35.6394  -11.4323 C   0  0  0  0  0  0  0  0  0  0  0  0
  -15.4113  -36.3586  -11.4547 C   0  0  0  0  0  0  0  0  0  0  0  0
  -14.2217  -34.2868  -11.7785 O   0  0  0  0  0  0  0  0  0  0  0  0
  -14.2736  -33.8751  -13.1322 C   0  0  0  0  0  0  0  0  0  0  0  0
  -11.8854  -38.2049  -10.3395 O   0  0  0  0  0  0  0  0  0  0  0  0
  -11.7604  -38.8260   -9.0887 C   0  0  0  0  0  0  0  0  0  0  0  0
  1  2  1  0
  2  3  1  0
  3  4  1  0
  4  5  2  0
  5  6  1  0
  6  7  2  0
  7  8  1  0
  8  9  2  0
  8 10  1  0
 10 11  2  0
 10 12  1  0
 12 13  1  0
 13 14  1  1
 14 15  1  0
 15 16  1  1
 15 17  1  0
 17 18  1  0
 18 19  1  0
 19 20  1  0
 20 21  1  0
 21 22  1  0
 22 23  1  0
 23 24  1  0
 13 25  1  0
 25 26  1  1
 25 27  1  0
 27 28  1  0
 28 29  1  0
 29 30  1  0
 30 31  2  0
 31 32  1  0
 32 33  2  0
 33 34  1  0
 34 35  2  0
 34 36  1  0
 36 37  1  0
 32 38  1  0
 38 39  1  0
  9  4  1  0
 24  6  1  0
 35 30  1  0
M  END
$$$$
