
     RDKit          3D

 39 41  0  0  0  0  0  0  0  0999 V2000
  -21.2451  -41.1981   -1.7553 C   0  0  0  0  0  0  0  0  0  0  0  0
  -22.0771  -42.0774   -2.4287 O   0  0  0  0  0  0  0  0  0  0  0  0
  -22.6395  -41.4637   -3.5099 C   0  0  0  0  0  0  0  0  0  0  0  0
  -22.0784  -41.9847   -4.7847 C   0  0  0  0  0  0  0  0  0  0  0  0
  -22.2510  -43.2798   -5.1884 C   0  0  0  0  0  0  0  0  0  0  0  0
  -21.7372  -43.8068   -6.4037 C   0  0  0  0  0  0  0  0  0  0  0  0
  -21.0114  -42.9578   -7.2389 C   0  0  0  0  0  0  0  0  0  0  0  0
  -20.8143  -41.6409   -6.8645 C   0  0  0  0  0  0  0  0  0  0  0  0
  -21.3666  -41.1922   -5.6268 C   0  0  0  0  0  0  0  0  0  0  0  0
  -20.1135  -40.5238   -7.5031 C   0  0  0  0  0  0  0  0  0  0  0  0
  -20.7281  -39.3527   -7.5748 O   0  0  0  0  0  0  0  0  0  0  0  0
  -18.8252  -40.4139   -8.1028 N   0  0  0  0  0  0  0  0  0  0  0  0
  -17.6263  -41.0831   -7.6069 C   0  0  1  0  0  0  0  0  0  0  0  0
  -17.4592  -42.4539   -8.0921 C   0  0  0  0  0  0  0  0  0  0  0  0
  -16.3664  -42.8226   -9.0277 C   0  0  2  0  0  0  0  0  0  0  0  0
  -16.2327  -41.9524  -10.2401 C   0  0  0  0  0  0  0  0  0  0  0  0
  -16.5648  -44.2337   -9.5401 C   0  0  0  0  0  0  0  0  0  0  0  0
  -16.9786  -45.2402   -8.5403 C   0  0  0  0  0  0  0  0  0  0  0  0
  -18.4661  -45.4015   -8.5561 C   0  0  0  0  0  0  0  0  0  0  0  0
  -18.9798  -46.7987   -8.5805 C   0  0  0  0  0  0  0  0  0  0  0  0
  -20.2654  -46.7952   -7.7841 C   0  0  0  0  0  0  0  0  0  0  0  0
  -21.4789  -46.3929   -8.5531 C   0  0  0  0  0  0  0  0  0  0  0  0
  -22.5756  -45.9822   -7.5999 C   0  0  0  0  0  0  0  0  0  0  0  0
  -22.0933  -45.1793   -6.5054 N   0  0  0  0  0  0  0  0  0  0  0  0
  -16.4138  -40.1853   -7.7290 C   0  0  2  0  0  0  0  0  0  0  0  0
  -15.6860  -40.2691   -6.5825 O   0  0  0  0  0  0  0  0  0  0  0  0
  -16.8933  -38.7680   -7.9208 C   0  0  0  0  0  0  0  0  0  0  0  0
  -15.9181  -37.7745   -8.1106 N   0  0  0  0  0  0  0  0  0  0  0  0
  -15.9429  -37.1624   -9.3980 C   0  0  0  0  0  0  0  0  0  0  0  0
  -17.3451  -37.3141   -9.9317 C   0  0  0  0  0  0  0  0  0  0  0  0
  -18.3910  -36.6267   -9.3633 C   0  0  0  0  0  0  0  0  0  0  0  0
  -19.6710  -36.7567   -9.8482 C   0  0  0  0  0  0  0  0  0  0  0  0
  -19.9009  -37.5838  -10.9120 C   0  0  0  0  0  0  0  0  0  0  0  0
  -18.8411  -38.2852  -11.4938 C   0  0  0  0  0  0  0  0  0  0  0  0
  -17.5791  -38.1402  -10.9953 C   0  0  0  0  0  0  0  0  0  0  0  0
  -19.1084  -39.1219  -12.5795 O   0  0  0  0  0  0  0  0  0  0  0  0
  -18.4146  -40.3440  -12.7516 C   0  0  0  0  0  0  0  0  0  0  0  0
  -20.7071  -36.0621   -9.2685 O   0  0  0  0  0  0  0  0  0  0  0  0
  -22.0420  -36.3576   -9.5796 C   0  0  0  0  0  0  0  0  0  0  0  0
  1  2  1  0
  2  3  1  0
  3  4  1  0
  4  5  2  0
  5  6  1  0
  6  7  2  0
  7  8  1  0
  8  9  2  0
  8 10  1  0
 10 11  2  0
 10 12  1  0
 12 13  1  0
 13 14  1  6
 14 15  1  0
 15 16  1  6
 15 17  1  0
 17 18  1  0
 18 19  1  0
 19 20  1  0
 20 21  1  0
 21 22  1  0
 22 23  1  0
 23 24  1  0
 13 25  1  0
 25 26  1  1
 25 27  1  0
 27 28  1  0
 28 29  1  0
 29 30  1  0
 30 31  2  0
 31 32  1  0
 32 33  2  0
 33 34  1  0
 34 35  2  0
 34 36  1  0
 36 37  1  0
 32 38  1  0
 38 39  1  0
  9  4  1  0
 24  6  1  0
 35 30  1  0
M  END
$$$$
