
     RDKit          3D

 43 47  0  0  0  0  0  0  0  0999 V2000
  -21.1688  -37.4650   -9.0203 C   0  0  0  0  0  0  0  0  0  0  0  0
  -20.7609  -38.4857   -7.9889 C   0  0  2  0  0  0  0  0  0  0  0  0
  -21.2382  -38.0602   -6.6359 C   0  0  0  0  0  0  0  0  0  0  0  0
  -22.7349  -38.2536   -6.5425 C   0  0  0  0  0  0  0  0  0  0  0  0
  -23.2246  -38.6371   -5.1846 C   0  0  0  0  0  0  0  0  0  0  0  0
  -22.9525  -40.1017   -4.9164 C   0  0  0  0  0  0  0  0  0  0  0  0
  -23.9232  -41.0221   -5.6039 C   0  0  0  0  0  0  0  0  0  0  0  0
  -23.1780  -42.2662   -6.0026 C   0  0  0  0  0  0  0  0  0  0  0  0
  -23.0171  -43.1601   -4.8148 C   0  0  0  0  0  0  0  0  0  0  0  0
  -21.7713  -43.8278   -4.7980 O   0  0  0  0  0  0  0  0  0  0  0  0
  -20.6506  -43.7684   -5.6124 C   0  0  0  0  0  0  0  0  0  0  0  0
  -20.4147  -45.0104   -6.2289 C   0  0  0  0  0  0  0  0  0  0  0  0
  -19.3734  -45.2296   -7.0867 C   0  0  0  0  0  0  0  0  0  0  0  0
  -18.5636  -44.1443   -7.3087 C   0  0  0  0  0  0  0  0  0  0  0  0
  -18.7621  -42.8756   -6.7104 C   0  0  0  0  0  0  0  0  0  0  0  0
  -19.8133  -42.6894   -5.8541 C   0  0  0  0  0  0  0  0  0  0  0  0
  -17.7118  -41.9530   -7.1891 C   0  0  0  0  0  0  0  0  0  0  0  0
  -16.4749  -42.3971   -7.2849 O   0  0  0  0  0  0  0  0  0  0  0  0
  -17.7612  -40.6062   -7.5935 N   0  0  0  0  0  0  0  0  0  0  0  0
  -18.8200  -40.0021   -8.3777 C   0  0  1  0  0  0  0  0  0  0  0  0
  -19.2397  -38.6450   -7.9254 C   0  0  0  0  0  0  0  0  0  0  0  0
  -18.5325  -40.0447   -9.8748 C   0  0  2  0  0  0  0  0  0  0  0  0
  -18.8707  -41.3416  -10.3053 O   0  0  0  0  0  0  0  0  0  0  0  0
  -17.0806  -39.8724  -10.1606 C   0  0  0  0  0  0  0  0  0  0  0  0
  -16.4247  -40.9799  -10.7064 N   0  0  0  0  0  0  0  0  0  0  0  0
  -15.0521  -40.9197  -11.0444 C   0  0  0  0  0  0  0  0  0  0  0  0
  -14.4920  -40.6169  -12.3587 C   0  0  0  0  0  0  0  0  0  0  0  0
  -14.5894  -42.0744  -11.9924 C   0  0  0  0  0  0  0  0  0  0  0  0
  -14.0755  -40.7657   -9.8933 C   0  0  0  0  0  0  0  0  0  0  0  0
  -12.7690  -41.1576   -9.9628 C   0  0  0  0  0  0  0  0  0  0  0  0
  -11.8922  -41.0090   -8.8920 C   0  0  0  0  0  0  0  0  0  0  0  0
  -12.3728  -40.4485   -7.7344 C   0  0  0  0  0  0  0  0  0  0  0  0
  -13.6902  -40.0618   -7.6852 C   0  0  0  0  0  0  0  0  0  0  0  0
  -14.4988  -40.2261   -8.7483 N   0  0  0  0  0  0  0  0  0  0  0  0
  -10.4766  -41.4245   -8.9763 C   0  0  0  0  0  0  0  0  0  0  0  0
   -9.5894  -40.2183   -9.1467 C   0  0  0  0  0  0  0  0  0  0  0  0
  -10.2644  -42.4299  -10.0964 C   0  0  0  0  0  0  0  0  0  0  0  0
  -10.0761  -42.1283   -7.6995 C   0  0  0  0  0  0  0  0  0  0  0  0
  -19.1413  -46.5195   -7.7259 C   0  0  0  0  0  0  0  0  0  0  0  0
  -18.9645  -47.6623   -7.0507 N   0  0  0  0  0  0  0  0  0  0  0  0
  -18.7835  -48.6040   -7.9929 C   0  0  0  0  0  0  0  0  0  0  0  0
  -18.8606  -47.9756   -9.2271 C   0  0  0  0  0  0  0  0  0  0  0  0
  -19.0816  -46.6948   -9.0184 O   0  0  0  0  0  0  0  0  0  0  0  0
  2  1  1  6
  2  3  1  0
  3  4  1  0
  4  5  1  0
  5  6  1  0
  6  7  1  0
  7  8  1  0
  8  9  1  0
  9 10  1  0
 10 11  1  0
 11 12  1  0
 12 13  2  0
 13 14  1  0
 14 15  2  0
 15 16  1  0
 15 17  1  0
 17 18  2  0
 17 19  1  0
 19 20  1  0
 20 21  1  1
 20 22  1  0
 22 23  1  1
 22 24  1  0
 24 25  1  0
 25 26  1  0
 26 27  1  0
 27 28  1  0
 26 29  1  0
 29 30  2  0
 30 31  1  0
 31 32  2  0
 32 33  1  0
 33 34  2  0
 31 35  1  0
 35 36  1  0
 35 37  1  0
 35 38  1  0
 13 39  1  0
 39 40  2  0
 40 41  1  0
 41 42  2  0
 42 43  1  0
 16 11  2  0
 21  2  1  0
 28 26  1  0
 34 29  1  0
 43 39  1  0
M  END
$$$$
