
     RDKit          3D

 43 47  0  0  0  0  0  0  0  0999 V2000
  -18.3191  -39.2267   -3.8084 C   0  0  0  0  0  0  0  0  0  0  0  0
  -18.6847  -40.0499   -5.0169 C   0  0  2  0  0  0  0  0  0  0  0  0
  -19.3318  -41.3281   -4.5845 C   0  0  0  0  0  0  0  0  0  0  0  0
  -20.7329  -41.0453   -4.0911 C   0  0  0  0  0  0  0  0  0  0  0  0
  -21.7171  -42.1337   -4.3693 C   0  0  0  0  0  0  0  0  0  0  0  0
  -22.1503  -42.0996   -5.8192 C   0  0  0  0  0  0  0  0  0  0  0  0
  -23.1544  -41.0194   -6.1142 C   0  0  0  0  0  0  0  0  0  0  0  0
  -22.8899  -40.5089   -7.5041 C   0  0  0  0  0  0  0  0  0  0  0  0
  -23.4652  -41.4566   -8.5073 C   0  0  0  0  0  0  0  0  0  0  0  0
  -22.6603  -41.5851   -9.6622 O   0  0  0  0  0  0  0  0  0  0  0  0
  -21.4227  -41.0717  -10.0194 C   0  0  0  0  0  0  0  0  0  0  0  0
  -21.5330  -40.2448  -11.1518 C   0  0  0  0  0  0  0  0  0  0  0  0
  -20.4631  -39.6070  -11.7146 C   0  0  0  0  0  0  0  0  0  0  0  0
  -19.2599  -39.8302  -11.0940 C   0  0  0  0  0  0  0  0  0  0  0  0
  -19.1010  -40.6543   -9.9527 C   0  0  0  0  0  0  0  0  0  0  0  0
  -20.1923  -41.2807   -9.4144 C   0  0  0  0  0  0  0  0  0  0  0  0
  -17.6781  -40.6482   -9.5542 C   0  0  0  0  0  0  0  0  0  0  0  0
  -16.7574  -40.7210  -10.4940 O   0  0  0  0  0  0  0  0  0  0  0  0
  -17.0588  -40.5738   -8.2929 N   0  0  0  0  0  0  0  0  0  0  0  0
  -17.4978  -39.7443   -7.1883 C   0  0  1  0  0  0  0  0  0  0  0  0
  -17.4512  -40.4030   -5.8518 C   0  0  0  0  0  0  0  0  0  0  0  0
  -16.8179  -38.3791   -7.1794 C   0  0  2  0  0  0  0  0  0  0  0  0
  -17.8341  -37.4303   -7.4003 O   0  0  0  0  0  0  0  0  0  0  0  0
  -15.8569  -38.2365   -8.3087 C   0  0  0  0  0  0  0  0  0  0  0  0
  -15.0619  -39.3527   -8.5855 N   0  0  0  0  0  0  0  0  0  0  0  0
  -13.8811  -39.2328   -9.3557 C   0  0  0  0  0  0  0  0  0  0  0  0
  -12.8924  -40.2791   -9.6016 C   0  0  0  0  0  0  0  0  0  0  0  0
  -12.5698  -39.2977   -8.5058 C   0  0  0  0  0  0  0  0  0  0  0  0
  -13.8182  -38.0671  -10.3252 C   0  0  0  0  0  0  0  0  0  0  0  0
  -14.5946  -37.9830  -11.4457 C   0  0  0  0  0  0  0  0  0  0  0  0
  -14.5169  -36.9046  -12.3225 C   0  0  0  0  0  0  0  0  0  0  0  0
  -13.6247  -35.9008  -12.0371 C   0  0  0  0  0  0  0  0  0  0  0  0
  -12.8528  -36.0053  -10.9053 C   0  0  0  0  0  0  0  0  0  0  0  0
  -12.9652  -37.0685  -10.0880 N   0  0  0  0  0  0  0  0  0  0  0  0
  -15.3672  -36.8132  -13.5277 C   0  0  0  0  0  0  0  0  0  0  0  0
  -15.7342  -35.3768  -13.7979 C   0  0  0  0  0  0  0  0  0  0  0  0
  -16.6053  -37.6849  -13.3945 C   0  0  0  0  0  0  0  0  0  0  0  0
  -14.6100  -37.3402  -14.7256 C   0  0  0  0  0  0  0  0  0  0  0  0
  -20.5891  -38.7465  -12.8850 C   0  0  0  0  0  0  0  0  0  0  0  0
  -19.5626  -38.4174  -13.6795 N   0  0  0  0  0  0  0  0  0  0  0  0
  -20.0904  -37.6227  -14.6266 C   0  0  0  0  0  0  0  0  0  0  0  0
  -21.4460  -37.5022  -14.3582 C   0  0  0  0  0  0  0  0  0  0  0  0
  -21.7115  -38.2084  -13.2795 O   0  0  0  0  0  0  0  0  0  0  0  0
  2  1  1  1
  2  3  1  0
  3  4  1  0
  4  5  1  0
  5  6  1  0
  6  7  1  0
  7  8  1  0
  8  9  1  0
  9 10  1  0
 10 11  1  0
 11 12  1  0
 12 13  2  0
 13 14  1  0
 14 15  2  0
 15 16  1  0
 15 17  1  0
 17 18  2  0
 17 19  1  0
 19 20  1  0
 20 21  1  1
 20 22  1  0
 22 23  1  6
 22 24  1  0
 24 25  1  0
 25 26  1  0
 26 27  1  0
 27 28  1  0
 26 29  1  0
 29 30  2  0
 30 31  1  0
 31 32  2  0
 32 33  1  0
 33 34  2  0
 31 35  1  0
 35 36  1  0
 35 37  1  0
 35 38  1  0
 13 39  1  0
 39 40  2  0
 40 41  1  0
 41 42  2  0
 42 43  1  0
 16 11  2  0
 21  2  1  0
 28 26  1  0
 34 29  1  0
 43 39  1  0
M  END
$$$$
