
     RDKit          3D

 43 47  0  0  0  0  0  0  0  0999 V2000
  -12.7463  -42.5484   -8.3080 C   0  0  0  0  0  0  0  0  0  0  0  0
  -14.0775  -42.9582   -8.8840 C   0  0  2  0  0  0  0  0  0  0  0  0
  -13.9025  -44.1520   -9.7693 C   0  0  0  0  0  0  0  0  0  0  0  0
  -13.6534  -45.3793   -8.9219 C   0  0  0  0  0  0  0  0  0  0  0  0
  -14.2170  -46.6430   -9.4843 C   0  0  0  0  0  0  0  0  0  0  0  0
  -15.7116  -46.7064   -9.2533 C   0  0  0  0  0  0  0  0  0  0  0  0
  -16.0797  -47.0854   -7.8452 C   0  0  0  0  0  0  0  0  0  0  0  0
  -17.3382  -46.3465   -7.4811 C   0  0  0  0  0  0  0  0  0  0  0  0
  -18.5202  -47.0369   -8.0826 C   0  0  0  0  0  0  0  0  0  0  0  0
  -19.5117  -46.1339   -8.5294 O   0  0  0  0  0  0  0  0  0  0  0  0
  -19.5792  -44.7501   -8.5883 C   0  0  0  0  0  0  0  0  0  0  0  0
  -20.6244  -44.2662   -7.7811 C   0  0  0  0  0  0  0  0  0  0  0  0
  -20.9116  -42.9359   -7.6539 C   0  0  0  0  0  0  0  0  0  0  0  0
  -20.1029  -42.0941   -8.3751 C   0  0  0  0  0  0  0  0  0  0  0  0
  -19.0396  -42.5358   -9.2005 C   0  0  0  0  0  0  0  0  0  0  0  0
  -18.7792  -43.8750   -9.3081 C   0  0  0  0  0  0  0  0  0  0  0  0
  -18.3842  -41.3577   -9.8054 C   0  0  0  0  0  0  0  0  0  0  0  0
  -19.1384  -40.3744  -10.2534 O   0  0  0  0  0  0  0  0  0  0  0  0
  -17.0285  -41.0446  -10.0155 N   0  0  0  0  0  0  0  0  0  0  0  0
  -15.9483  -41.3226   -9.0898 C   0  0  1  0  0  0  0  0  0  0  0  0
  -14.6987  -41.8363   -9.7200 C   0  0  0  0  0  0  0  0  0  0  0  0
  -15.6771  -40.1569   -8.1446 C   0  0  2  0  0  0  0  0  0  0  0  0
  -15.7672  -40.6773   -6.8397 O   0  0  0  0  0  0  0  0  0  0  0  0
  -16.7282  -39.1066   -8.2517 C   0  0  0  0  0  0  0  0  0  0  0  0
  -16.3640  -37.8254   -7.8270 N   0  0  0  0  0  0  0  0  0  0  0  0
  -17.1557  -36.6984   -8.1508 C   0  0  0  0  0  0  0  0  0  0  0  0
  -16.7672  -35.2963   -8.0237 C   0  0  0  0  0  0  0  0  0  0  0  0
  -17.5981  -35.8647   -6.9037 C   0  0  0  0  0  0  0  0  0  0  0  0
  -18.3427  -36.9423   -9.0641 C   0  0  0  0  0  0  0  0  0  0  0  0
  -18.5942  -36.1959  -10.1800 C   0  0  0  0  0  0  0  0  0  0  0  0
  -19.6920  -36.4365  -11.0013 C   0  0  0  0  0  0  0  0  0  0  0  0
  -20.5407  -37.4618  -10.6641 C   0  0  0  0  0  0  0  0  0  0  0  0
  -20.2700  -38.1998   -9.5373 C   0  0  0  0  0  0  0  0  0  0  0  0
  -19.1946  -37.9282   -8.7752 N   0  0  0  0  0  0  0  0  0  0  0  0
  -19.9533  -35.6330  -12.2136 C   0  0  0  0  0  0  0  0  0  0  0  0
  -20.1963  -36.5370  -13.3947 C   0  0  0  0  0  0  0  0  0  0  0  0
  -18.8160  -34.6618  -12.4853 C   0  0  0  0  0  0  0  0  0  0  0  0
  -21.1880  -34.7856  -12.0060 C   0  0  0  0  0  0  0  0  0  0  0  0
  -21.9935  -42.4439   -6.8092 C   0  0  0  0  0  0  0  0  0  0  0  0
  -23.0921  -43.1531   -6.5203 N   0  0  0  0  0  0  0  0  0  0  0  0
  -23.8287  -42.3551   -5.7279 C   0  0  0  0  0  0  0  0  0  0  0  0
  -23.1275  -41.1691   -5.5675 C   0  0  0  0  0  0  0  0  0  0  0  0
  -22.0049  -41.2648   -6.2483 O   0  0  0  0  0  0  0  0  0  0  0  0
  2  1  1  6
  2  3  1  0
  3  4  1  0
  4  5  1  0
  5  6  1  0
  6  7  1  0
  7  8  1  0
  8  9  1  0
  9 10  1  0
 10 11  1  0
 11 12  1  0
 12 13  2  0
 13 14  1  0
 14 15  2  0
 15 16  1  0
 15 17  1  0
 17 18  2  0
 17 19  1  0
 19 20  1  0
 20 21  1  6
 20 22  1  0
 22 23  1  1
 22 24  1  0
 24 25  1  0
 25 26  1  0
 26 27  1  0
 27 28  1  0
 26 29  1  0
 29 30  2  0
 30 31  1  0
 31 32  2  0
 32 33  1  0
 33 34  2  0
 31 35  1  0
 35 36  1  0
 35 37  1  0
 35 38  1  0
 13 39  1  0
 39 40  2  0
 40 41  1  0
 41 42  2  0
 42 43  1  0
 16 11  2  0
 21  2  1  0
 28 26  1  0
 34 29  1  0
 43 39  1  0
M  END
$$$$
