
     RDKit          3D

 43 47  0  0  0  0  0  0  0  0999 V2000
  -19.3589  -40.0072   -3.7978 C   0  0  0  0  0  0  0  0  0  0  0  0
  -19.6169  -40.7665   -5.0740 C   0  0  2  0  0  0  0  0  0  0  0  0
  -20.3164  -42.0535   -4.7674 C   0  0  0  0  0  0  0  0  0  0  0  0
  -21.7548  -41.7724   -4.3954 C   0  0  0  0  0  0  0  0  0  0  0  0
  -22.7201  -42.8309   -4.8180 C   0  0  0  0  0  0  0  0  0  0  0  0
  -23.0130  -42.7214   -6.2990 C   0  0  0  0  0  0  0  0  0  0  0  0
  -23.9724  -41.6128   -6.6346 C   0  0  0  0  0  0  0  0  0  0  0  0
  -23.5712  -41.0413   -7.9668 C   0  0  0  0  0  0  0  0  0  0  0  0
  -24.0590  -41.9314   -9.0649 C   0  0  0  0  0  0  0  0  0  0  0  0
  -23.1493  -42.0176  -10.1433 O   0  0  0  0  0  0  0  0  0  0  0  0
  -21.8777  -41.5073  -10.3567 C   0  0  0  0  0  0  0  0  0  0  0  0
  -21.8706  -40.6261  -11.4529 C   0  0  0  0  0  0  0  0  0  0  0  0
  -20.7450  -39.9792  -11.8804 C   0  0  0  0  0  0  0  0  0  0  0  0
  -19.6088  -40.2503  -11.1604 C   0  0  0  0  0  0  0  0  0  0  0  0
  -19.5685  -41.1300  -10.0506 C   0  0  0  0  0  0  0  0  0  0  0  0
  -20.7128  -41.7640   -9.6490 C   0  0  0  0  0  0  0  0  0  0  0  0
  -18.1899  -41.1649   -9.5196 C   0  0  0  0  0  0  0  0  0  0  0  0
  -17.1848  -41.2076  -10.3706 O   0  0  0  0  0  0  0  0  0  0  0  0
  -17.6926  -41.1600   -8.2033 N   0  0  0  0  0  0  0  0  0  0  0  0
  -18.2255  -40.3769   -7.1061 C   0  0  1  0  0  0  0  0  0  0  0  0
  -18.3135  -41.0989   -5.8048 C   0  0  0  0  0  0  0  0  0  0  0  0
  -17.5345  -39.0246   -6.9666 C   0  0  2  0  0  0  0  0  0  0  0  0
  -18.5554  -38.0556   -6.9853 O   0  0  0  0  0  0  0  0  0  0  0  0
  -16.6568  -38.7329   -8.1345 C   0  0  0  0  0  0  0  0  0  0  0  0
  -15.6767  -39.6877   -8.4218 N   0  0  0  0  0  0  0  0  0  0  0  0
  -14.5620  -39.3661   -9.2317 C   0  0  0  0  0  0  0  0  0  0  0  0
  -13.4048  -40.2166   -9.4971 C   0  0  0  0  0  0  0  0  0  0  0  0
  -13.2364  -39.1730   -8.4243 C   0  0  0  0  0  0  0  0  0  0  0  0
  -14.7446  -38.2264  -10.2166 C   0  0  0  0  0  0  0  0  0  0  0  0
  -13.7133  -37.6735  -10.9210 C   0  0  0  0  0  0  0  0  0  0  0  0
  -13.9049  -36.6258  -11.8172 C   0  0  0  0  0  0  0  0  0  0  0  0
  -15.1792  -36.1434  -11.9868 C   0  0  0  0  0  0  0  0  0  0  0  0
  -16.2021  -36.7132  -11.2681 C   0  0  0  0  0  0  0  0  0  0  0  0
  -15.9659  -37.7254  -10.4133 N   0  0  0  0  0  0  0  0  0  0  0  0
  -12.7872  -36.0386  -12.5851 C   0  0  0  0  0  0  0  0  0  0  0  0
  -11.4742  -36.3529  -11.9157 C   0  0  0  0  0  0  0  0  0  0  0  0
  -12.9714  -34.5407  -12.7660 C   0  0  0  0  0  0  0  0  0  0  0  0
  -12.7606  -36.6290  -13.9768 C   0  0  0  0  0  0  0  0  0  0  0  0
  -20.7496  -39.0624  -13.0142 C   0  0  0  0  0  0  0  0  0  0  0  0
  -21.7938  -38.2907  -13.3418 N   0  0  0  0  0  0  0  0  0  0  0  0
  -21.3989  -37.6061  -14.4292 C   0  0  0  0  0  0  0  0  0  0  0  0
  -20.1017  -38.0022  -14.7198 C   0  0  0  0  0  0  0  0  0  0  0  0
  -19.7400  -38.8984  -13.8259 O   0  0  0  0  0  0  0  0  0  0  0  0
  2  1  1  1
  2  3  1  0
  3  4  1  0
  4  5  1  0
  5  6  1  0
  6  7  1  0
  7  8  1  0
  8  9  1  0
  9 10  1  0
 10 11  1  0
 11 12  1  0
 12 13  2  0
 13 14  1  0
 14 15  2  0
 15 16  1  0
 15 17  1  0
 17 18  2  0
 17 19  1  0
 19 20  1  0
 20 21  1  1
 20 22  1  0
 22 23  1  6
 22 24  1  0
 24 25  1  0
 25 26  1  0
 26 27  1  0
 27 28  1  0
 26 29  1  0
 29 30  2  0
 30 31  1  0
 31 32  2  0
 32 33  1  0
 33 34  2  0
 31 35  1  0
 35 36  1  0
 35 37  1  0
 35 38  1  0
 13 39  1  0
 39 40  2  0
 40 41  1  0
 41 42  2  0
 42 43  1  0
 16 11  2  0
 21  2  1  0
 28 26  1  0
 34 29  1  0
 43 39  1  0
M  END
$$$$
