
     RDKit          3D

 43 47  0  0  0  0  0  0  0  0999 V2000
  -20.1129  -37.3237  -10.0261 C   0  0  0  0  0  0  0  0  0  0  0  0
  -20.2481  -38.2056   -8.8113 C   0  0  2  0  0  0  0  0  0  0  0  0
  -21.2318  -37.6071   -7.8554 C   0  0  0  0  0  0  0  0  0  0  0  0
  -22.6332  -37.7787   -8.3968 C   0  0  0  0  0  0  0  0  0  0  0  0
  -23.6791  -37.9817   -7.3500 C   0  0  0  0  0  0  0  0  0  0  0  0
  -23.6371  -39.4012   -6.8262 C   0  0  0  0  0  0  0  0  0  0  0  0
  -24.2739  -40.3969   -7.7564 C   0  0  0  0  0  0  0  0  0  0  0  0
  -23.5065  -41.6861   -7.6498 C   0  0  0  0  0  0  0  0  0  0  0  0
  -23.9238  -42.4208   -6.4161 C   0  0  0  0  0  0  0  0  0  0  0  0
  -22.8480  -43.0877   -5.7869 O   0  0  0  0  0  0  0  0  0  0  0  0
  -21.4852  -43.1396   -6.0379 C   0  0  0  0  0  0  0  0  0  0  0  0
  -21.0838  -44.4518   -6.3465 C   0  0  0  0  0  0  0  0  0  0  0  0
  -19.7909  -44.7851   -6.6390 C   0  0  0  0  0  0  0  0  0  0  0  0
  -18.9000  -43.7419   -6.6108 C   0  0  0  0  0  0  0  0  0  0  0  0
  -19.2584  -42.4057   -6.3053 C   0  0  0  0  0  0  0  0  0  0  0  0
  -20.5614  -42.1052   -6.0147 C   0  0  0  0  0  0  0  0  0  0  0  0
  -18.0506  -41.5581   -6.3844 C   0  0  0  0  0  0  0  0  0  0  0  0
  -16.9210  -42.0177   -5.8852 O   0  0  0  0  0  0  0  0  0  0  0  0
  -17.8405  -40.2742   -6.9205 N   0  0  0  0  0  0  0  0  0  0  0  0
  -18.4233  -39.7701   -8.1482 C   0  0  1  0  0  0  0  0  0  0  0  0
  -18.9132  -38.3638   -8.0790 C   0  0  0  0  0  0  0  0  0  0  0  0
  -17.5258  -40.0062   -9.3584 C   0  0  2  0  0  0  0  0  0  0  0  0
  -18.2378  -40.8655  -10.2165 O   0  0  0  0  0  0  0  0  0  0  0  0
  -16.2767  -40.7267   -8.9840 C   0  0  0  0  0  0  0  0  0  0  0  0
  -15.2710  -39.9519   -8.3984 N   0  0  0  0  0  0  0  0  0  0  0  0
  -13.9580  -39.9440   -8.9255 C   0  0  0  0  0  0  0  0  0  0  0  0
  -12.9963  -41.0423   -8.8824 C   0  0  0  0  0  0  0  0  0  0  0  0
  -12.8430  -39.9768   -7.8292 C   0  0  0  0  0  0  0  0  0  0  0  0
  -13.6463  -38.8747   -9.9559 C   0  0  0  0  0  0  0  0  0  0  0  0
  -14.3440  -37.7047  -10.0547 C   0  0  0  0  0  0  0  0  0  0  0  0
  -14.0416  -36.7393  -11.0109 C   0  0  0  0  0  0  0  0  0  0  0  0
  -13.0048  -36.9874  -11.8762 C   0  0  0  0  0  0  0  0  0  0  0  0
  -12.3164  -38.1707  -11.7602 C   0  0  0  0  0  0  0  0  0  0  0  0
  -12.6469  -39.0729  -10.8179 N   0  0  0  0  0  0  0  0  0  0  0  0
  -14.7925  -35.4703  -11.1063 C   0  0  0  0  0  0  0  0  0  0  0  0
  -15.2842  -35.0528   -9.7443 C   0  0  0  0  0  0  0  0  0  0  0  0
  -15.9392  -35.5830  -12.0978 C   0  0  0  0  0  0  0  0  0  0  0  0
  -13.8864  -34.3815  -11.6350 C   0  0  0  0  0  0  0  0  0  0  0  0
  -19.3861  -46.1477   -6.9641 C   0  0  0  0  0  0  0  0  0  0  0  0
  -18.5330  -46.4545   -7.9497 N   0  0  0  0  0  0  0  0  0  0  0  0
  -18.4272  -47.7943   -7.9202 C   0  0  0  0  0  0  0  0  0  0  0  0
  -19.2400  -48.2516   -6.8935 C   0  0  0  0  0  0  0  0  0  0  0  0
  -19.8113  -47.2076   -6.3310 O   0  0  0  0  0  0  0  0  0  0  0  0
  2  1  1  6
  2  3  1  0
  3  4  1  0
  4  5  1  0
  5  6  1  0
  6  7  1  0
  7  8  1  0
  8  9  1  0
  9 10  1  0
 10 11  1  0
 11 12  1  0
 12 13  2  0
 13 14  1  0
 14 15  2  0
 15 16  1  0
 15 17  1  0
 17 18  2  0
 17 19  1  0
 19 20  1  0
 20 21  1  1
 20 22  1  0
 22 23  1  6
 22 24  1  0
 24 25  1  0
 25 26  1  0
 26 27  1  0
 27 28  1  0
 26 29  1  0
 29 30  2  0
 30 31  1  0
 31 32  2  0
 32 33  1  0
 33 34  2  0
 31 35  1  0
 35 36  1  0
 35 37  1  0
 35 38  1  0
 13 39  1  0
 39 40  2  0
 40 41  1  0
 41 42  2  0
 42 43  1  0
 16 11  2  0
 21  2  1  0
 28 26  1  0
 34 29  1  0
 43 39  1  0
M  END
$$$$
