
     RDKit          3D

 43 47  0  0  0  0  0  0  0  0999 V2000
  -19.8449  -37.2871   -6.3254 C   0  0  0  0  0  0  0  0  0  0  0  0
  -19.7163  -38.7578   -6.0218 C   0  0  2  0  0  0  0  0  0  0  0  0
  -20.6278  -39.1256   -4.8933 C   0  0  0  0  0  0  0  0  0  0  0  0
  -22.0591  -39.1360   -5.3809 C   0  0  0  0  0  0  0  0  0  0  0  0
  -22.9276  -40.1591   -4.7251 C   0  0  0  0  0  0  0  0  0  0  0  0
  -22.6536  -41.5333   -5.2975 C   0  0  0  0  0  0  0  0  0  0  0  0
  -23.2883  -41.7539   -6.6431 C   0  0  0  0  0  0  0  0  0  0  0  0
  -22.3701  -42.6307   -7.4496 C   0  0  0  0  0  0  0  0  0  0  0  0
  -22.5337  -44.0557   -7.0271 C   0  0  0  0  0  0  0  0  0  0  0  0
  -21.3148  -44.7712   -7.0342 O   0  0  0  0  0  0  0  0  0  0  0  0
  -20.0001  -44.4058   -7.2812 C   0  0  0  0  0  0  0  0  0  0  0  0
  -19.4943  -45.0881   -8.4024 C   0  0  0  0  0  0  0  0  0  0  0  0
  -18.2215  -44.9125   -8.8686 C   0  0  0  0  0  0  0  0  0  0  0  0
  -17.4609  -44.0158   -8.1613 C   0  0  0  0  0  0  0  0  0  0  0  0
  -17.9275  -43.3065   -7.0272 C   0  0  0  0  0  0  0  0  0  0  0  0
  -19.2068  -43.5065   -6.5843 C   0  0  0  0  0  0  0  0  0  0  0  0
  -16.8465  -42.4262   -6.5373 C   0  0  0  0  0  0  0  0  0  0  0  0
  -15.6156  -42.8953   -6.5015 O   0  0  0  0  0  0  0  0  0  0  0  0
  -16.8583  -41.0989   -6.0704 N   0  0  0  0  0  0  0  0  0  0  0  0
  -17.6519  -40.0198   -6.6244 C   0  0  1  0  0  0  0  0  0  0  0  0
  -18.2872  -39.1258   -5.6146 C   0  0  0  0  0  0  0  0  0  0  0  0
  -16.9005  -39.2345   -7.6942 C   0  0  2  0  0  0  0  0  0  0  0  0
  -17.8718  -38.7817   -8.6070 O   0  0  0  0  0  0  0  0  0  0  0  0
  -15.9726  -40.1073   -8.4665 C   0  0  0  0  0  0  0  0  0  0  0  0
  -14.6096  -39.8245   -8.3363 N   0  0  0  0  0  0  0  0  0  0  0  0
  -13.6837  -40.2318   -9.3256 C   0  0  0  0  0  0  0  0  0  0  0  0
  -13.0202  -41.5297   -9.4150 C   0  0  0  0  0  0  0  0  0  0  0  0
  -12.2282  -40.4154   -8.7833 C   0  0  0  0  0  0  0  0  0  0  0  0
  -13.6646  -39.4253  -10.6108 C   0  0  0  0  0  0  0  0  0  0  0  0
  -13.9896  -38.1000  -10.6676 C   0  0  0  0  0  0  0  0  0  0  0  0
  -13.9679  -37.3814  -11.8596 C   0  0  0  0  0  0  0  0  0  0  0  0
  -13.6060  -38.0421  -13.0075 C   0  0  0  0  0  0  0  0  0  0  0  0
  -13.2835  -39.3753  -12.9286 C   0  0  0  0  0  0  0  0  0  0  0  0
  -13.3192  -40.0263  -11.7513 N   0  0  0  0  0  0  0  0  0  0  0  0
  -14.3097  -35.9448  -11.9136 C   0  0  0  0  0  0  0  0  0  0  0  0
  -14.3044  -35.4618  -13.3411 C   0  0  0  0  0  0  0  0  0  0  0  0
  -13.3686  -35.1228  -11.0480 C   0  0  0  0  0  0  0  0  0  0  0  0
  -15.6952  -35.7299  -11.3479 C   0  0  0  0  0  0  0  0  0  0  0  0
  -17.7087  -45.6200  -10.0359 C   0  0  0  0  0  0  0  0  0  0  0  0
  -17.9374  -45.2351  -11.2980 N   0  0  0  0  0  0  0  0  0  0  0  0
  -17.3018  -46.1395  -12.0631 C   0  0  0  0  0  0  0  0  0  0  0  0
  -16.7014  -47.0544  -11.2109 C   0  0  0  0  0  0  0  0  0  0  0  0
  -16.9758  -46.6988   -9.9735 O   0  0  0  0  0  0  0  0  0  0  0  0
  2  1  1  1
  2  3  1  0
  3  4  1  0
  4  5  1  0
  5  6  1  0
  6  7  1  0
  7  8  1  0
  8  9  1  0
  9 10  1  0
 10 11  1  0
 11 12  1  0
 12 13  2  0
 13 14  1  0
 14 15  2  0
 15 16  1  0
 15 17  1  0
 17 18  2  0
 17 19  1  0
 19 20  1  0
 20 21  1  1
 20 22  1  0
 22 23  1  6
 22 24  1  0
 24 25  1  0
 25 26  1  0
 26 27  1  0
 27 28  1  0
 26 29  1  0
 29 30  2  0
 30 31  1  0
 31 32  2  0
 32 33  1  0
 33 34  2  0
 31 35  1  0
 35 36  1  0
 35 37  1  0
 35 38  1  0
 13 39  1  0
 39 40  2  0
 40 41  1  0
 41 42  2  0
 42 43  1  0
 16 11  2  0
 21  2  1  0
 28 26  1  0
 34 29  1  0
 43 39  1  0
M  END
$$$$
