
     RDKit          3D

 43 47  0  0  0  0  0  0  0  0999 V2000
  -17.9782  -38.6788   -4.3033 C   0  0  0  0  0  0  0  0  0  0  0  0
  -18.2820  -39.7787   -5.2882 C   0  0  2  0  0  0  0  0  0  0  0  0
  -18.6912  -41.0181   -4.5560 C   0  0  0  0  0  0  0  0  0  0  0  0
  -20.0865  -40.8415   -4.0010 C   0  0  0  0  0  0  0  0  0  0  0  0
  -20.9014  -42.0929   -3.9688 C   0  0  0  0  0  0  0  0  0  0  0  0
  -21.4222  -42.4227   -5.3512 C   0  0  0  0  0  0  0  0  0  0  0  0
  -22.6006  -41.5816   -5.7586 C   0  0  0  0  0  0  0  0  0  0  0  0
  -22.5055  -41.3386   -7.2399 C   0  0  0  0  0  0  0  0  0  0  0  0
  -22.9839  -42.5461   -7.9807 C   0  0  0  0  0  0  0  0  0  0  0  0
  -22.2408  -42.7956   -9.1570 O   0  0  0  0  0  0  0  0  0  0  0  0
  -21.1241  -42.1966   -9.7202 C   0  0  0  0  0  0  0  0  0  0  0  0
  -21.4327  -41.6473  -10.9776 C   0  0  0  0  0  0  0  0  0  0  0  0
  -20.5136  -40.9945  -11.7504 C   0  0  0  0  0  0  0  0  0  0  0  0
  -19.2546  -40.9101  -11.2114 C   0  0  0  0  0  0  0  0  0  0  0  0
  -18.8980  -41.4480   -9.9502 C   0  0  0  0  0  0  0  0  0  0  0  0
  -19.8415  -42.0979   -9.2017 C   0  0  0  0  0  0  0  0  0  0  0  0
  -17.4724  -41.1565   -9.6932 C   0  0  0  0  0  0  0  0  0  0  0  0
  -16.6108  -41.2910  -10.6811 O   0  0  0  0  0  0  0  0  0  0  0  0
  -16.7967  -40.7343   -8.5334 N   0  0  0  0  0  0  0  0  0  0  0  0
  -17.2932  -39.7647   -7.5772 C   0  0  1  0  0  0  0  0  0  0  0  0
  -17.0615  -40.1180   -6.1475 C   0  0  0  0  0  0  0  0  0  0  0  0
  -16.8386  -38.3448   -7.8984 C   0  0  2  0  0  0  0  0  0  0  0  0
  -17.9617  -37.6805   -8.4265 O   0  0  0  0  0  0  0  0  0  0  0  0
  -15.8002  -38.3288   -8.9665 C   0  0  0  0  0  0  0  0  0  0  0  0
  -14.9505  -39.4380   -9.0158 N   0  0  0  0  0  0  0  0  0  0  0  0
  -13.9625  -39.5542  -10.0220 C   0  0  0  0  0  0  0  0  0  0  0  0
  -13.4500  -40.7939  -10.5994 C   0  0  0  0  0  0  0  0  0  0  0  0
  -12.6178  -40.1683   -9.5112 C   0  0  0  0  0  0  0  0  0  0  0  0
  -13.6886  -38.3133  -10.8512 C   0  0  0  0  0  0  0  0  0  0  0  0
  -14.2254  -37.0899  -10.5672 C   0  0  0  0  0  0  0  0  0  0  0  0
  -13.9620  -35.9658  -11.3448 C   0  0  0  0  0  0  0  0  0  0  0  0
  -13.1333  -36.1088  -12.4302 C   0  0  0  0  0  0  0  0  0  0  0  0
  -12.6045  -37.3482  -12.6986 C   0  0  0  0  0  0  0  0  0  0  0  0
  -12.8890  -38.4052  -11.9158 N   0  0  0  0  0  0  0  0  0  0  0  0
  -14.5365  -34.6421  -11.0266 C   0  0  0  0  0  0  0  0  0  0  0  0
  -15.5854  -34.2719  -12.0434 C   0  0  0  0  0  0  0  0  0  0  0  0
  -13.4533  -33.5795  -10.9373 C   0  0  0  0  0  0  0  0  0  0  0  0
  -15.1937  -34.6866   -9.6657 C   0  0  0  0  0  0  0  0  0  0  0  0
  -20.8453  -40.4227  -13.0501 C   0  0  0  0  0  0  0  0  0  0  0  0
  -21.8493  -39.5588  -13.2476 N   0  0  0  0  0  0  0  0  0  0  0  0
  -21.8200  -39.2786  -14.5620 C   0  0  0  0  0  0  0  0  0  0  0  0
  -20.7745  -40.0020  -15.1167 C   0  0  0  0  0  0  0  0  0  0  0  0
  -20.2011  -40.6921  -14.1535 O   0  0  0  0  0  0  0  0  0  0  0  0
  2  1  1  1
  2  3  1  0
  3  4  1  0
  4  5  1  0
  5  6  1  0
  6  7  1  0
  7  8  1  0
  8  9  1  0
  9 10  1  0
 10 11  1  0
 11 12  1  0
 12 13  2  0
 13 14  1  0
 14 15  2  0
 15 16  1  0
 15 17  1  0
 17 18  2  0
 17 19  1  0
 19 20  1  0
 20 21  1  1
 20 22  1  0
 22 23  1  6
 22 24  1  0
 24 25  1  0
 25 26  1  0
 26 27  1  0
 27 28  1  0
 26 29  1  0
 29 30  2  0
 30 31  1  0
 31 32  2  0
 32 33  1  0
 33 34  2  0
 31 35  1  0
 35 36  1  0
 35 37  1  0
 35 38  1  0
 13 39  1  0
 39 40  2  0
 40 41  1  0
 41 42  2  0
 42 43  1  0
 16 11  2  0
 21  2  1  0
 28 26  1  0
 34 29  1  0
 43 39  1  0
M  END
$$$$
