
     RDKit          3D

 43 47  0  0  0  0  0  0  0  0999 V2000
  -13.6585  -39.0926   -9.0162 C   0  0  0  0  0  0  0  0  0  0  0  0
  -15.0119  -38.4409   -9.1404 C   0  0  2  0  0  0  0  0  0  0  0  0
  -14.8513  -36.9612   -9.2961 C   0  0  0  0  0  0  0  0  0  0  0  0
  -14.3401  -36.6502  -10.6848 C   0  0  0  0  0  0  0  0  0  0  0  0
  -14.8457  -35.3661  -11.2559 C   0  0  0  0  0  0  0  0  0  0  0  0
  -16.2691  -35.5268  -11.7448 C   0  0  0  0  0  0  0  0  0  0  0  0
  -16.3666  -36.2357  -13.0677 C   0  0  0  0  0  0  0  0  0  0  0  0
  -17.6240  -37.0611  -13.0588 C   0  0  0  0  0  0  0  0  0  0  0  0
  -18.8048  -36.1842  -13.3282 C   0  0  0  0  0  0  0  0  0  0  0  0
  -19.9461  -36.5605  -12.5841 O   0  0  0  0  0  0  0  0  0  0  0  0
  -20.1712  -37.5229  -11.6114 C   0  0  0  0  0  0  0  0  0  0  0  0
  -21.1215  -38.4628  -12.0491 C   0  0  0  0  0  0  0  0  0  0  0  0
  -21.5270  -39.5218  -11.2860 C   0  0  0  0  0  0  0  0  0  0  0  0
  -20.9384  -39.6076  -10.0495 C   0  0  0  0  0  0  0  0  0  0  0  0
  -19.9777  -38.6850   -9.5667 C   0  0  0  0  0  0  0  0  0  0  0  0
  -19.5945  -37.6340  -10.3549 C   0  0  0  0  0  0  0  0  0  0  0  0
  -19.5575  -39.0992   -8.2119 C   0  0  0  0  0  0  0  0  0  0  0  0
  -20.4749  -39.5252   -7.3673 O   0  0  0  0  0  0  0  0  0  0  0  0
  -18.2941  -39.1379   -7.5937 N   0  0  0  0  0  0  0  0  0  0  0  0
  -17.0573  -39.5411   -8.2331 C   0  0  1  0  0  0  0  0  0  0  0  0
  -15.8751  -38.6953   -7.9021 C   0  0  0  0  0  0  0  0  0  0  0  0
  -16.7674  -41.0277   -8.0545 C   0  0  2  0  0  0  0  0  0  0  0  0
  -16.0782  -41.4375   -9.2115 O   0  0  0  0  0  0  0  0  0  0  0  0
  -18.0217  -41.8301   -8.0062 C   0  0  0  0  0  0  0  0  0  0  0  0
  -18.7877  -41.7060   -6.8432 N   0  0  0  0  0  0  0  0  0  0  0  0
  -20.1088  -42.2091   -6.7842 C   0  0  0  0  0  0  0  0  0  0  0  0
  -20.7791  -43.0156   -7.8007 C   0  0  0  0  0  0  0  0  0  0  0  0
  -21.0801  -41.5400   -7.8114 C   0  0  0  0  0  0  0  0  0  0  0  0
  -20.7546  -42.2619   -5.4122 C   0  0  0  0  0  0  0  0  0  0  0  0
  -20.4095  -41.4246   -4.3899 C   0  0  0  0  0  0  0  0  0  0  0  0
  -21.0141  -41.4941   -3.1380 C   0  0  0  0  0  0  0  0  0  0  0  0
  -21.9878  -42.4419   -2.9407 C   0  0  0  0  0  0  0  0  0  0  0  0
  -22.3194  -43.2747   -3.9820 C   0  0  0  0  0  0  0  0  0  0  0  0
  -21.7058  -43.1677   -5.1749 N   0  0  0  0  0  0  0  0  0  0  0  0
  -20.6447  -40.5783   -2.0387 C   0  0  0  0  0  0  0  0  0  0  0  0
  -19.2362  -40.0777   -2.2294 C   0  0  0  0  0  0  0  0  0  0  0  0
  -20.8153  -41.2476   -0.6846 C   0  0  0  0  0  0  0  0  0  0  0  0
  -21.5734  -39.3852   -2.0367 C   0  0  0  0  0  0  0  0  0  0  0  0
  -22.5083  -40.4946  -11.7517 C   0  0  0  0  0  0  0  0  0  0  0  0
  -22.7712  -40.7245  -13.0445 N   0  0  0  0  0  0  0  0  0  0  0  0
  -23.7204  -41.6764  -13.0475 C   0  0  0  0  0  0  0  0  0  0  0  0
  -23.9977  -41.9892  -11.7248 C   0  0  0  0  0  0  0  0  0  0  0  0
  -23.2311  -41.2404  -10.9603 O   0  0  0  0  0  0  0  0  0  0  0  0
  2  1  1  1
  2  3  1  0
  3  4  1  0
  4  5  1  0
  5  6  1  0
  6  7  1  0
  7  8  1  0
  8  9  1  0
  9 10  1  0
 10 11  1  0
 11 12  1  0
 12 13  2  0
 13 14  1  0
 14 15  2  0
 15 16  1  0
 15 17  1  0
 17 18  2  0
 17 19  1  0
 19 20  1  0
 20 21  1  1
 20 22  1  0
 22 23  1  6
 22 24  1  0
 24 25  1  0
 25 26  1  0
 26 27  1  0
 27 28  1  0
 26 29  1  0
 29 30  2  0
 30 31  1  0
 31 32  2  0
 32 33  1  0
 33 34  2  0
 31 35  1  0
 35 36  1  0
 35 37  1  0
 35 38  1  0
 13 39  1  0
 39 40  2  0
 40 41  1  0
 41 42  2  0
 42 43  1  0
 16 11  2  0
 21  2  1  0
 28 26  1  0
 34 29  1  0
 43 39  1  0
M  END
$$$$
