
     RDKit          3D

 43 47  0  0  0  0  0  0  0  0999 V2000
  -20.2574  -37.3069   -6.8757 C   0  0  0  0  0  0  0  0  0  0  0  0
  -20.0238  -38.7292   -6.4347 C   0  0  2  0  0  0  0  0  0  0  0  0
  -20.7562  -38.9920   -5.1564 C   0  0  0  0  0  0  0  0  0  0  0  0
  -22.2386  -39.0990   -5.4344 C   0  0  0  0  0  0  0  0  0  0  0  0
  -22.9636  -40.0652   -4.5560 C   0  0  0  0  0  0  0  0  0  0  0  0
  -22.7096  -41.4872   -5.0081 C   0  0  0  0  0  0  0  0  0  0  0  0
  -23.5111  -41.8778   -6.2193 C   0  0  0  0  0  0  0  0  0  0  0  0
  -22.6733  -42.8141   -7.0463 C   0  0  0  0  0  0  0  0  0  0  0  0
  -22.7148  -44.1857   -6.4525 C   0  0  0  0  0  0  0  0  0  0  0  0
  -21.4776  -44.8622   -6.5524 O   0  0  0  0  0  0  0  0  0  0  0  0
  -20.2263  -44.4897   -7.0195 C   0  0  0  0  0  0  0  0  0  0  0  0
  -19.8480  -45.2805   -8.1195 C   0  0  0  0  0  0  0  0  0  0  0  0
  -18.6595  -45.1227   -8.7758 C   0  0  0  0  0  0  0  0  0  0  0  0
  -17.8502  -44.1298   -8.2840 C   0  0  0  0  0  0  0  0  0  0  0  0
  -18.1890  -43.3095   -7.1797 C   0  0  0  0  0  0  0  0  0  0  0  0
  -19.3861  -43.4945   -6.5428 C   0  0  0  0  0  0  0  0  0  0  0  0
  -17.0914  -42.3485   -6.9449 C   0  0  0  0  0  0  0  0  0  0  0  0
  -15.8476  -42.7749   -7.0311 O   0  0  0  0  0  0  0  0  0  0  0  0
  -17.0983  -40.9775   -6.6283 N   0  0  0  0  0  0  0  0  0  0  0  0
  -18.0068  -39.9918   -7.1797 C   0  0  1  0  0  0  0  0  0  0  0  0
  -18.5378  -39.0072   -6.1943 C   0  0  0  0  0  0  0  0  0  0  0  0
  -17.4435  -39.3123   -8.4234 C   0  0  2  0  0  0  0  0  0  0  0  0
  -18.3096  -39.6452   -9.4820 O   0  0  0  0  0  0  0  0  0  0  0  0
  -16.1054  -39.8562   -8.7883 C   0  0  0  0  0  0  0  0  0  0  0  0
  -15.2570  -38.9892   -9.4834 N   0  0  0  0  0  0  0  0  0  0  0  0
  -14.2877  -39.4871  -10.3859 C   0  0  0  0  0  0  0  0  0  0  0  0
  -14.1955  -40.8515  -10.8986 C   0  0  0  0  0  0  0  0  0  0  0  0
  -13.2969  -40.5100   -9.7392 C   0  0  0  0  0  0  0  0  0  0  0  0
  -13.5213  -38.4575  -11.1953 C   0  0  0  0  0  0  0  0  0  0  0  0
  -13.9689  -37.1838  -11.4018 C   0  0  0  0  0  0  0  0  0  0  0  0
  -13.2494  -36.2572  -12.1511 C   0  0  0  0  0  0  0  0  0  0  0  0
  -12.0521  -36.6531  -12.6941 C   0  0  0  0  0  0  0  0  0  0  0  0
  -11.6205  -37.9389  -12.4749 C   0  0  0  0  0  0  0  0  0  0  0  0
  -12.3525  -38.7981  -11.7422 N   0  0  0  0  0  0  0  0  0  0  0  0
  -13.7330  -34.8769  -12.3622 C   0  0  0  0  0  0  0  0  0  0  0  0
  -13.7812  -34.1360  -11.0507 C   0  0  0  0  0  0  0  0  0  0  0  0
  -15.0872  -34.8681  -13.0525 C   0  0  0  0  0  0  0  0  0  0  0  0
  -12.7871  -34.1420  -13.2848 C   0  0  0  0  0  0  0  0  0  0  0  0
  -18.2796  -45.9436   -9.9195 C   0  0  0  0  0  0  0  0  0  0  0  0
  -18.1190  -47.2717   -9.8604 N   0  0  0  0  0  0  0  0  0  0  0  0
  -17.7736  -47.6409  -11.1060 C   0  0  0  0  0  0  0  0  0  0  0  0
  -17.7394  -46.4930  -11.8839 C   0  0  0  0  0  0  0  0  0  0  0  0
  -18.0567  -45.4717  -11.1164 O   0  0  0  0  0  0  0  0  0  0  0  0
  2  1  1  1
  2  3  1  0
  3  4  1  0
  4  5  1  0
  5  6  1  0
  6  7  1  0
  7  8  1  0
  8  9  1  0
  9 10  1  0
 10 11  1  0
 11 12  1  0
 12 13  2  0
 13 14  1  0
 14 15  2  0
 15 16  1  0
 15 17  1  0
 17 18  2  0
 17 19  1  0
 19 20  1  0
 20 21  1  1
 20 22  1  0
 22 23  1  6
 22 24  1  0
 24 25  1  0
 25 26  1  0
 26 27  1  0
 27 28  1  0
 26 29  1  0
 29 30  2  0
 30 31  1  0
 31 32  2  0
 32 33  1  0
 33 34  2  0
 31 35  1  0
 35 36  1  0
 35 37  1  0
 35 38  1  0
 13 39  1  0
 39 40  2  0
 40 41  1  0
 41 42  2  0
 42 43  1  0
 16 11  2  0
 21  2  1  0
 28 26  1  0
 34 29  1  0
 43 39  1  0
M  END
$$$$
