
     RDKit          3D

 39 42  0  0  0  0  0  0  0  0999 V2000
  -13.7939  -41.2656  -11.5292 C   0  0  0  0  0  0  0  0  0  0  0  0
  -14.0085  -40.0728  -10.6264 C   0  0  2  0  0  0  0  0  0  0  0  0
  -15.4046  -40.0798  -10.2319 N   0  0  0  0  0  0  0  0  0  0  0  0
  -15.5906  -39.9280   -8.8255 C   0  0  0  0  0  0  0  0  0  0  0  0
  -16.7631  -39.0685   -8.4581 C   0  0  1  0  0  0  0  0  0  0  0  0
  -17.4185  -38.6788   -9.6173 O   0  0  0  0  0  0  0  0  0  0  0  0
  -17.7691  -39.8058   -7.5754 C   0  0  2  0  0  0  0  0  0  0  0  0
  -18.6750  -38.8316   -6.8219 C   0  0  0  0  0  0  0  0  0  0  0  0
  -20.1233  -39.0268   -7.1881 C   0  0  0  0  0  0  0  0  0  0  0  0
  -21.0226  -39.9836   -6.7830 C   0  0  0  0  0  0  0  0  0  0  0  0
  -22.3046  -39.9111   -7.2978 C   0  0  0  0  0  0  0  0  0  0  0  0
  -22.6539  -38.8836   -8.2067 C   0  0  0  0  0  0  0  0  0  0  0  0
  -21.7762  -37.9207   -8.6249 C   0  0  0  0  0  0  0  0  0  0  0  0
  -20.5136  -38.0181   -8.0968 C   0  0  0  0  0  0  0  0  0  0  0  0
  -23.3858  -40.7304   -7.0622 O   0  0  0  0  0  0  0  0  0  0  0  0
  -24.0530  -41.2871   -5.9978 C   0  0  0  0  0  0  0  0  0  0  0  0
  -23.3660  -42.5058   -5.4139 C   0  0  0  0  0  0  0  0  0  0  0  0
  -22.6962  -42.2278   -4.1047 C   0  0  0  0  0  0  0  0  0  0  0  0
  -22.1585  -43.4954   -3.4963 C   0  0  0  0  0  0  0  0  0  0  0  0
  -21.1858  -44.1557   -4.1904 O   0  0  0  0  0  0  0  0  0  0  0  0
  -20.2317  -43.9533   -5.1605 C   0  0  0  0  0  0  0  0  0  0  0  0
  -19.2225  -43.0093   -5.2218 C   0  0  0  0  0  0  0  0  0  0  0  0
  -18.4034  -43.0369   -6.3242 C   0  0  0  0  0  0  0  0  0  0  0  0
  -18.6294  -44.0189   -7.3260 C   0  0  0  0  0  0  0  0  0  0  0  0
  -19.5976  -44.9306   -7.2728 N   0  0  0  0  0  0  0  0  0  0  0  0
  -20.3835  -44.8925   -6.2026 C   0  0  0  0  0  0  0  0  0  0  0  0
  -17.2615  -42.1880   -6.7203 C   0  0  0  0  0  0  0  0  0  0  0  0
  -16.2158  -42.9029   -7.0929 O   0  0  0  0  0  0  0  0  0  0  0  0
  -17.1140  -40.7701   -6.7641 N   0  0  0  0  0  0  0  0  0  0  0  0
  -13.6794  -38.8515  -11.4134 C   0  0  0  0  0  0  0  0  0  0  0  0
  -13.2372  -37.6306  -10.9701 C   0  0  0  0  0  0  0  0  0  0  0  0
  -13.0822  -36.8365  -12.0774 C   0  0  0  0  0  0  0  0  0  0  0  0
  -12.6217  -35.4112  -12.1433 C   0  0  0  0  0  0  0  0  0  0  0  0
  -11.3750  -35.3081  -13.0114 C   0  0  0  0  0  0  0  0  0  0  0  0
  -11.6215  -35.8099  -14.4009 C   0  0  0  0  0  0  0  0  0  0  0  0
  -10.2725  -36.1025  -12.3643 C   0  0  0  0  0  0  0  0  0  0  0  0
  -10.9406  -33.8503  -13.1141 C   0  0  0  0  0  0  0  0  0  0  0  0
  -13.4205  -37.5694  -13.1087 O   0  0  0  0  0  0  0  0  0  0  0  0
  -13.7745  -38.7587  -12.7359 N   0  0  0  0  0  0  0  0  0  0  0  0
  2  1  1  6
  2  3  1  0
  3  4  1  0
  4  5  1  0
  5  6  1  6
  5  7  1  0
  7  8  1  1
  8  9  1  0
  9 10  2  0
 10 11  1  0
 11 12  2  0
 12 13  1  0
 13 14  2  0
 11 15  1  0
 15 16  1  0
 16 17  1  0
 17 18  1  0
 18 19  1  0
 19 20  1  0
 20 21  1  0
 21 22  2  0
 22 23  1  0
 23 24  2  0
 24 25  1  0
 25 26  2  0
 23 27  1  0
 27 28  2  0
 27 29  1  0
  2 30  1  0
 30 31  1  0
 31 32  2  0
 32 33  1  0
 33 34  1  0
 34 35  1  0
 34 36  1  0
 34 37  1  0
 32 38  1  0
 38 39  1  0
 14  9  1  0
 26 21  1  0
 29  7  1  0
 39 30  2  0
M  END
$$$$
