
     RDKit          3D

 39 42  0  0  0  0  0  0  0  0999 V2000
  -12.1671  -41.5270   -7.2971 C   0  0  0  0  0  0  0  0  0  0  0  0
  -13.1454  -41.1458   -8.3840 C   0  0  2  0  0  0  0  0  0  0  0  0
  -14.0591  -40.1725   -7.8158 N   0  0  0  0  0  0  0  0  0  0  0  0
  -15.2797  -40.0569   -8.5454 C   0  0  0  0  0  0  0  0  0  0  0  0
  -16.1090  -38.8700   -8.1559 C   0  0  1  0  0  0  0  0  0  0  0  0
  -16.3832  -38.1187   -9.2897 O   0  0  0  0  0  0  0  0  0  0  0  0
  -17.4417  -39.2743   -7.5271 C   0  0  2  0  0  0  0  0  0  0  0  0
  -18.2027  -38.0600   -6.9943 C   0  0  0  0  0  0  0  0  0  0  0  0
  -19.5344  -37.8971   -7.6799 C   0  0  0  0  0  0  0  0  0  0  0  0
  -20.7195  -38.5672   -7.4931 C   0  0  0  0  0  0  0  0  0  0  0  0
  -21.7919  -38.1969   -8.2846 C   0  0  0  0  0  0  0  0  0  0  0  0
  -21.6508  -37.1663   -9.2446 C   0  0  0  0  0  0  0  0  0  0  0  0
  -20.4815  -36.4855   -9.4491 C   0  0  0  0  0  0  0  0  0  0  0  0
  -19.4368  -36.8741   -8.6491 C   0  0  0  0  0  0  0  0  0  0  0  0
  -23.0746  -38.6970   -8.3035 O   0  0  0  0  0  0  0  0  0  0  0  0
  -24.0814  -39.0039   -7.4202 C   0  0  0  0  0  0  0  0  0  0  0  0
  -23.8840  -40.3237   -6.7010 C   0  0  0  0  0  0  0  0  0  0  0  0
  -23.4693  -40.1547   -5.2729 C   0  0  0  0  0  0  0  0  0  0  0  0
  -23.4304  -41.4820   -4.5638 C   0  0  0  0  0  0  0  0  0  0  0  0
  -22.5373  -42.4072   -5.0223 O   0  0  0  0  0  0  0  0  0  0  0  0
  -21.3746  -42.5106   -5.7503 C   0  0  0  0  0  0  0  0  0  0  0  0
  -20.1650  -41.8619   -5.5774 C   0  0  0  0  0  0  0  0  0  0  0  0
  -19.1606  -42.1599   -6.4657 C   0  0  0  0  0  0  0  0  0  0  0  0
  -19.4106  -43.1051   -7.4968 C   0  0  0  0  0  0  0  0  0  0  0  0
  -20.5713  -43.7335   -7.6681 N   0  0  0  0  0  0  0  0  0  0  0  0
  -21.5348  -43.4356   -6.8036 C   0  0  0  0  0  0  0  0  0  0  0  0
  -17.7778  -41.6557   -6.5893 C   0  0  0  0  0  0  0  0  0  0  0  0
  -16.9010  -42.6345   -6.7183 O   0  0  0  0  0  0  0  0  0  0  0  0
  -17.2575  -40.3278   -6.5926 N   0  0  0  0  0  0  0  0  0  0  0  0
  -13.8660  -42.3844   -8.7915 C   0  0  0  0  0  0  0  0  0  0  0  0
  -14.0895  -42.8795  -10.0514 C   0  0  0  0  0  0  0  0  0  0  0  0
  -14.8017  -44.0419   -9.9025 C   0  0  0  0  0  0  0  0  0  0  0  0
  -15.2998  -44.9712  -10.9686 C   0  0  0  0  0  0  0  0  0  0  0  0
  -16.6871  -45.4825  -10.6047 C   0  0  0  0  0  0  0  0  0  0  0  0
  -17.4025  -46.0447  -11.7944 C   0  0  0  0  0  0  0  0  0  0  0  0
  -17.4788  -44.3455  -10.0168 C   0  0  0  0  0  0  0  0  0  0  0  0
  -16.5686  -46.5926   -9.5665 C   0  0  0  0  0  0  0  0  0  0  0  0
  -14.9783  -44.2055   -8.6152 O   0  0  0  0  0  0  0  0  0  0  0  0
  -14.4335  -43.2388   -7.9462 N   0  0  0  0  0  0  0  0  0  0  0  0
  2  1  1  1
  2  3  1  0
  3  4  1  0
  4  5  1  0
  5  6  1  6
  5  7  1  0
  7  8  1  1
  8  9  1  0
  9 10  2  0
 10 11  1  0
 11 12  2  0
 12 13  1  0
 13 14  2  0
 11 15  1  0
 15 16  1  0
 16 17  1  0
 17 18  1  0
 18 19  1  0
 19 20  1  0
 20 21  1  0
 21 22  2  0
 22 23  1  0
 23 24  2  0
 24 25  1  0
 25 26  2  0
 23 27  1  0
 27 28  2  0
 27 29  1  0
  2 30  1  0
 30 31  1  0
 31 32  2  0
 32 33  1  0
 33 34  1  0
 34 35  1  0
 34 36  1  0
 34 37  1  0
 32 38  1  0
 38 39  1  0
 14  9  1  0
 26 21  1  0
 29  7  1  0
 39 30  2  0
M  END
$$$$
