
     RDKit          3D

 39 42  0  0  0  0  0  0  0  0999 V2000
  -13.1690  -41.2286   -7.5085 C   0  0  0  0  0  0  0  0  0  0  0  0
  -13.6460  -40.1470   -8.4500 C   0  0  2  0  0  0  0  0  0  0  0  0
  -14.9581  -39.7292   -7.9930 N   0  0  0  0  0  0  0  0  0  0  0  0
  -15.4287  -38.5494   -8.6426 C   0  0  0  0  0  0  0  0  0  0  0  0
  -16.6485  -37.9525   -8.0070 C   0  0  1  0  0  0  0  0  0  0  0  0
  -17.3321  -37.2049   -8.9552 O   0  0  0  0  0  0  0  0  0  0  0  0
  -17.6040  -39.0177   -7.4711 C   0  0  2  0  0  0  0  0  0  0  0  0
  -18.5524  -38.4431   -6.4186 C   0  0  0  0  0  0  0  0  0  0  0  0
  -19.9921  -38.5658   -6.8452 C   0  0  0  0  0  0  0  0  0  0  0  0
  -20.8345  -39.6514   -6.8332 C   0  0  0  0  0  0  0  0  0  0  0  0
  -22.1240  -39.4619   -7.2968 C   0  0  0  0  0  0  0  0  0  0  0  0
  -22.5377  -38.1907   -7.7624 C   0  0  0  0  0  0  0  0  0  0  0  0
  -21.7173  -37.0957   -7.7845 C   0  0  0  0  0  0  0  0  0  0  0  0
  -20.4457  -37.3143   -7.3180 C   0  0  0  0  0  0  0  0  0  0  0  0
  -23.1573  -40.3669   -7.3929 O   0  0  0  0  0  0  0  0  0  0  0  0
  -23.7822  -41.3139   -6.6178 C   0  0  0  0  0  0  0  0  0  0  0  0
  -23.0247  -42.6236   -6.5217 C   0  0  0  0  0  0  0  0  0  0  0  0
  -22.3565  -42.8161   -5.1963 C   0  0  0  0  0  0  0  0  0  0  0  0
  -21.7451  -44.1881   -5.0970 C   0  0  0  0  0  0  0  0  0  0  0  0
  -20.7462  -44.4903   -5.9772 O   0  0  0  0  0  0  0  0  0  0  0  0
  -19.8148  -43.8912   -6.7934 C   0  0  0  0  0  0  0  0  0  0  0  0
  -18.8583  -42.9391   -6.4898 C   0  0  0  0  0  0  0  0  0  0  0  0
  -18.0510  -42.5114   -7.5156 C   0  0  0  0  0  0  0  0  0  0  0  0
  -18.2351  -43.0618   -8.8127 C   0  0  0  0  0  0  0  0  0  0  0  0
  -19.1525  -43.9786   -9.1113 N   0  0  0  0  0  0  0  0  0  0  0  0
  -19.9276  -44.3828   -8.1112 C   0  0  0  0  0  0  0  0  0  0  0  0
  -16.9604  -41.5161   -7.5569 C   0  0  0  0  0  0  0  0  0  0  0  0
  -15.8822  -41.9842   -8.1582 O   0  0  0  0  0  0  0  0  0  0  0  0
  -16.8895  -40.1776   -7.0696 N   0  0  0  0  0  0  0  0  0  0  0  0
  -13.7171  -40.7413   -9.8142 C   0  0  0  0  0  0  0  0  0  0  0  0
  -12.9091  -40.5137  -10.8995 C   0  0  0  0  0  0  0  0  0  0  0  0
  -13.3841  -41.2952  -11.9213 C   0  0  0  0  0  0  0  0  0  0  0  0
  -12.8593  -41.4179  -13.3204 C   0  0  0  0  0  0  0  0  0  0  0  0
  -12.4931  -42.8667  -13.6124 C   0  0  0  0  0  0  0  0  0  0  0  0
  -12.9118  -43.7808  -12.5023 C   0  0  0  0  0  0  0  0  0  0  0  0
  -11.0047  -42.9536  -13.8184 C   0  0  0  0  0  0  0  0  0  0  0  0
  -13.1970  -43.3274  -14.8839 C   0  0  0  0  0  0  0  0  0  0  0  0
  -14.4179  -41.9415  -11.4431 O   0  0  0  0  0  0  0  0  0  0  0  0
  -14.6280  -41.6275  -10.2037 N   0  0  0  0  0  0  0  0  0  0  0  0
  2  1  1  1
  2  3  1  0
  3  4  1  0
  4  5  1  0
  5  6  1  6
  5  7  1  0
  7  8  1  1
  8  9  1  0
  9 10  2  0
 10 11  1  0
 11 12  2  0
 12 13  1  0
 13 14  2  0
 11 15  1  0
 15 16  1  0
 16 17  1  0
 17 18  1  0
 18 19  1  0
 19 20  1  0
 20 21  1  0
 21 22  2  0
 22 23  1  0
 23 24  2  0
 24 25  1  0
 25 26  2  0
 23 27  1  0
 27 28  2  0
 27 29  1  0
  2 30  1  0
 30 31  1  0
 31 32  2  0
 32 33  1  0
 33 34  1  0
 34 35  1  0
 34 36  1  0
 34 37  1  0
 32 38  1  0
 38 39  1  0
 14  9  1  0
 26 21  1  0
 29  7  1  0
 39 30  2  0
M  END
$$$$
