
     RDKit          3D

 39 42  0  0  0  0  0  0  0  0999 V2000
  -14.0842  -41.9873   -8.7231 C   0  0  0  0  0  0  0  0  0  0  0  0
  -15.1300  -41.1454   -8.0293 C   0  0  2  0  0  0  0  0  0  0  0  0
  -14.5403  -40.6606   -6.7955 N   0  0  0  0  0  0  0  0  0  0  0  0
  -14.6241  -39.2435   -6.6530 C   0  0  0  0  0  0  0  0  0  0  0  0
  -15.1619  -38.5428   -7.8646 C   0  0  1  0  0  0  0  0  0  0  0  0
  -14.6792  -39.1731   -9.0025 O   0  0  0  0  0  0  0  0  0  0  0  0
  -16.6886  -38.5734   -7.9229 C   0  0  2  0  0  0  0  0  0  0  0  0
  -17.2504  -37.3190   -8.5924 C   0  0  0  0  0  0  0  0  0  0  0  0
  -18.0331  -37.6580   -9.8343 C   0  0  0  0  0  0  0  0  0  0  0  0
  -19.3067  -38.1543   -9.9759 C   0  0  0  0  0  0  0  0  0  0  0  0
  -19.7652  -38.3735  -11.2625 C   0  0  0  0  0  0  0  0  0  0  0  0
  -18.9368  -38.0921  -12.3753 C   0  0  0  0  0  0  0  0  0  0  0  0
  -17.6659  -37.5984  -12.2594 C   0  0  0  0  0  0  0  0  0  0  0  0
  -17.2396  -37.3905  -10.9720 C   0  0  0  0  0  0  0  0  0  0  0  0
  -20.9839  -38.8574  -11.6825 O   0  0  0  0  0  0  0  0  0  0  0  0
  -22.3211  -38.6432  -11.4500 C   0  0  0  0  0  0  0  0  0  0  0  0
  -22.8305  -39.2816  -10.1728 C   0  0  0  0  0  0  0  0  0  0  0  0
  -23.0736  -38.2885   -9.0798 C   0  0  0  0  0  0  0  0  0  0  0  0
  -23.7155  -38.9473   -7.8881 C   0  0  0  0  0  0  0  0  0  0  0  0
  -22.9970  -39.9172   -7.2503 O   0  0  0  0  0  0  0  0  0  0  0  0
  -21.7069  -40.3646   -7.0828 C   0  0  0  0  0  0  0  0  0  0  0  0
  -20.5799  -39.6743   -6.6742 C   0  0  0  0  0  0  0  0  0  0  0  0
  -19.4049  -40.3815   -6.5960 C   0  0  0  0  0  0  0  0  0  0  0  0
  -19.4083  -41.7626   -6.9302 C   0  0  0  0  0  0  0  0  0  0  0  0
  -20.4889  -42.4329   -7.3229 N   0  0  0  0  0  0  0  0  0  0  0  0
  -21.6184  -41.7377   -7.3958 C   0  0  0  0  0  0  0  0  0  0  0  0
  -18.0358  -39.9721   -6.2222 C   0  0  0  0  0  0  0  0  0  0  0  0
  -17.4936  -40.7939   -5.3424 O   0  0  0  0  0  0  0  0  0  0  0  0
  -17.2345  -38.8710   -6.6459 N   0  0  0  0  0  0  0  0  0  0  0  0
  -16.3014  -42.0240   -7.7551 C   0  0  0  0  0  0  0  0  0  0  0  0
  -17.6159  -41.8467   -8.1064 C   0  0  0  0  0  0  0  0  0  0  0  0
  -18.3074  -42.9272   -7.6217 C   0  0  0  0  0  0  0  0  0  0  0  0
  -19.7736  -43.2201   -7.7333 C   0  0  0  0  0  0  0  0  0  0  0  0
  -20.0220  -44.2003   -8.8718 C   0  0  0  0  0  0  0  0  0  0  0  0
  -20.6863  -43.5392  -10.0400 C   0  0  0  0  0  0  0  0  0  0  0  0
  -20.8810  -45.3245   -8.3584 C   0  0  0  0  0  0  0  0  0  0  0  0
  -18.6940  -44.7723   -9.3550 C   0  0  0  0  0  0  0  0  0  0  0  0
  -17.4287  -43.6893   -7.0197 O   0  0  0  0  0  0  0  0  0  0  0  0
  -16.2425  -43.1726   -7.0889 N   0  0  0  0  0  0  0  0  0  0  0  0
  2  1  1  1
  2  3  1  0
  3  4  1  0
  4  5  1  0
  5  6  1  6
  5  7  1  0
  7  8  1  1
  8  9  1  0
  9 10  2  0
 10 11  1  0
 11 12  2  0
 12 13  1  0
 13 14  2  0
 11 15  1  0
 15 16  1  0
 16 17  1  0
 17 18  1  0
 18 19  1  0
 19 20  1  0
 20 21  1  0
 21 22  2  0
 22 23  1  0
 23 24  2  0
 24 25  1  0
 25 26  2  0
 23 27  1  0
 27 28  2  0
 27 29  1  0
  2 30  1  0
 30 31  1  0
 31 32  2  0
 32 33  1  0
 33 34  1  0
 34 35  1  0
 34 36  1  0
 34 37  1  0
 32 38  1  0
 38 39  1  0
 14  9  1  0
 26 21  1  0
 29  7  1  0
 39 30  2  0
M  END
$$$$
