
     RDKit          3D

 39 42  0  0  0  0  0  0  0  0999 V2000
  -15.0266  -41.2065  -14.2233 C   0  0  0  0  0  0  0  0  0  0  0  0
  -15.7635  -41.5773  -12.9571 C   0  0  2  0  0  0  0  0  0  0  0  0
  -16.9147  -40.6998  -12.8589 N   0  0  0  0  0  0  0  0  0  0  0  0
  -17.8048  -41.0587  -11.8033 C   0  0  0  0  0  0  0  0  0  0  0  0
  -18.2757  -39.8942  -10.9845 C   0  0  1  0  0  0  0  0  0  0  0  0
  -19.3765  -39.3213  -11.6052 O   0  0  0  0  0  0  0  0  0  0  0  0
  -18.6944  -40.3077   -9.5743 C   0  0  2  0  0  0  0  0  0  0  0  0
  -18.6839  -39.1182   -8.6139 C   0  0  0  0  0  0  0  0  0  0  0  0
  -20.0520  -38.8598   -8.0382 C   0  0  0  0  0  0  0  0  0  0  0  0
  -20.7319  -39.5065   -7.0343 C   0  0  0  0  0  0  0  0  0  0  0  0
  -21.9956  -39.0407   -6.7186 C   0  0  0  0  0  0  0  0  0  0  0  0
  -22.5480  -37.9401   -7.4169 C   0  0  0  0  0  0  0  0  0  0  0  0
  -21.8908  -37.2809   -8.4198 C   0  0  0  0  0  0  0  0  0  0  0  0
  -20.6401  -37.7647   -8.7095 C   0  0  0  0  0  0  0  0  0  0  0  0
  -22.8808  -39.4984   -5.7684 O   0  0  0  0  0  0  0  0  0  0  0  0
  -22.8878  -39.8454   -4.4389 C   0  0  0  0  0  0  0  0  0  0  0  0
  -22.3226  -41.2248   -4.1630 C   0  0  0  0  0  0  0  0  0  0  0  0
  -20.9579  -41.1850   -3.5498 C   0  0  0  0  0  0  0  0  0  0  0  0
  -20.5035  -42.5662   -3.1599 C   0  0  0  0  0  0  0  0  0  0  0  0
  -20.3487  -43.4778   -4.1643 O   0  0  0  0  0  0  0  0  0  0  0  0
  -20.1565  -43.5568   -5.5242 C   0  0  0  0  0  0  0  0  0  0  0  0
  -19.1899  -42.9614   -6.3146 C   0  0  0  0  0  0  0  0  0  0  0  0
  -19.2376  -43.2165   -7.6635 C   0  0  0  0  0  0  0  0  0  0  0  0
  -20.2581  -44.0667   -8.1682 C   0  0  0  0  0  0  0  0  0  0  0  0
  -21.1903  -44.6435   -7.4135 N   0  0  0  0  0  0  0  0  0  0  0  0
  -21.1342  -44.3879   -6.1112 C   0  0  0  0  0  0  0  0  0  0  0  0
  -18.3953  -42.7462   -8.7819 C   0  0  0  0  0  0  0  0  0  0  0  0
  -18.0057  -43.7374   -9.5624 O   0  0  0  0  0  0  0  0  0  0  0  0
  -17.9528  -41.4388   -9.1412 N   0  0  0  0  0  0  0  0  0  0  0  0
  -14.8282  -41.3650  -11.8171 C   0  0  0  0  0  0  0  0  0  0  0  0
  -14.6266  -42.1464  -10.7075 C   0  0  0  0  0  0  0  0  0  0  0  0
  -13.6665  -41.5247   -9.9510 C   0  0  0  0  0  0  0  0  0  0  0  0
  -13.0848  -41.9643   -8.6409 C   0  0  0  0  0  0  0  0  0  0  0  0
  -13.3288  -40.8988   -7.5808 C   0  0  0  0  0  0  0  0  0  0  0  0
  -14.5594  -40.0962   -7.8718 C   0  0  0  0  0  0  0  0  0  0  0  0
  -12.1262  -39.9958   -7.5222 C   0  0  0  0  0  0  0  0  0  0  0  0
  -13.5173  -41.5619   -6.2210 C   0  0  0  0  0  0  0  0  0  0  0  0
  -13.3331  -40.4359  -10.5980 O   0  0  0  0  0  0  0  0  0  0  0  0
  -14.0073  -40.3264  -11.6990 N   0  0  0  0  0  0  0  0  0  0  0  0
  2  1  1  6
  2  3  1  0
  3  4  1  0
  4  5  1  0
  5  6  1  6
  5  7  1  0
  7  8  1  1
  8  9  1  0
  9 10  2  0
 10 11  1  0
 11 12  2  0
 12 13  1  0
 13 14  2  0
 11 15  1  0
 15 16  1  0
 16 17  1  0
 17 18  1  0
 18 19  1  0
 19 20  1  0
 20 21  1  0
 21 22  2  0
 22 23  1  0
 23 24  2  0
 24 25  1  0
 25 26  2  0
 23 27  1  0
 27 28  2  0
 27 29  1  0
  2 30  1  0
 30 31  1  0
 31 32  2  0
 32 33  1  0
 33 34  1  0
 34 35  1  0
 34 36  1  0
 34 37  1  0
 32 38  1  0
 38 39  1  0
 14  9  1  0
 26 21  1  0
 29  7  1  0
 39 30  2  0
M  END
$$$$
