
     RDKit          3D

 39 42  0  0  0  0  0  0  0  0999 V2000
  -13.5610  -41.9151  -10.0653 C   0  0  0  0  0  0  0  0  0  0  0  0
  -13.6668  -40.4958   -9.5571 C   0  0  2  0  0  0  0  0  0  0  0  0
  -14.7578  -40.4632   -8.6013 N   0  0  0  0  0  0  0  0  0  0  0  0
  -15.4319  -39.2064   -8.5624 C   0  0  0  0  0  0  0  0  0  0  0  0
  -16.0639  -38.8978   -7.2383 C   0  0  1  0  0  0  0  0  0  0  0  0
  -16.6106  -37.6233   -7.2847 O   0  0  0  0  0  0  0  0  0  0  0  0
  -17.1839  -39.8764   -6.8876 C   0  0  2  0  0  0  0  0  0  0  0  0
  -18.0331  -39.3645   -5.7239 C   0  0  0  0  0  0  0  0  0  0  0  0
  -19.4706  -39.1709   -6.1311 C   0  0  0  0  0  0  0  0  0  0  0  0
  -20.4788  -40.0890   -6.3016 C   0  0  0  0  0  0  0  0  0  0  0  0
  -21.7170  -39.6101   -6.6904 C   0  0  0  0  0  0  0  0  0  0  0  0
  -21.9147  -38.2243   -6.9007 C   0  0  0  0  0  0  0  0  0  0  0  0
  -20.9267  -37.2917   -6.7379 C   0  0  0  0  0  0  0  0  0  0  0  0
  -19.7109  -37.7963   -6.3512 C   0  0  0  0  0  0  0  0  0  0  0  0
  -22.8833  -40.3021   -6.9287 O   0  0  0  0  0  0  0  0  0  0  0  0
  -23.6594  -41.2645   -6.3291 C   0  0  0  0  0  0  0  0  0  0  0  0
  -23.1262  -42.6736   -6.4972 C   0  0  0  0  0  0  0  0  0  0  0  0
  -22.5073  -43.2170   -5.2475 C   0  0  0  0  0  0  0  0  0  0  0  0
  -22.1285  -44.6637   -5.4206 C   0  0  0  0  0  0  0  0  0  0  0  0
  -21.1862  -44.9521   -6.3654 O   0  0  0  0  0  0  0  0  0  0  0  0
  -20.1642  -44.3686   -7.0778 C   0  0  0  0  0  0  0  0  0  0  0  0
  -19.0673  -43.6576   -6.6251 C   0  0  0  0  0  0  0  0  0  0  0  0
  -18.1941  -43.1807   -7.5722 C   0  0  0  0  0  0  0  0  0  0  0  0
  -18.4567  -43.4405   -8.9443 C   0  0  0  0  0  0  0  0  0  0  0  0
  -19.5092  -44.1245   -9.3865 N   0  0  0  0  0  0  0  0  0  0  0  0
  -20.3466  -44.5790   -8.4610 C   0  0  0  0  0  0  0  0  0  0  0  0
  -16.9557  -42.3847   -7.4534 C   0  0  0  0  0  0  0  0  0  0  0  0
  -15.9641  -42.8992   -8.1572 O   0  0  0  0  0  0  0  0  0  0  0  0
  -16.6708  -41.1909   -6.7268 N   0  0  0  0  0  0  0  0  0  0  0  0
  -13.9537  -39.6215  -10.7288 C   0  0  0  0  0  0  0  0  0  0  0  0
  -13.4362  -38.3881  -11.0342 C   0  0  0  0  0  0  0  0  0  0  0  0
  -14.0155  -37.9933  -12.2128 C   0  0  0  0  0  0  0  0  0  0  0  0
  -13.7945  -36.7235  -12.9790 C   0  0  0  0  0  0  0  0  0  0  0  0
  -14.8968  -35.7240  -12.6562 C   0  0  0  0  0  0  0  0  0  0  0  0
  -15.4272  -35.9097  -11.2679 C   0  0  0  0  0  0  0  0  0  0  0  0
  -16.0064  -35.8927  -13.6590 C   0  0  0  0  0  0  0  0  0  0  0  0
  -14.3485  -34.3051  -12.7581 C   0  0  0  0  0  0  0  0  0  0  0  0
  -14.8285  -38.9572  -12.5667 O   0  0  0  0  0  0  0  0  0  0  0  0
  -14.8043  -39.9238  -11.7043 N   0  0  0  0  0  0  0  0  0  0  0  0
  2  1  1  6
  2  3  1  0
  3  4  1  0
  4  5  1  0
  5  6  1  6
  5  7  1  0
  7  8  1  1
  8  9  1  0
  9 10  2  0
 10 11  1  0
 11 12  2  0
 12 13  1  0
 13 14  2  0
 11 15  1  0
 15 16  1  0
 16 17  1  0
 17 18  1  0
 18 19  1  0
 19 20  1  0
 20 21  1  0
 21 22  2  0
 22 23  1  0
 23 24  2  0
 24 25  1  0
 25 26  2  0
 23 27  1  0
 27 28  2  0
 27 29  1  0
  2 30  1  0
 30 31  1  0
 31 32  2  0
 32 33  1  0
 33 34  1  0
 34 35  1  0
 34 36  1  0
 34 37  1  0
 32 38  1  0
 38 39  1  0
 14  9  1  0
 26 21  1  0
 29  7  1  0
 39 30  2  0
M  END
$$$$
