
     RDKit          3D

 39 42  0  0  0  0  0  0  0  0999 V2000
  -13.6867  -37.1988  -12.1009 C   0  0  0  0  0  0  0  0  0  0  0  0
  -14.5181  -38.2613  -11.4200 C   0  0  2  0  0  0  0  0  0  0  0  0
  -14.9809  -37.7032  -10.1633 N   0  0  0  0  0  0  0  0  0  0  0  0
  -16.4021  -37.7063  -10.0380 C   0  0  0  0  0  0  0  0  0  0  0  0
  -16.8886  -37.4510   -8.6429 C   0  0  1  0  0  0  0  0  0  0  0  0
  -17.8277  -36.4301   -8.6717 O   0  0  0  0  0  0  0  0  0  0  0  0
  -17.5515  -38.6814   -8.0251 C   0  0  2  0  0  0  0  0  0  0  0  0
  -18.3921  -38.3122   -6.8026 C   0  0  0  0  0  0  0  0  0  0  0  0
  -19.8425  -38.6684   -7.0003 C   0  0  0  0  0  0  0  0  0  0  0  0
  -20.4800  -39.8830   -6.9182 C   0  0  0  0  0  0  0  0  0  0  0  0
  -21.8422  -39.9047   -7.1578 C   0  0  0  0  0  0  0  0  0  0  0  0
  -22.5322  -38.7102   -7.4755 C   0  0  0  0  0  0  0  0  0  0  0  0
  -21.9195  -37.4899   -7.5636 C   0  0  0  0  0  0  0  0  0  0  0  0
  -20.5693  -37.4999   -7.3199 C   0  0  0  0  0  0  0  0  0  0  0  0
  -22.7130  -40.9711   -7.1410 O   0  0  0  0  0  0  0  0  0  0  0  0
  -23.0341  -42.0354   -6.3334 C   0  0  0  0  0  0  0  0  0  0  0  0
  -22.0654  -43.1969   -6.4370 C   0  0  0  0  0  0  0  0  0  0  0  0
  -21.1623  -43.3122   -5.2491 C   0  0  0  0  0  0  0  0  0  0  0  0
  -20.3248  -44.5605   -5.3299 C   0  0  0  0  0  0  0  0  0  0  0  0
  -19.4513  -44.6580   -6.3746 O   0  0  0  0  0  0  0  0  0  0  0  0
  -18.7817  -43.8821   -7.2922 C   0  0  0  0  0  0  0  0  0  0  0  0
  -17.9584  -42.7890   -7.0896 C   0  0  0  0  0  0  0  0  0  0  0  0
  -17.4162  -42.1967   -8.2040 C   0  0  0  0  0  0  0  0  0  0  0  0
  -17.7213  -42.7301   -9.4853 C   0  0  0  0  0  0  0  0  0  0  0  0
  -18.5115  -43.7818   -9.6872 N   0  0  0  0  0  0  0  0  0  0  0  0
  -19.0307  -44.3447   -8.6018 C   0  0  0  0  0  0  0  0  0  0  0  0
  -16.5276  -41.0272   -8.3601 C   0  0  0  0  0  0  0  0  0  0  0  0
  -15.5029  -41.2832   -9.1524 O   0  0  0  0  0  0  0  0  0  0  0  0
  -16.5982  -39.7124   -7.8121 N   0  0  0  0  0  0  0  0  0  0  0  0
  -13.6367  -39.4404  -11.1912 C   0  0  0  0  0  0  0  0  0  0  0  0
  -13.8921  -40.7684  -11.4229 C   0  0  0  0  0  0  0  0  0  0  0  0
  -12.7700  -41.4617  -11.0474 C   0  0  0  0  0  0  0  0  0  0  0  0
  -12.5297  -42.9408  -11.0976 C   0  0  0  0  0  0  0  0  0  0  0  0
  -12.0988  -43.4435   -9.7265 C   0  0  0  0  0  0  0  0  0  0  0  0
  -11.1073  -42.5237   -9.0830 C   0  0  0  0  0  0  0  0  0  0  0  0
  -11.5018  -44.8161   -9.8844 C   0  0  0  0  0  0  0  0  0  0  0  0
  -13.3126  -43.5338   -8.8085 C   0  0  0  0  0  0  0  0  0  0  0  0
  -11.9104  -40.5709  -10.6197 O   0  0  0  0  0  0  0  0  0  0  0  0
  -12.4043  -39.3756  -10.6976 N   0  0  0  0  0  0  0  0  0  0  0  0
  2  1  1  1
  2  3  1  0
  3  4  1  0
  4  5  1  0
  5  6  1  6
  5  7  1  0
  7  8  1  1
  8  9  1  0
  9 10  2  0
 10 11  1  0
 11 12  2  0
 12 13  1  0
 13 14  2  0
 11 15  1  0
 15 16  1  0
 16 17  1  0
 17 18  1  0
 18 19  1  0
 19 20  1  0
 20 21  1  0
 21 22  2  0
 22 23  1  0
 23 24  2  0
 24 25  1  0
 25 26  2  0
 23 27  1  0
 27 28  2  0
 27 29  1  0
  2 30  1  0
 30 31  1  0
 31 32  2  0
 32 33  1  0
 33 34  1  0
 34 35  1  0
 34 36  1  0
 34 37  1  0
 32 38  1  0
 38 39  1  0
 14  9  1  0
 26 21  1  0
 29  7  1  0
 39 30  2  0
M  END
$$$$
