
     RDKit          3D

 39 42  0  0  0  0  0  0  0  0999 V2000
  -12.5720  -41.1221   -8.3792 C   0  0  0  0  0  0  0  0  0  0  0  0
  -13.0949  -39.7051   -8.4295 C   0  0  2  0  0  0  0  0  0  0  0  0
  -14.3174  -39.6716   -7.6489 N   0  0  0  0  0  0  0  0  0  0  0  0
  -15.2784  -38.7447   -8.1516 C   0  0  0  0  0  0  0  0  0  0  0  0
  -16.4038  -38.4627   -7.2018 C   0  0  1  0  0  0  0  0  0  0  0  0
  -17.0987  -37.3460   -7.6436 O   0  0  0  0  0  0  0  0  0  0  0  0
  -17.3917  -39.6248   -7.1110 C   0  0  2  0  0  0  0  0  0  0  0  0
  -18.4663  -39.3673   -6.0544 C   0  0  0  0  0  0  0  0  0  0  0  0
  -19.8448  -39.3423   -6.6618 C   0  0  0  0  0  0  0  0  0  0  0  0
  -20.6600  -40.3737   -7.0618 C   0  0  0  0  0  0  0  0  0  0  0  0
  -21.8916  -40.0411   -7.5966 C   0  0  0  0  0  0  0  0  0  0  0  0
  -22.2759  -38.6843   -7.7194 C   0  0  0  0  0  0  0  0  0  0  0  0
  -21.4816  -37.6407   -7.3289 C   0  0  0  0  0  0  0  0  0  0  0  0
  -20.2675  -38.0017   -6.8018 C   0  0  0  0  0  0  0  0  0  0  0  0
  -22.8878  -40.8659   -8.0691 O   0  0  0  0  0  0  0  0  0  0  0  0
  -23.5772  -41.9885   -7.6787 C   0  0  0  0  0  0  0  0  0  0  0  0
  -22.8083  -43.2797   -7.8784 C   0  0  0  0  0  0  0  0  0  0  0  0
  -22.2924  -43.8566   -6.5973 C   0  0  0  0  0  0  0  0  0  0  0  0
  -21.6677  -45.2065   -6.8289 C   0  0  0  0  0  0  0  0  0  0  0  0
  -20.5685  -45.2538   -7.6371 O   0  0  0  0  0  0  0  0  0  0  0  0
  -19.5626  -44.4563   -8.1318 C   0  0  0  0  0  0  0  0  0  0  0  0
  -18.6673  -43.6456   -7.4575 C   0  0  0  0  0  0  0  0  0  0  0  0
  -17.7571  -42.9498   -8.2152 C   0  0  0  0  0  0  0  0  0  0  0  0
  -17.7798  -43.0985   -9.6282 C   0  0  0  0  0  0  0  0  0  0  0  0
  -18.6375  -43.8773  -10.2831 N   0  0  0  0  0  0  0  0  0  0  0  0
  -19.5134  -44.5437   -9.5393 C   0  0  0  0  0  0  0  0  0  0  0  0
  -16.6901  -41.9995   -7.8405 C   0  0  0  0  0  0  0  0  0  0  0  0
  -15.5405  -42.2876   -8.4225 O   0  0  0  0  0  0  0  0  0  0  0  0
  -16.7036  -40.8606   -6.9822 N   0  0  0  0  0  0  0  0  0  0  0  0
  -13.3614  -39.3773   -9.8582 C   0  0  0  0  0  0  0  0  0  0  0  0
  -13.3500  -38.1549  -10.4812 C   0  0  0  0  0  0  0  0  0  0  0  0
  -13.6615  -38.3757  -11.7983 C   0  0  0  0  0  0  0  0  0  0  0  0
  -13.7818  -37.3734  -12.9069 C   0  0  0  0  0  0  0  0  0  0  0  0
  -12.5090  -37.3681  -13.7424 C   0  0  0  0  0  0  0  0  0  0  0  0
  -12.1446  -35.9868  -14.1923 C   0  0  0  0  0  0  0  0  0  0  0  0
  -12.7146  -38.2617  -14.9360 C   0  0  0  0  0  0  0  0  0  0  0  0
  -11.3489  -37.9078  -12.9134 C   0  0  0  0  0  0  0  0  0  0  0  0
  -13.8433  -39.6666  -11.9243 O   0  0  0  0  0  0  0  0  0  0  0  0
  -13.6702  -40.2716  -10.7917 N   0  0  0  0  0  0  0  0  0  0  0  0
  2  1  1  6
  2  3  1  0
  3  4  1  0
  4  5  1  0
  5  6  1  6
  5  7  1  0
  7  8  1  1
  8  9  1  0
  9 10  2  0
 10 11  1  0
 11 12  2  0
 12 13  1  0
 13 14  2  0
 11 15  1  0
 15 16  1  0
 16 17  1  0
 17 18  1  0
 18 19  1  0
 19 20  1  0
 20 21  1  0
 21 22  2  0
 22 23  1  0
 23 24  2  0
 24 25  1  0
 25 26  2  0
 23 27  1  0
 27 28  2  0
 27 29  1  0
  2 30  1  0
 30 31  1  0
 31 32  2  0
 32 33  1  0
 33 34  1  0
 34 35  1  0
 34 36  1  0
 34 37  1  0
 32 38  1  0
 38 39  1  0
 14  9  1  0
 26 21  1  0
 29  7  1  0
 39 30  2  0
M  END
$$$$
