
     RDKit          3D

 39 42  0  0  0  0  0  0  0  0999 V2000
  -12.6060  -41.1220  -10.0732 C   0  0  0  0  0  0  0  0  0  0  0  0
  -13.4660  -39.9660   -9.6171 C   0  0  2  0  0  0  0  0  0  0  0  0
  -14.8418  -40.4266   -9.6246 N   0  0  0  0  0  0  0  0  0  0  0  0
  -15.7683  -39.4322   -9.1907 C   0  0  0  0  0  0  0  0  0  0  0  0
  -15.8588  -39.2966   -7.7001 C   0  0  1  0  0  0  0  0  0  0  0  0
  -16.0578  -37.9615   -7.3792 O   0  0  0  0  0  0  0  0  0  0  0  0
  -17.0200  -40.0984   -7.1139 C   0  0  2  0  0  0  0  0  0  0  0  0
  -17.7125  -39.3385   -5.9823 C   0  0  0  0  0  0  0  0  0  0  0  0
  -19.1600  -39.0690   -6.3015 C   0  0  0  0  0  0  0  0  0  0  0  0
  -20.2532  -39.8999   -6.2466 C   0  0  0  0  0  0  0  0  0  0  0  0
  -21.4773  -39.3664   -6.6080 C   0  0  0  0  0  0  0  0  0  0  0  0
  -21.5763  -38.0148   -7.0172 C   0  0  0  0  0  0  0  0  0  0  0  0
  -20.5026  -37.1689   -7.0805 C   0  0  0  0  0  0  0  0  0  0  0  0
  -19.3032  -37.7259   -6.7153 C   0  0  0  0  0  0  0  0  0  0  0  0
  -22.7145  -39.9695   -6.6430 O   0  0  0  0  0  0  0  0  0  0  0  0
  -23.5103  -40.7516   -5.8411 C   0  0  0  0  0  0  0  0  0  0  0  0
  -23.1152  -42.2151   -5.8269 C   0  0  0  0  0  0  0  0  0  0  0  0
  -22.4318  -42.6235   -4.5595 C   0  0  0  0  0  0  0  0  0  0  0  0
  -22.1935  -44.1096   -4.5323 C   0  0  0  0  0  0  0  0  0  0  0  0
  -21.3697  -44.6261   -5.4907 O   0  0  0  0  0  0  0  0  0  0  0  0
  -20.3721  -44.2575   -6.3634 C   0  0  0  0  0  0  0  0  0  0  0  0
  -19.1824  -43.5969   -6.1149 C   0  0  0  0  0  0  0  0  0  0  0  0
  -18.3631  -43.3539   -7.1903 C   0  0  0  0  0  0  0  0  0  0  0  0
  -18.7717  -43.7887   -8.4799 C   0  0  0  0  0  0  0  0  0  0  0  0
  -19.9142  -44.4255   -8.7258 N   0  0  0  0  0  0  0  0  0  0  0  0
  -20.6981  -44.6533   -7.6779 C   0  0  0  0  0  0  0  0  0  0  0  0
  -17.0564  -42.6732   -7.2950 C   0  0  0  0  0  0  0  0  0  0  0  0
  -16.1806  -43.3809   -7.9844 O   0  0  0  0  0  0  0  0  0  0  0  0
  -16.6066  -41.4178   -6.7893 N   0  0  0  0  0  0  0  0  0  0  0  0
  -13.2680  -38.8519  -10.5861 C   0  0  0  0  0  0  0  0  0  0  0  0
  -12.7859  -37.5870  -10.3621 C   0  0  0  0  0  0  0  0  0  0  0  0
  -12.7987  -36.9358  -11.5689 C   0  0  0  0  0  0  0  0  0  0  0  0
  -12.3727  -35.5307  -11.8729 C   0  0  0  0  0  0  0  0  0  0  0  0
  -13.5970  -34.6563  -12.1075 C   0  0  0  0  0  0  0  0  0  0  0  0
  -13.2176  -33.2656  -12.5141 C   0  0  0  0  0  0  0  0  0  0  0  0
  -14.4104  -34.6197  -10.8416 C   0  0  0  0  0  0  0  0  0  0  0  0
  -14.4461  -35.2517  -13.2250 C   0  0  0  0  0  0  0  0  0  0  0  0
  -13.2672  -37.7892  -12.4450 O   0  0  0  0  0  0  0  0  0  0  0  0
  -13.5484  -38.9225  -11.8834 N   0  0  0  0  0  0  0  0  0  0  0  0
  2  1  1  6
  2  3  1  0
  3  4  1  0
  4  5  1  0
  5  6  1  6
  5  7  1  0
  7  8  1  1
  8  9  1  0
  9 10  2  0
 10 11  1  0
 11 12  2  0
 12 13  1  0
 13 14  2  0
 11 15  1  0
 15 16  1  0
 16 17  1  0
 17 18  1  0
 18 19  1  0
 19 20  1  0
 20 21  1  0
 21 22  2  0
 22 23  1  0
 23 24  2  0
 24 25  1  0
 25 26  2  0
 23 27  1  0
 27 28  2  0
 27 29  1  0
  2 30  1  0
 30 31  1  0
 31 32  2  0
 32 33  1  0
 33 34  1  0
 34 35  1  0
 34 36  1  0
 34 37  1  0
 32 38  1  0
 38 39  1  0
 14  9  1  0
 26 21  1  0
 29  7  1  0
 39 30  2  0
M  END
$$$$
