
     RDKit          3D

 39 42  0  0  0  0  0  0  0  0999 V2000
  -15.5141  -42.0313   -5.0592 C   0  0  0  0  0  0  0  0  0  0  0  0
  -16.1375  -41.9481   -6.4333 C   0  0  2  0  0  0  0  0  0  0  0  0
  -15.6063  -40.7594   -7.0735 N   0  0  0  0  0  0  0  0  0  0  0  0
  -15.9207  -40.6829   -8.4630 C   0  0  0  0  0  0  0  0  0  0  0  0
  -15.9180  -39.2866   -9.0095 C   0  0  1  0  0  0  0  0  0  0  0  0
  -15.2047  -39.2686  -10.1995 O   0  0  0  0  0  0  0  0  0  0  0  0
  -17.3280  -38.7743   -9.2997 C   0  0  2  0  0  0  0  0  0  0  0  0
  -17.3294  -37.2763   -9.6055 C   0  0  0  0  0  0  0  0  0  0  0  0
  -17.8481  -36.9951  -10.9917 C   0  0  0  0  0  0  0  0  0  0  0  0
  -19.1353  -36.9690  -11.4722 C   0  0  0  0  0  0  0  0  0  0  0  0
  -19.3085  -36.6796  -12.8138 C   0  0  0  0  0  0  0  0  0  0  0  0
  -18.1887  -36.4252  -13.6415 C   0  0  0  0  0  0  0  0  0  0  0  0
  -16.8984  -36.4460  -13.1864 C   0  0  0  0  0  0  0  0  0  0  0  0
  -16.7586  -36.7348  -11.8524 C   0  0  0  0  0  0  0  0  0  0  0  0
  -20.4732  -36.5899  -13.5425 O   0  0  0  0  0  0  0  0  0  0  0  0
  -21.7092  -35.9961  -13.4539 C   0  0  0  0  0  0  0  0  0  0  0  0
  -22.6747  -36.7248  -12.5401 C   0  0  0  0  0  0  0  0  0  0  0  0
  -22.8852  -36.0242  -11.2344 C   0  0  0  0  0  0  0  0  0  0  0  0
  -23.9584  -36.7038  -10.4267 C   0  0  0  0  0  0  0  0  0  0  0  0
  -23.7232  -37.9906  -10.0359 O   0  0  0  0  0  0  0  0  0  0  0  0
  -22.6948  -38.8814   -9.8323 C   0  0  0  0  0  0  0  0  0  0  0  0
  -21.5537  -38.7502   -9.0615 C   0  0  0  0  0  0  0  0  0  0  0  0
  -20.6839  -39.8132   -9.0420 C   0  0  0  0  0  0  0  0  0  0  0  0
  -20.9974  -40.9740   -9.7993 C   0  0  0  0  0  0  0  0  0  0  0  0
  -22.0938  -41.1072  -10.5419 N   0  0  0  0  0  0  0  0  0  0  0  0
  -22.9260  -40.0720  -10.5536 C   0  0  0  0  0  0  0  0  0  0  0  0
  -19.3896  -40.0101   -8.3583 C   0  0  0  0  0  0  0  0  0  0  0  0
  -19.3349  -41.1644   -7.7195 O   0  0  0  0  0  0  0  0  0  0  0  0
  -18.2305  -39.1825   -8.2819 N   0  0  0  0  0  0  0  0  0  0  0  0
  -17.6123  -41.8451   -6.2498 C   0  0  0  0  0  0  0  0  0  0  0  0
  -18.6038  -42.6520   -6.7481 C   0  0  0  0  0  0  0  0  0  0  0  0
  -19.7956  -42.1416   -6.3013 C   0  0  0  0  0  0  0  0  0  0  0  0
  -21.1818  -42.6505   -6.5610 C   0  0  0  0  0  0  0  0  0  0  0  0
  -22.1997  -41.7720   -5.8466 C   0  0  0  0  0  0  0  0  0  0  0  0
  -22.3676  -42.1688   -4.4122 C   0  0  0  0  0  0  0  0  0  0  0  0
  -23.5161  -41.8783   -6.5685 C   0  0  0  0  0  0  0  0  0  0  0  0
  -21.7346  -40.3204   -5.8757 C   0  0  0  0  0  0  0  0  0  0  0  0
  -19.5003  -41.0894   -5.5796 O   0  0  0  0  0  0  0  0  0  0  0  0
  -18.2191  -40.9005   -5.5384 N   0  0  0  0  0  0  0  0  0  0  0  0
  2  1  1  1
  2  3  1  0
  3  4  1  0
  4  5  1  0
  5  6  1  6
  5  7  1  0
  7  8  1  1
  8  9  1  0
  9 10  2  0
 10 11  1  0
 11 12  2  0
 12 13  1  0
 13 14  2  0
 11 15  1  0
 15 16  1  0
 16 17  1  0
 17 18  1  0
 18 19  1  0
 19 20  1  0
 20 21  1  0
 21 22  2  0
 22 23  1  0
 23 24  2  0
 24 25  1  0
 25 26  2  0
 23 27  1  0
 27 28  2  0
 27 29  1  0
  2 30  1  0
 30 31  1  0
 31 32  2  0
 32 33  1  0
 33 34  1  0
 34 35  1  0
 34 36  1  0
 34 37  1  0
 32 38  1  0
 38 39  1  0
 14  9  1  0
 26 21  1  0
 29  7  1  0
 39 30  2  0
M  END
$$$$
