
     RDKit          3D

 39 42  0  0  0  0  0  0  0  0999 V2000
  -14.3984  -42.1756  -10.5424 C   0  0  0  0  0  0  0  0  0  0  0  0
  -14.1814  -40.7915   -9.9756 C   0  0  2  0  0  0  0  0  0  0  0  0
  -15.3439  -40.4721   -9.1684 N   0  0  0  0  0  0  0  0  0  0  0  0
  -15.0118  -39.8463   -7.9301 C   0  0  0  0  0  0  0  0  0  0  0  0
  -16.0935  -38.9601   -7.3890 C   0  0  1  0  0  0  0  0  0  0  0  0
  -16.4668  -38.0525   -8.3699 O   0  0  0  0  0  0  0  0  0  0  0  0
  -17.3378  -39.7468   -6.9795 C   0  0  2  0  0  0  0  0  0  0  0  0
  -18.2616  -38.9140   -6.0905 C   0  0  0  0  0  0  0  0  0  0  0  0
  -19.6159  -38.7253   -6.7230 C   0  0  0  0  0  0  0  0  0  0  0  0
  -20.6832  -39.5860   -6.8145 C   0  0  0  0  0  0  0  0  0  0  0  0
  -21.8145  -39.1304   -7.4674 C   0  0  0  0  0  0  0  0  0  0  0  0
  -21.8485  -37.8251   -8.0141 C   0  0  0  0  0  0  0  0  0  0  0  0
  -20.7988  -36.9508   -7.9361 C   0  0  0  0  0  0  0  0  0  0  0  0
  -19.6920  -37.4303   -7.2823 C   0  0  0  0  0  0  0  0  0  0  0  0
  -23.0078  -39.7776   -7.6975 O   0  0  0  0  0  0  0  0  0  0  0  0
  -23.9396  -40.5126   -7.0050 C   0  0  0  0  0  0  0  0  0  0  0  0
  -23.5323  -41.9542   -6.7720 C   0  0  0  0  0  0  0  0  0  0  0  0
  -23.1195  -42.2235   -5.3588 C   0  0  0  0  0  0  0  0  0  0  0  0
  -22.8679  -43.6920   -5.1431 C   0  0  0  0  0  0  0  0  0  0  0  0
  -21.8555  -44.2624   -5.8596 O   0  0  0  0  0  0  0  0  0  0  0  0
  -20.7050  -43.9382   -6.5406 C   0  0  0  0  0  0  0  0  0  0  0  0
  -19.6032  -43.2165   -6.1177 C   0  0  0  0  0  0  0  0  0  0  0  0
  -18.5832  -43.0415   -7.0209 C   0  0  0  0  0  0  0  0  0  0  0  0
  -18.7091  -43.6038   -8.3198 C   0  0  0  0  0  0  0  0  0  0  0  0
  -19.7655  -44.2999   -8.7328 N   0  0  0  0  0  0  0  0  0  0  0  0
  -20.7456  -44.4609   -7.8506 C   0  0  0  0  0  0  0  0  0  0  0  0
  -17.2944  -42.3272   -6.9199 C   0  0  0  0  0  0  0  0  0  0  0  0
  -16.2835  -43.0622   -7.3456 O   0  0  0  0  0  0  0  0  0  0  0  0
  -16.9792  -41.0166   -6.4539 N   0  0  0  0  0  0  0  0  0  0  0  0
  -14.0520  -39.8529  -11.1252 C   0  0  0  0  0  0  0  0  0  0  0  0
  -13.5003  -38.5971  -11.1579 C   0  0  0  0  0  0  0  0  0  0  0  0
  -13.6247  -38.1402  -12.4449 C   0  0  0  0  0  0  0  0  0  0  0  0
  -13.1829  -36.8245  -13.0122 C   0  0  0  0  0  0  0  0  0  0  0  0
  -11.7661  -36.9437  -13.5572 C   0  0  0  0  0  0  0  0  0  0  0  0
  -10.9092  -35.7899  -13.1358 C   0  0  0  0  0  0  0  0  0  0  0  0
  -11.8339  -37.0142  -15.0591 C   0  0  0  0  0  0  0  0  0  0  0  0
  -11.1194  -38.2196  -13.0299 C   0  0  0  0  0  0  0  0  0  0  0  0
  -14.2211  -39.0914  -13.1193 O   0  0  0  0  0  0  0  0  0  0  0  0
  -14.4796  -40.1073  -12.3577 N   0  0  0  0  0  0  0  0  0  0  0  0
  2  1  1  6
  2  3  1  0
  3  4  1  0
  4  5  1  0
  5  6  1  6
  5  7  1  0
  7  8  1  1
  8  9  1  0
  9 10  2  0
 10 11  1  0
 11 12  2  0
 12 13  1  0
 13 14  2  0
 11 15  1  0
 15 16  1  0
 16 17  1  0
 17 18  1  0
 18 19  1  0
 19 20  1  0
 20 21  1  0
 21 22  2  0
 22 23  1  0
 23 24  2  0
 24 25  1  0
 25 26  2  0
 23 27  1  0
 27 28  2  0
 27 29  1  0
  2 30  1  0
 30 31  1  0
 31 32  2  0
 32 33  1  0
 33 34  1  0
 34 35  1  0
 34 36  1  0
 34 37  1  0
 32 38  1  0
 38 39  1  0
 14  9  1  0
 26 21  1  0
 29  7  1  0
 39 30  2  0
M  END
$$$$
