
     RDKit          3D

 39 42  0  0  0  0  0  0  0  0999 V2000
  -15.5523  -41.0029  -11.1146 C   0  0  0  0  0  0  0  0  0  0  0  0
  -14.5569  -40.2339  -10.2769 C   0  0  2  0  0  0  0  0  0  0  0  0
  -15.3177  -39.3959   -9.3692 N   0  0  0  0  0  0  0  0  0  0  0  0
  -16.5840  -39.0037   -9.8965 C   0  0  0  0  0  0  0  0  0  0  0  0
  -17.4289  -38.2274   -8.9312 C   0  0  1  0  0  0  0  0  0  0  0  0
  -18.3543  -37.4774   -9.6427 O   0  0  0  0  0  0  0  0  0  0  0  0
  -18.1981  -39.1354   -7.9727 C   0  0  2  0  0  0  0  0  0  0  0  0
  -18.9304  -38.3284   -6.9005 C   0  0  0  0  0  0  0  0  0  0  0  0
  -20.4200  -38.5437   -6.9668 C   0  0  0  0  0  0  0  0  0  0  0  0
  -21.1880  -39.5943   -6.5254 C   0  0  0  0  0  0  0  0  0  0  0  0
  -22.5538  -39.5150   -6.7306 C   0  0  0  0  0  0  0  0  0  0  0  0
  -23.1166  -38.3868   -7.3743 C   0  0  0  0  0  0  0  0  0  0  0  0
  -22.3727  -37.3295   -7.8227 C   0  0  0  0  0  0  0  0  0  0  0  0
  -21.0225  -37.4362   -7.6041 C   0  0  0  0  0  0  0  0  0  0  0  0
  -23.5395  -40.4148   -6.3919 O   0  0  0  0  0  0  0  0  0  0  0  0
  -23.9412  -41.1528   -5.3048 C   0  0  0  0  0  0  0  0  0  0  0  0
  -23.1184  -42.4057   -5.0772 C   0  0  0  0  0  0  0  0  0  0  0  0
  -22.1780  -42.2848   -3.9192 C   0  0  0  0  0  0  0  0  0  0  0  0
  -21.4943  -43.5972   -3.6429 C   0  0  0  0  0  0  0  0  0  0  0  0
  -20.6895  -44.0992   -4.6248 O   0  0  0  0  0  0  0  0  0  0  0  0
  -19.9805  -43.7098   -5.7376 C   0  0  0  0  0  0  0  0  0  0  0  0
  -19.0283  -42.7157   -5.8736 C   0  0  0  0  0  0  0  0  0  0  0  0
  -18.4763  -42.5416   -7.1193 C   0  0  0  0  0  0  0  0  0  0  0  0
  -18.9024  -43.3795   -8.1849 C   0  0  0  0  0  0  0  0  0  0  0  0
  -19.8170  -44.3383   -8.0608 N   0  0  0  0  0  0  0  0  0  0  0  0
  -20.3442  -44.4956   -6.8517 C   0  0  0  0  0  0  0  0  0  0  0  0
  -17.4678  -41.5864   -7.6215 C   0  0  0  0  0  0  0  0  0  0  0  0
  -16.5190  -42.1848   -8.3177 O   0  0  0  0  0  0  0  0  0  0  0  0
  -17.3603  -40.1712   -7.4803 N   0  0  0  0  0  0  0  0  0  0  0  0
  -13.7337  -39.4095  -11.2055 C   0  0  0  0  0  0  0  0  0  0  0  0
  -12.7801  -38.4680  -10.9110 C   0  0  0  0  0  0  0  0  0  0  0  0
  -12.3118  -37.9871  -12.1069 C   0  0  0  0  0  0  0  0  0  0  0  0
  -11.2623  -36.9428  -12.3432 C   0  0  0  0  0  0  0  0  0  0  0  0
   -9.8946  -37.6002  -12.4685 C   0  0  0  0  0  0  0  0  0  0  0  0
   -9.5184  -38.3433  -11.2237 C   0  0  0  0  0  0  0  0  0  0  0  0
   -8.8741  -36.5332  -12.7604 C   0  0  0  0  0  0  0  0  0  0  0  0
   -9.9096  -38.5997  -13.6196 C   0  0  0  0  0  0  0  0  0  0  0  0
  -12.9677  -38.6244  -13.0444 O   0  0  0  0  0  0  0  0  0  0  0  0
  -13.8088  -39.4659  -12.5313 N   0  0  0  0  0  0  0  0  0  0  0  0
  2  1  1  6
  2  3  1  0
  3  4  1  0
  4  5  1  0
  5  6  1  6
  5  7  1  0
  7  8  1  1
  8  9  1  0
  9 10  2  0
 10 11  1  0
 11 12  2  0
 12 13  1  0
 13 14  2  0
 11 15  1  0
 15 16  1  0
 16 17  1  0
 17 18  1  0
 18 19  1  0
 19 20  1  0
 20 21  1  0
 21 22  2  0
 22 23  1  0
 23 24  2  0
 24 25  1  0
 25 26  2  0
 23 27  1  0
 27 28  2  0
 27 29  1  0
  2 30  1  0
 30 31  1  0
 31 32  2  0
 32 33  1  0
 33 34  1  0
 34 35  1  0
 34 36  1  0
 34 37  1  0
 32 38  1  0
 38 39  1  0
 14  9  1  0
 26 21  1  0
 29  7  1  0
 39 30  2  0
M  END
$$$$
