
     RDKit          3D

 39 42  0  0  0  0  0  0  0  0999 V2000
  -15.7038  -39.0728   -9.9013 C   0  0  0  0  0  0  0  0  0  0  0  0
  -15.4088  -37.7183  -10.5031 C   0  0  2  0  0  0  0  0  0  0  0  0
  -16.6335  -37.2494  -11.1237 N   0  0  0  0  0  0  0  0  0  0  0  0
  -17.8058  -37.6159  -10.3979 C   0  0  0  0  0  0  0  0  0  0  0  0
  -17.5536  -37.9184   -8.9511 C   0  0  1  0  0  0  0  0  0  0  0  0
  -18.2365  -36.9963   -8.1710 O   0  0  0  0  0  0  0  0  0  0  0  0
  -18.0352  -39.3142   -8.5576 C   0  0  2  0  0  0  0  0  0  0  0  0
  -18.2940  -39.4159   -7.0542 C   0  0  0  0  0  0  0  0  0  0  0  0
  -19.7331  -39.7525   -6.7621 C   0  0  0  0  0  0  0  0  0  0  0  0
  -20.3986  -40.9527   -6.8329 C   0  0  0  0  0  0  0  0  0  0  0  0
  -21.7420  -40.9563   -6.5030 C   0  0  0  0  0  0  0  0  0  0  0  0
  -22.3863  -39.7580   -6.1121 C   0  0  0  0  0  0  0  0  0  0  0  0
  -21.7452  -38.5516   -6.0346 C   0  0  0  0  0  0  0  0  0  0  0  0
  -20.4143  -38.5798   -6.3666 C   0  0  0  0  0  0  0  0  0  0  0  0
  -22.6329  -42.0060   -6.4887 O   0  0  0  0  0  0  0  0  0  0  0  0
  -22.7118  -43.2932   -6.0145 C   0  0  0  0  0  0  0  0  0  0  0  0
  -21.9733  -44.3062   -6.8670 C   0  0  0  0  0  0  0  0  0  0  0  0
  -20.6936  -44.7709   -6.2454 C   0  0  0  0  0  0  0  0  0  0  0  0
  -20.0746  -45.8793   -7.0544 C   0  0  0  0  0  0  0  0  0  0  0  0
  -19.6908  -45.5801   -8.3299 O   0  0  0  0  0  0  0  0  0  0  0  0
  -19.3626  -44.5110   -9.1311 C   0  0  0  0  0  0  0  0  0  0  0  0
  -18.4273  -43.5120   -8.9296 C   0  0  0  0  0  0  0  0  0  0  0  0
  -18.3097  -42.5557   -9.9086 C   0  0  0  0  0  0  0  0  0  0  0  0
  -19.1386  -42.6422  -11.0595 C   0  0  0  0  0  0  0  0  0  0  0  0
  -20.0396  -43.6010  -11.2601 N   0  0  0  0  0  0  0  0  0  0  0  0
  -20.1446  -44.5188  -10.3056 C   0  0  0  0  0  0  0  0  0  0  0  0
  -17.4471  -41.3615  -10.0159 C   0  0  0  0  0  0  0  0  0  0  0  0
  -16.8413  -41.2889  -11.1867 O   0  0  0  0  0  0  0  0  0  0  0  0
  -17.1752  -40.3113   -9.0900 N   0  0  0  0  0  0  0  0  0  0  0  0
  -14.3314  -37.9038  -11.5152 C   0  0  0  0  0  0  0  0  0  0  0  0
  -13.3930  -37.0040  -11.9535 C   0  0  0  0  0  0  0  0  0  0  0  0
  -12.6288  -37.6497  -12.8914 C   0  0  0  0  0  0  0  0  0  0  0  0
  -11.4691  -37.1137  -13.6762 C   0  0  0  0  0  0  0  0  0  0  0  0
  -10.1658  -37.4184  -12.9503 C   0  0  0  0  0  0  0  0  0  0  0  0
   -8.9711  -37.0214  -13.7617 C   0  0  0  0  0  0  0  0  0  0  0  0
  -10.1176  -38.8922  -12.6487 C   0  0  0  0  0  0  0  0  0  0  0  0
  -10.1155  -36.6425  -11.6390 C   0  0  0  0  0  0  0  0  0  0  0  0
  -13.1079  -38.8649  -12.9863 O   0  0  0  0  0  0  0  0  0  0  0  0
  -14.1105  -39.0317  -12.1828 N   0  0  0  0  0  0  0  0  0  0  0  0
  2  1  1  6
  2  3  1  0
  3  4  1  0
  4  5  1  0
  5  6  1  1
  5  7  1  0
  7  8  1  1
  8  9  1  0
  9 10  2  0
 10 11  1  0
 11 12  2  0
 12 13  1  0
 13 14  2  0
 11 15  1  0
 15 16  1  0
 16 17  1  0
 17 18  1  0
 18 19  1  0
 19 20  1  0
 20 21  1  0
 21 22  2  0
 22 23  1  0
 23 24  2  0
 24 25  1  0
 25 26  2  0
 23 27  1  0
 27 28  2  0
 27 29  1  0
  2 30  1  0
 30 31  1  0
 31 32  2  0
 32 33  1  0
 33 34  1  0
 34 35  1  0
 34 36  1  0
 34 37  1  0
 32 38  1  0
 38 39  1  0
 14  9  1  0
 26 21  1  0
 29  7  1  0
 39 30  2  0
M  END
$$$$
