
     RDKit          3D

 39 42  0  0  0  0  0  0  0  0999 V2000
  -12.7994  -38.0518  -10.0829 C   0  0  0  0  0  0  0  0  0  0  0  0
  -14.1905  -38.4189  -10.5454 C   0  0  2  0  0  0  0  0  0  0  0  0
  -14.9812  -38.6825   -9.3578 N   0  0  0  0  0  0  0  0  0  0  0  0
  -16.3867  -38.6235   -9.5955 C   0  0  0  0  0  0  0  0  0  0  0  0
  -17.1736  -38.0694   -8.4457 C   0  0  1  0  0  0  0  0  0  0  0  0
  -18.1288  -37.1896   -8.9344 O   0  0  0  0  0  0  0  0  0  0  0  0
  -17.8990  -39.1605   -7.6595 C   0  0  2  0  0  0  0  0  0  0  0  0
  -18.7026  -38.5757   -6.4978 C   0  0  0  0  0  0  0  0  0  0  0  0
  -20.1733  -38.8705   -6.6386 C   0  0  0  0  0  0  0  0  0  0  0  0
  -20.8785  -40.0223   -6.3849 C   0  0  0  0  0  0  0  0  0  0  0  0
  -22.2425  -39.9974   -6.6143 C   0  0  0  0  0  0  0  0  0  0  0  0
  -22.8663  -38.8206   -7.0938 C   0  0  0  0  0  0  0  0  0  0  0  0
  -22.1855  -37.6625   -7.3540 C   0  0  0  0  0  0  0  0  0  0  0  0
  -20.8354  -37.7176   -7.1161 C   0  0  0  0  0  0  0  0  0  0  0  0
  -23.1729  -40.9982   -6.4453 O   0  0  0  0  0  0  0  0  0  0  0  0
  -23.5452  -41.9187   -5.4955 C   0  0  0  0  0  0  0  0  0  0  0  0
  -22.6462  -43.1380   -5.4388 C   0  0  0  0  0  0  0  0  0  0  0  0
  -21.7374  -43.1390   -4.2497 C   0  0  0  0  0  0  0  0  0  0  0  0
  -20.9740  -44.4332   -4.1578 C   0  0  0  0  0  0  0  0  0  0  0  0
  -20.1198  -44.7267   -5.1816 O   0  0  0  0  0  0  0  0  0  0  0  0
  -19.4175  -44.1269   -6.2012 C   0  0  0  0  0  0  0  0  0  0  0  0
  -18.5304  -43.0664   -6.1565 C   0  0  0  0  0  0  0  0  0  0  0  0
  -17.9681  -42.6683   -7.3448 C   0  0  0  0  0  0  0  0  0  0  0  0
  -18.3183  -43.3565   -8.5376 C   0  0  0  0  0  0  0  0  0  0  0  0
  -19.1699  -44.3780   -8.5875 N   0  0  0  0  0  0  0  0  0  0  0  0
  -19.7079  -44.7525   -7.4322 C   0  0  0  0  0  0  0  0  0  0  0  0
  -17.0156  -41.5861   -7.6662 C   0  0  0  0  0  0  0  0  0  0  0  0
  -16.0166  -42.0097   -8.4185 O   0  0  0  0  0  0  0  0  0  0  0  0
  -17.0041  -40.2057   -7.3075 N   0  0  0  0  0  0  0  0  0  0  0  0
  -14.0726  -39.6384  -11.3930 C   0  0  0  0  0  0  0  0  0  0  0  0
  -13.4234  -40.8173  -11.1258 C   0  0  0  0  0  0  0  0  0  0  0  0
  -13.6012  -41.6270  -12.2182 C   0  0  0  0  0  0  0  0  0  0  0  0
  -13.0940  -43.0210  -12.4358 C   0  0  0  0  0  0  0  0  0  0  0  0
  -11.6728  -42.9773  -12.9806 C   0  0  0  0  0  0  0  0  0  0  0  0
  -11.5219  -43.8202  -14.2093 C   0  0  0  0  0  0  0  0  0  0  0  0
  -10.7325  -43.4567  -11.9076 C   0  0  0  0  0  0  0  0  0  0  0  0
  -11.3102  -41.5441  -13.3530 C   0  0  0  0  0  0  0  0  0  0  0  0
  -14.3199  -40.9427  -13.0729 O   0  0  0  0  0  0  0  0  0  0  0  0
  -14.6065  -39.7698  -12.6030 N   0  0  0  0  0  0  0  0  0  0  0  0
  2  1  1  1
  2  3  1  0
  3  4  1  0
  4  5  1  0
  5  6  1  6
  5  7  1  0
  7  8  1  1
  8  9  1  0
  9 10  2  0
 10 11  1  0
 11 12  2  0
 12 13  1  0
 13 14  2  0
 11 15  1  0
 15 16  1  0
 16 17  1  0
 17 18  1  0
 18 19  1  0
 19 20  1  0
 20 21  1  0
 21 22  2  0
 22 23  1  0
 23 24  2  0
 24 25  1  0
 25 26  2  0
 23 27  1  0
 27 28  2  0
 27 29  1  0
  2 30  1  0
 30 31  1  0
 31 32  2  0
 32 33  1  0
 33 34  1  0
 34 35  1  0
 34 36  1  0
 34 37  1  0
 32 38  1  0
 38 39  1  0
 14  9  1  0
 26 21  1  0
 29  7  1  0
 39 30  2  0
M  END
$$$$
