
     RDKit          3D

 34 35  0  0  0  0  0  0  0  0999 V2000
  -20.4895  -38.8283   -5.0875 C   0  0  0  0  0  0  0  0  0  0  0  0
  -19.9225  -39.2156   -6.3981 C   0  0  2  0  0  0  0  0  0  0  0  0
  -18.7466  -38.5671   -6.7981 N   0  0  0  0  0  0  0  0  0  0  0  0
  -17.7611  -39.3059   -7.4772 C   0  0  0  0  0  0  0  0  0  0  0  0
  -16.4940  -38.6876   -7.8885 C   0  0  1  0  0  0  0  0  0  0  0  0
  -15.4501  -39.2381   -7.0452 O   0  0  0  0  0  0  0  0  0  0  0  0
  -16.0617  -39.0406   -9.3052 C   0  0  2  0  0  0  0  0  0  0  0  0
  -15.5166  -37.8748  -10.0718 C   0  0  0  0  0  0  0  0  0  0  0  0
  -13.9942  -37.7814   -9.9220 C   0  0  2  0  0  0  0  0  0  0  0  0
  -13.5110  -36.4236  -10.3064 C   0  0  0  0  0  0  0  0  0  0  0  0
  -13.2939  -38.8902  -10.6744 C   0  0  0  0  0  0  0  0  0  0  0  0
  -11.8370  -38.5959  -10.8582 C   0  0  0  0  0  0  0  0  0  0  0  0
  -10.9854  -39.7144  -10.2938 C   0  0  0  0  0  0  0  0  0  0  0  0
  -10.9614  -40.9377  -11.1661 C   0  0  0  0  0  0  0  0  0  0  0  0
  -10.8055  -42.1453  -10.2579 C   0  0  0  0  0  0  0  0  0  0  0  0
  -11.1877  -43.4279  -10.8998 C   0  0  0  0  0  0  0  0  0  0  0  0
  -12.3358  -44.1426  -10.2123 C   0  0  0  0  0  0  0  0  0  0  0  0
  -13.5358  -43.2595  -10.1796 C   0  0  0  0  0  0  0  0  0  0  0  0
  -14.7981  -43.9692   -9.9141 C   0  0  0  0  0  0  0  0  0  0  0  0
  -14.8165  -45.2125   -9.7486 O   0  0  0  0  0  0  0  0  0  0  0  0
  -16.0041  -43.2261   -9.8468 N   0  0  0  0  0  0  0  0  0  0  0  0
  -17.1529  -43.7105   -9.0641 C   0  0  0  0  0  0  0  0  0  0  0  0
  -16.0737  -41.9885  -10.5627 C   0  0  1  0  0  0  0  0  0  0  0  0
  -16.2178  -42.3188  -12.0326 C   0  0  0  0  0  0  0  0  0  0  0  0
  -17.1992  -41.1115  -10.1953 C   0  0  0  0  0  0  0  0  0  0  0  0
  -18.3325  -41.6578  -10.0143 O   0  0  0  0  0  0  0  0  0  0  0  0
  -17.1399  -39.7061  -10.0232 N   0  0  0  0  0  0  0  0  0  0  0  0
  -20.9958  -39.1103   -7.4720 C   0  0  0  0  0  0  0  0  0  0  0  0
  -21.3404  -37.8916   -7.9530 C   0  0  0  0  0  0  0  0  0  0  0  0
  -22.3189  -37.7832   -8.9323 C   0  0  0  0  0  0  0  0  0  0  0  0
  -22.9410  -38.9062   -9.4179 C   0  0  0  0  0  0  0  0  0  0  0  0
  -22.5755  -40.1463   -8.9139 C   0  0  0  0  0  0  0  0  0  0  0  0
  -23.4204  -41.7070   -9.5710 Br  0  0  0  0  0  0  0  0  0  0  0  0
  -21.6010  -40.2368   -7.9403 C   0  0  0  0  0  0  0  0  0  0  0  0
  2  1  1  1
  2  3  1  0
  3  4  1  0
  4  5  1  0
  5  6  1  1
  5  7  1  0
  7  8  1  6
  8  9  1  0
  9 10  1  6
  9 11  1  0
 11 12  1  0
 12 13  1  0
 13 14  1  0
 14 15  1  0
 15 16  1  0
 16 17  1  0
 17 18  1  0
 18 19  1  0
 19 20  2  0
 19 21  1  0
 21 22  1  0
 21 23  1  0
 23 24  1  6
 23 25  1  0
 25 26  2  0
 25 27  1  0
  2 28  1  0
 28 29  2  0
 29 30  1  0
 30 31  2  0
 31 32  1  0
 32 33  1  0
 32 34  2  0
 27  7  1  0
 34 28  1  0
M  END
$$$$
