
     RDKit          3D

 34 35  0  0  0  0  0  0  0  0999 V2000
  -13.4319  -36.9569  -11.4893 C   0  0  0  0  0  0  0  0  0  0  0  0
  -14.0961  -38.2302  -11.1337 C   0  0  2  0  0  0  0  0  0  0  0  0
  -14.6462  -38.3225   -9.8483 N   0  0  0  0  0  0  0  0  0  0  0  0
  -15.9540  -38.8192   -9.7034 C   0  0  0  0  0  0  0  0  0  0  0  0
  -16.8485  -38.3145   -8.6537 C   0  0  1  0  0  0  0  0  0  0  0  0
  -18.0703  -37.8756   -9.3005 O   0  0  0  0  0  0  0  0  0  0  0  0
  -17.3052  -39.3769   -7.6631 C   0  0  2  0  0  0  0  0  0  0  0  0
  -17.6830  -38.8224   -6.3238 C   0  0  0  0  0  0  0  0  0  0  0  0
  -19.1819  -38.5086   -6.2614 C   0  0  2  0  0  0  0  0  0  0  0  0
  -19.4781  -37.5836   -5.1293 C   0  0  0  0  0  0  0  0  0  0  0  0
  -20.0117  -39.7718   -6.2219 C   0  0  0  0  0  0  0  0  0  0  0  0
  -21.4150  -39.4950   -5.7781 C   0  0  0  0  0  0  0  0  0  0  0  0
  -22.4129  -39.9891   -6.8051 C   0  0  0  0  0  0  0  0  0  0  0  0
  -22.5858  -41.4818   -6.7916 C   0  0  0  0  0  0  0  0  0  0  0  0
  -22.9101  -41.9185   -8.2099 C   0  0  0  0  0  0  0  0  0  0  0  0
  -22.6910  -43.3662   -8.4532 C   0  0  0  0  0  0  0  0  0  0  0  0
  -21.6554  -43.6613   -9.5218 C   0  0  0  0  0  0  0  0  0  0  0  0
  -20.3506  -43.0469   -9.1465 C   0  0  0  0  0  0  0  0  0  0  0  0
  -19.1955  -43.5934   -9.8779 C   0  0  0  0  0  0  0  0  0  0  0  0
  -19.3423  -44.5061  -10.7259 O   0  0  0  0  0  0  0  0  0  0  0  0
  -17.9036  -43.0729   -9.6114 N   0  0  0  0  0  0  0  0  0  0  0  0
  -16.8383  -43.1266  -10.6259 C   0  0  0  0  0  0  0  0  0  0  0  0
  -17.6634  -42.4921   -8.3254 C   0  0  1  0  0  0  0  0  0  0  0  0
  -17.5449  -43.6242   -7.3280 C   0  0  0  0  0  0  0  0  0  0  0  0
  -16.4375  -41.6816   -8.2202 C   0  0  0  0  0  0  0  0  0  0  0  0
  -15.3879  -42.1319   -8.7779 O   0  0  0  0  0  0  0  0  0  0  0  0
  -16.3143  -40.4383   -7.5511 N   0  0  0  0  0  0  0  0  0  0  0  0
  -13.1542  -39.3937  -11.4086 C   0  0  0  0  0  0  0  0  0  0  0  0
  -13.5511  -40.3924  -12.2335 C   0  0  0  0  0  0  0  0  0  0  0  0
  -12.7006  -41.4594  -12.4910 C   0  0  0  0  0  0  0  0  0  0  0  0
  -11.4564  -41.5090  -11.9135 C   0  0  0  0  0  0  0  0  0  0  0  0
  -11.0663  -40.4775  -11.0714 C   0  0  0  0  0  0  0  0  0  0  0  0
   -9.3543  -40.5266  -10.2663 Br  0  0  0  0  0  0  0  0  0  0  0  0
  -11.9238  -39.4240  -10.8256 C   0  0  0  0  0  0  0  0  0  0  0  0
  2  1  1  1
  2  3  1  0
  3  4  1  0
  4  5  1  0
  5  6  1  6
  5  7  1  0
  7  8  1  1
  8  9  1  0
  9 10  1  1
  9 11  1  0
 11 12  1  0
 12 13  1  0
 13 14  1  0
 14 15  1  0
 15 16  1  0
 16 17  1  0
 17 18  1  0
 18 19  1  0
 19 20  2  0
 19 21  1  0
 21 22  1  0
 21 23  1  0
 23 24  1  1
 23 25  1  0
 25 26  2  0
 25 27  1  0
  2 28  1  0
 28 29  2  0
 29 30  1  0
 30 31  2  0
 31 32  1  0
 32 33  1  0
 32 34  2  0
 27  7  1  0
 34 28  1  0
M  END
$$$$
