
     RDKit          3D

 34 35  0  0  0  0  0  0  0  0999 V2000
  -14.4991  -35.6873  -10.0720 C   0  0  0  0  0  0  0  0  0  0  0  0
  -14.3087  -37.0790  -10.5365 C   0  0  2  0  0  0  0  0  0  0  0  0
  -14.2410  -38.0737   -9.5518 N   0  0  0  0  0  0  0  0  0  0  0  0
  -15.4351  -38.6623   -9.0982 C   0  0  0  0  0  0  0  0  0  0  0  0
  -16.2241  -38.0512   -8.0208 C   0  0  1  0  0  0  0  0  0  0  0  0
  -17.1537  -37.1242   -8.6375 O   0  0  0  0  0  0  0  0  0  0  0  0
  -17.1119  -39.0326   -7.2675 C   0  0  2  0  0  0  0  0  0  0  0  0
  -17.8165  -38.4225   -6.0948 C   0  0  0  0  0  0  0  0  0  0  0  0
  -19.2002  -37.8994   -6.4958 C   0  0  2  0  0  0  0  0  0  0  0  0
  -19.7120  -36.9354   -5.4792 C   0  0  0  0  0  0  0  0  0  0  0  0
  -20.1632  -39.0323   -6.7700 C   0  0  0  0  0  0  0  0  0  0  0  0
  -21.5833  -38.5571   -6.7807 C   0  0  0  0  0  0  0  0  0  0  0  0
  -22.2607  -38.9110   -8.0887 C   0  0  0  0  0  0  0  0  0  0  0  0
  -22.6302  -40.3640   -8.1894 C   0  0  0  0  0  0  0  0  0  0  0  0
  -22.5433  -40.7586   -9.6538 C   0  0  0  0  0  0  0  0  0  0  0  0
  -22.4572  -42.2241   -9.8727 C   0  0  0  0  0  0  0  0  0  0  0  0
  -21.1860  -42.6689  -10.5710 C   0  0  0  0  0  0  0  0  0  0  0  0
  -19.9973  -42.2431   -9.7795 C   0  0  0  0  0  0  0  0  0  0  0  0
  -18.7554  -42.9518  -10.1304 C   0  0  0  0  0  0  0  0  0  0  0  0
  -18.7478  -43.8394  -11.0169 O   0  0  0  0  0  0  0  0  0  0  0  0
  -17.5570  -42.6178   -9.4498 N   0  0  0  0  0  0  0  0  0  0  0  0
  -16.2423  -42.8275  -10.0780 C   0  0  0  0  0  0  0  0  0  0  0  0
  -17.6611  -42.0695   -8.1318 C   0  0  1  0  0  0  0  0  0  0  0  0
  -18.0208  -43.2012   -7.1935 C   0  0  0  0  0  0  0  0  0  0  0  0
  -16.4340  -41.4400   -7.6134 C   0  0  0  0  0  0  0  0  0  0  0  0
  -15.3331  -42.0375   -7.8291 O   0  0  0  0  0  0  0  0  0  0  0  0
  -16.3619  -40.2228   -6.8910 N   0  0  0  0  0  0  0  0  0  0  0  0
  -13.1055  -37.1489  -11.4659 C   0  0  0  0  0  0  0  0  0  0  0  0
  -11.9020  -36.7019  -11.0334 C   0  0  0  0  0  0  0  0  0  0  0  0
  -10.7974  -36.7600  -11.8728 C   0  0  0  0  0  0  0  0  0  0  0  0
  -10.9172  -37.2690  -13.1418 C   0  0  0  0  0  0  0  0  0  0  0  0
  -12.1573  -37.7224  -13.5682 C   0  0  0  0  0  0  0  0  0  0  0  0
  -12.3433  -38.4290  -15.3140 Br  0  0  0  0  0  0  0  0  0  0  0  0
  -13.2456  -37.6575  -12.7214 C   0  0  0  0  0  0  0  0  0  0  0  0
  2  1  1  1
  2  3  1  0
  3  4  1  0
  4  5  1  0
  5  6  1  6
  5  7  1  0
  7  8  1  1
  8  9  1  0
  9 10  1  1
  9 11  1  0
 11 12  1  0
 12 13  1  0
 13 14  1  0
 14 15  1  0
 15 16  1  0
 16 17  1  0
 17 18  1  0
 18 19  1  0
 19 20  2  0
 19 21  1  0
 21 22  1  0
 21 23  1  0
 23 24  1  1
 23 25  1  0
 25 26  2  0
 25 27  1  0
  2 28  1  0
 28 29  2  0
 29 30  1  0
 30 31  2  0
 31 32  1  0
 32 33  1  0
 32 34  2  0
 27  7  1  0
 34 28  1  0
M  END
$$$$
