
     RDKit          3D

 34 35  0  0  0  0  0  0  0  0999 V2000
  -13.1977  -40.9702  -10.3603 C   0  0  0  0  0  0  0  0  0  0  0  0
  -13.6538  -39.6380   -9.9061 C   0  0  2  0  0  0  0  0  0  0  0  0
  -15.0377  -39.4257   -9.8492 N   0  0  0  0  0  0  0  0  0  0  0  0
  -15.7260  -39.7480   -8.6657 C   0  0  0  0  0  0  0  0  0  0  0  0
  -17.0768  -39.2336   -8.4061 C   0  0  1  0  0  0  0  0  0  0  0  0
  -17.9339  -39.7095   -9.4752 O   0  0  0  0  0  0  0  0  0  0  0  0
  -17.7162  -39.7799   -7.1368 C   0  0  2  0  0  0  0  0  0  0  0  0
  -18.0570  -38.7195   -6.1350 C   0  0  0  0  0  0  0  0  0  0  0  0
  -19.4963  -38.2276   -6.3230 C   0  0  2  0  0  0  0  0  0  0  0  0
  -19.6958  -36.9152   -5.6427 C   0  0  0  0  0  0  0  0  0  0  0  0
  -20.5003  -39.2727   -5.8918 C   0  0  0  0  0  0  0  0  0  0  0  0
  -21.8638  -38.6821   -5.7050 C   0  0  0  0  0  0  0  0  0  0  0  0
  -22.8858  -39.4036   -6.5591 C   0  0  0  0  0  0  0  0  0  0  0  0
  -23.2721  -40.7481   -6.0104 C   0  0  0  0  0  0  0  0  0  0  0  0
  -23.6060  -41.6457   -7.1896 C   0  0  0  0  0  0  0  0  0  0  0  0
  -23.5893  -43.0931   -6.8611 C   0  0  0  0  0  0  0  0  0  0  0  0
  -22.5701  -43.8922   -7.6511 C   0  0  0  0  0  0  0  0  0  0  0  0
  -21.2044  -43.3433   -7.4178 C   0  0  0  0  0  0  0  0  0  0  0  0
  -20.1151  -44.2602   -7.7927 C   0  0  0  0  0  0  0  0  0  0  0  0
  -20.3620  -45.4007   -8.2530 O   0  0  0  0  0  0  0  0  0  0  0  0
  -18.7719  -43.8370   -7.6265 N   0  0  0  0  0  0  0  0  0  0  0  0
  -17.6905  -44.3977   -8.4530 C   0  0  0  0  0  0  0  0  0  0  0  0
  -18.4958  -42.8470   -6.6302 C   0  0  1  0  0  0  0  0  0  0  0  0
  -18.5766  -43.5239   -5.2790 C   0  0  0  0  0  0  0  0  0  0  0  0
  -17.1704  -42.2106   -6.7260 C   0  0  0  0  0  0  0  0  0  0  0  0
  -16.1777  -42.9610   -6.9849 O   0  0  0  0  0  0  0  0  0  0  0  0
  -16.8930  -40.8313   -6.5554 N   0  0  0  0  0  0  0  0  0  0  0  0
  -12.9691  -38.5546  -10.7268 C   0  0  0  0  0  0  0  0  0  0  0  0
  -11.7621  -38.0822  -10.3328 C   0  0  0  0  0  0  0  0  0  0  0  0
  -11.1283  -37.0932  -11.0733 C   0  0  0  0  0  0  0  0  0  0  0  0
  -11.7185  -36.5895  -12.2055 C   0  0  0  0  0  0  0  0  0  0  0  0
  -12.9548  -37.0850  -12.5944 C   0  0  0  0  0  0  0  0  0  0  0  0
  -13.7849  -36.4047  -14.1532 Br  0  0  0  0  0  0  0  0  0  0  0  0
  -13.5717  -38.0681  -11.8471 C   0  0  0  0  0  0  0  0  0  0  0  0
  2  1  1  6
  2  3  1  0
  3  4  1  0
  4  5  1  0
  5  6  1  6
  5  7  1  0
  7  8  1  1
  8  9  1  0
  9 10  1  1
  9 11  1  0
 11 12  1  0
 12 13  1  0
 13 14  1  0
 14 15  1  0
 15 16  1  0
 16 17  1  0
 17 18  1  0
 18 19  1  0
 19 20  2  0
 19 21  1  0
 21 22  1  0
 21 23  1  0
 23 24  1  1
 23 25  1  0
 25 26  2  0
 25 27  1  0
  2 28  1  0
 28 29  2  0
 29 30  1  0
 30 31  2  0
 31 32  1  0
 32 33  1  0
 32 34  2  0
 27  7  1  0
 34 28  1  0
M  END
$$$$
