
     RDKit          3D

 34 35  0  0  0  0  0  0  0  0999 V2000
  -15.6318  -40.3381  -12.4271 C   0  0  0  0  0  0  0  0  0  0  0  0
  -15.2892  -40.5834  -11.0089 C   0  0  2  0  0  0  0  0  0  0  0  0
  -15.7934  -39.6762  -10.0674 N   0  0  0  0  0  0  0  0  0  0  0  0
  -16.4675  -40.1742   -8.9379 C   0  0  0  0  0  0  0  0  0  0  0  0
  -17.2570  -39.2900   -8.0709 C   0  0  1  0  0  0  0  0  0  0  0  0
  -18.3419  -38.7551   -8.8712 O   0  0  0  0  0  0  0  0  0  0  0  0
  -17.9523  -40.0065   -6.9212 C   0  0  2  0  0  0  0  0  0  0  0  0
  -18.3327  -39.0974   -5.7930 C   0  0  0  0  0  0  0  0  0  0  0  0
  -19.7611  -38.5704   -5.9692 C   0  0  2  0  0  0  0  0  0  0  0  0
  -19.9857  -37.3672   -5.1168 C   0  0  0  0  0  0  0  0  0  0  0  0
  -20.7859  -39.6572   -5.7353 C   0  0  0  0  0  0  0  0  0  0  0  0
  -22.1544  -39.0869   -5.5235 C   0  0  0  0  0  0  0  0  0  0  0  0
  -23.1408  -39.6692   -6.5148 C   0  0  0  0  0  0  0  0  0  0  0  0
  -23.5546  -41.0748   -6.1815 C   0  0  0  0  0  0  0  0  0  0  0  0
  -23.8399  -41.7912   -7.4903 C   0  0  0  0  0  0  0  0  0  0  0  0
  -23.8418  -43.2708   -7.3724 C   0  0  0  0  0  0  0  0  0  0  0  0
  -22.7918  -43.9579   -8.2251 C   0  0  0  0  0  0  0  0  0  0  0  0
  -21.4358  -43.4606   -7.8578 C   0  0  0  0  0  0  0  0  0  0  0  0
  -20.3342  -44.3244   -8.3140 C   0  0  0  0  0  0  0  0  0  0  0  0
  -20.5644  -45.3850   -8.9431 O   0  0  0  0  0  0  0  0  0  0  0  0
  -18.9981  -43.9418   -8.0321 N   0  0  0  0  0  0  0  0  0  0  0  0
  -17.8837  -44.3882   -8.8840 C   0  0  0  0  0  0  0  0  0  0  0  0
  -18.7623  -43.1072   -6.8934 C   0  0  1  0  0  0  0  0  0  0  0  0
  -18.9035  -43.9699   -5.6579 C   0  0  0  0  0  0  0  0  0  0  0  0
  -17.4321  -42.4759   -6.8407 C   0  0  0  0  0  0  0  0  0  0  0  0
  -16.4314  -43.1906   -7.1623 O   0  0  0  0  0  0  0  0  0  0  0  0
  -17.1581  -41.1378   -6.4624 N   0  0  0  0  0  0  0  0  0  0  0  0
  -13.7819  -40.7373  -10.8649 C   0  0  0  0  0  0  0  0  0  0  0  0
  -13.2133  -41.9504  -11.0662 C   0  0  0  0  0  0  0  0  0  0  0  0
  -11.8392  -42.1030  -10.9369 C   0  0  0  0  0  0  0  0  0  0  0  0
  -11.0507  -41.0295  -10.6055 C   0  0  0  0  0  0  0  0  0  0  0  0
  -11.6499  -39.7944  -10.4031 C   0  0  0  0  0  0  0  0  0  0  0  0
  -10.5802  -38.3014   -9.9467 Br  0  0  0  0  0  0  0  0  0  0  0  0
  -13.0174  -39.6596  -10.5354 C   0  0  0  0  0  0  0  0  0  0  0  0
  2  1  1  6
  2  3  1  0
  3  4  1  0
  4  5  1  0
  5  6  1  6
  5  7  1  0
  7  8  1  1
  8  9  1  0
  9 10  1  1
  9 11  1  0
 11 12  1  0
 12 13  1  0
 13 14  1  0
 14 15  1  0
 15 16  1  0
 16 17  1  0
 17 18  1  0
 18 19  1  0
 19 20  2  0
 19 21  1  0
 21 22  1  0
 21 23  1  0
 23 24  1  1
 23 25  1  0
 25 26  2  0
 25 27  1  0
  2 28  1  0
 28 29  2  0
 29 30  1  0
 30 31  2  0
 31 32  1  0
 32 33  1  0
 32 34  2  0
 27  7  1  0
 34 28  1  0
M  END
$$$$
