
     RDKit          3D

 34 35  0  0  0  0  0  0  0  0999 V2000
  -14.0547  -41.3494  -10.3849 C   0  0  0  0  0  0  0  0  0  0  0  0
  -13.8942  -39.9000  -10.1349 C   0  0  2  0  0  0  0  0  0  0  0  0
  -15.0090  -39.2144   -9.6344 N   0  0  0  0  0  0  0  0  0  0  0  0
  -15.8675  -39.8766   -8.7385 C   0  0  0  0  0  0  0  0  0  0  0  0
  -16.4639  -39.1741   -7.5951 C   0  0  1  0  0  0  0  0  0  0  0  0
  -17.2358  -38.0654   -8.1231 O   0  0  0  0  0  0  0  0  0  0  0  0
  -17.4762  -40.0029   -6.8160 C   0  0  2  0  0  0  0  0  0  0  0  0
  -18.0241  -39.3001   -5.6119 C   0  0  0  0  0  0  0  0  0  0  0  0
  -19.3135  -38.5459   -5.9547 C   0  0  2  0  0  0  0  0  0  0  0  0
  -19.6176  -37.5244   -4.9111 C   0  0  0  0  0  0  0  0  0  0  0  0
  -20.4633  -39.4965   -6.2006 C   0  0  0  0  0  0  0  0  0  0  0  0
  -21.7823  -38.7890   -6.1523 C   0  0  0  0  0  0  0  0  0  0  0  0
  -22.5574  -39.0047   -7.4359 C   0  0  0  0  0  0  0  0  0  0  0  0
  -23.1702  -40.3732   -7.5341 C   0  0  0  0  0  0  0  0  0  0  0  0
  -23.2051  -40.7554   -9.0039 C   0  0  0  0  0  0  0  0  0  0  0  0
  -23.3756  -42.2111   -9.2380 C   0  0  0  0  0  0  0  0  0  0  0  0
  -22.2243  -42.8532   -9.9887 C   0  0  0  0  0  0  0  0  0  0  0  0
  -20.9525  -42.6452   -9.2403 C   0  0  0  0  0  0  0  0  0  0  0  0
  -19.8617  -43.5475   -9.6450 C   0  0  0  0  0  0  0  0  0  0  0  0
  -20.0366  -44.4107  -10.5382 O   0  0  0  0  0  0  0  0  0  0  0  0
  -18.5998  -43.4299   -9.0086 N   0  0  0  0  0  0  0  0  0  0  0  0
  -17.3634  -43.8487   -9.6890 C   0  0  0  0  0  0  0  0  0  0  0  0
  -18.5613  -42.8912   -7.6831 C   0  0  1  0  0  0  0  0  0  0  0  0
  -19.0720  -43.9598   -6.7408 C   0  0  0  0  0  0  0  0  0  0  0  0
  -17.2273  -42.4848   -7.2075 C   0  0  0  0  0  0  0  0  0  0  0  0
  -16.2517  -43.2558   -7.4707 O   0  0  0  0  0  0  0  0  0  0  0  0
  -16.9244  -41.3078   -6.4785 N   0  0  0  0  0  0  0  0  0  0  0  0
  -13.3526  -39.2213  -11.3849 C   0  0  0  0  0  0  0  0  0  0  0  0
  -13.5078  -39.8210  -12.5897 C   0  0  0  0  0  0  0  0  0  0  0  0
  -13.0171  -39.2116  -13.7368 C   0  0  0  0  0  0  0  0  0  0  0  0
  -12.3737  -38.0017  -13.6579 C   0  0  0  0  0  0  0  0  0  0  0  0
  -12.2236  -37.4018  -12.4157 C   0  0  0  0  0  0  0  0  0  0  0  0
  -11.3406  -35.7330  -12.2856 Br  0  0  0  0  0  0  0  0  0  0  0  0
  -12.7172  -38.0209  -11.2849 C   0  0  0  0  0  0  0  0  0  0  0  0
  2  1  1  6
  2  3  1  0
  3  4  1  0
  4  5  1  0
  5  6  1  6
  5  7  1  0
  7  8  1  1
  8  9  1  0
  9 10  1  1
  9 11  1  0
 11 12  1  0
 12 13  1  0
 13 14  1  0
 14 15  1  0
 15 16  1  0
 16 17  1  0
 17 18  1  0
 18 19  1  0
 19 20  2  0
 19 21  1  0
 21 22  1  0
 21 23  1  0
 23 24  1  1
 23 25  1  0
 25 26  2  0
 25 27  1  0
  2 28  1  0
 28 29  2  0
 29 30  1  0
 30 31  2  0
 31 32  1  0
 32 33  1  0
 32 34  2  0
 27  7  1  0
 34 28  1  0
M  END
$$$$
