
     RDKit          3D

 34 35  0  0  0  0  0  0  0  0999 V2000
  -14.1308  -38.2412  -10.9047 C   0  0  0  0  0  0  0  0  0  0  0  0
  -15.4503  -38.6185  -10.3519 C   0  0  2  0  0  0  0  0  0  0  0  0
  -15.4531  -39.3362   -9.1484 N   0  0  0  0  0  0  0  0  0  0  0  0
  -16.6827  -39.6015   -8.5190 C   0  0  0  0  0  0  0  0  0  0  0  0
  -16.9293  -39.1981   -7.1286 C   0  0  1  0  0  0  0  0  0  0  0  0
  -17.6632  -37.9475   -7.1646 O   0  0  0  0  0  0  0  0  0  0  0  0
  -17.8367  -40.1475   -6.3580 C   0  0  2  0  0  0  0  0  0  0  0  0
  -18.3413  -39.5769   -5.0682 C   0  0  0  0  0  0  0  0  0  0  0  0
  -19.6924  -38.8809   -5.2659 C   0  0  2  0  0  0  0  0  0  0  0  0
  -19.9834  -37.9653   -4.1249 C   0  0  0  0  0  0  0  0  0  0  0  0
  -20.7994  -39.8799   -5.5161 C   0  0  0  0  0  0  0  0  0  0  0  0
  -22.1508  -39.2629   -5.3268 C   0  0  0  0  0  0  0  0  0  0  0  0
  -22.9974  -39.4260   -6.5723 C   0  0  0  0  0  0  0  0  0  0  0  0
  -23.5354  -40.8186   -6.7438 C   0  0  0  0  0  0  0  0  0  0  0  0
  -23.6479  -41.0862   -8.2349 C   0  0  0  0  0  0  0  0  0  0  0  0
  -23.7496  -42.5270   -8.5764 C   0  0  0  0  0  0  0  0  0  0  0  0
  -22.6167  -43.0347   -9.4484 C   0  0  0  0  0  0  0  0  0  0  0  0
  -21.3111  -42.8060   -8.7672 C   0  0  0  0  0  0  0  0  0  0  0  0
  -20.2000  -43.6034   -9.3125 C   0  0  0  0  0  0  0  0  0  0  0  0
  -20.3851  -44.4035  -10.2608 O   0  0  0  0  0  0  0  0  0  0  0  0
  -18.9068  -43.4566   -8.7495 N   0  0  0  0  0  0  0  0  0  0  0  0
  -17.6973  -43.7422   -9.5385 C   0  0  0  0  0  0  0  0  0  0  0  0
  -18.8096  -43.0217   -7.3892 C   0  0  1  0  0  0  0  0  0  0  0  0
  -19.1925  -44.1908   -6.5076 C   0  0  0  0  0  0  0  0  0  0  0  0
  -17.4721  -42.5705   -6.9669 C   0  0  0  0  0  0  0  0  0  0  0  0
  -16.4737  -43.2556   -7.3535 O   0  0  0  0  0  0  0  0  0  0  0  0
  -17.1888  -41.4373   -6.1643 N   0  0  0  0  0  0  0  0  0  0  0  0
  -16.2657  -39.3371  -11.4173 C   0  0  0  0  0  0  0  0  0  0  0  0
  -15.8277  -40.5224  -11.9057 C   0  0  0  0  0  0  0  0  0  0  0  0
  -16.5629  -41.1867  -12.8784 C   0  0  0  0  0  0  0  0  0  0  0  0
  -17.7343  -40.6487  -13.3499 C   0  0  0  0  0  0  0  0  0  0  0  0
  -18.1681  -39.4340  -12.8384 C   0  0  0  0  0  0  0  0  0  0  0  0
  -19.7813  -38.6759  -13.4743 Br  0  0  0  0  0  0  0  0  0  0  0  0
  -17.4253  -38.7862  -11.8717 C   0  0  0  0  0  0  0  0  0  0  0  0
  2  1  1  6
  2  3  1  0
  3  4  1  0
  4  5  1  0
  5  6  1  6
  5  7  1  0
  7  8  1  1
  8  9  1  0
  9 10  1  1
  9 11  1  0
 11 12  1  0
 12 13  1  0
 13 14  1  0
 14 15  1  0
 15 16  1  0
 16 17  1  0
 17 18  1  0
 18 19  1  0
 19 20  2  0
 19 21  1  0
 21 22  1  0
 21 23  1  0
 23 24  1  1
 23 25  1  0
 25 26  2  0
 25 27  1  0
  2 28  1  0
 28 29  2  0
 29 30  1  0
 30 31  2  0
 31 32  1  0
 32 33  1  0
 32 34  2  0
 27  7  1  0
 34 28  1  0
M  END
$$$$
