
     RDKit          3D

 34 35  0  0  0  0  0  0  0  0999 V2000
  -13.4685  -39.1758  -11.5132 C   0  0  0  0  0  0  0  0  0  0  0  0
  -14.3042  -40.0288  -10.6398 C   0  0  2  0  0  0  0  0  0  0  0  0
  -14.8396  -39.4303   -9.4914 N   0  0  0  0  0  0  0  0  0  0  0  0
  -16.1643  -39.7289   -9.1249 C   0  0  0  0  0  0  0  0  0  0  0  0
  -16.9038  -38.8789   -8.1829 C   0  0  1  0  0  0  0  0  0  0  0  0
  -17.8460  -38.0933   -8.9567 O   0  0  0  0  0  0  0  0  0  0  0  0
  -17.7729  -39.6515   -7.1997 C   0  0  2  0  0  0  0  0  0  0  0  0
  -18.4069  -38.7860   -6.1543 C   0  0  0  0  0  0  0  0  0  0  0  0
  -19.7980  -38.3188   -6.5967 C   0  0  2  0  0  0  0  0  0  0  0  0
  -20.2401  -37.1465   -5.7874 C   0  0  0  0  0  0  0  0  0  0  0  0
  -20.7955  -39.4549   -6.5809 C   0  0  0  0  0  0  0  0  0  0  0  0
  -22.2048  -38.9507   -6.6305 C   0  0  0  0  0  0  0  0  0  0  0  0
  -22.9524  -39.5534   -7.8021 C   0  0  0  0  0  0  0  0  0  0  0  0
  -23.3550  -40.9831   -7.5747 C   0  0  0  0  0  0  0  0  0  0  0  0
  -23.3479  -41.6815   -8.9237 C   0  0  0  0  0  0  0  0  0  0  0  0
  -23.3017  -43.1620   -8.8289 C   0  0  0  0  0  0  0  0  0  0  0  0
  -22.0753  -43.7823   -9.4712 C   0  0  0  0  0  0  0  0  0  0  0  0
  -20.8410  -43.2341   -8.8413 C   0  0  0  0  0  0  0  0  0  0  0  0
  -19.6321  -44.0377   -9.0871 C   0  0  0  0  0  0  0  0  0  0  0  0
  -19.6856  -45.0928   -9.7635 O   0  0  0  0  0  0  0  0  0  0  0  0
  -18.3953  -43.6029   -8.5464 N   0  0  0  0  0  0  0  0  0  0  0  0
  -17.1174  -43.9801   -9.1722 C   0  0  0  0  0  0  0  0  0  0  0  0
  -18.4238  -42.7848   -7.3721 C   0  0  1  0  0  0  0  0  0  0  0  0
  -18.7594  -43.6808   -6.1995 C   0  0  0  0  0  0  0  0  0  0  0  0
  -17.1605  -42.0966   -7.0539 C   0  0  0  0  0  0  0  0  0  0  0  0
  -16.0836  -42.7588   -7.1853 O   0  0  0  0  0  0  0  0  0  0  0  0
  -17.0290  -40.7567   -6.6113 N   0  0  0  0  0  0  0  0  0  0  0  0
  -13.5461  -41.3009  -10.2887 C   0  0  0  0  0  0  0  0  0  0  0  0
  -13.8088  -42.4429  -10.9685 C   0  0  0  0  0  0  0  0  0  0  0  0
  -13.1240  -43.6098  -10.6564 C   0  0  0  0  0  0  0  0  0  0  0  0
  -12.1794  -43.6139   -9.6605 C   0  0  0  0  0  0  0  0  0  0  0  0
  -11.9229  -42.4352   -8.9747 C   0  0  0  0  0  0  0  0  0  0  0  0
  -10.6234  -42.4195   -7.5990 Br  0  0  0  0  0  0  0  0  0  0  0  0
  -12.6127  -41.2838   -9.2971 C   0  0  0  0  0  0  0  0  0  0  0  0
  2  1  1  1
  2  3  1  0
  3  4  1  0
  4  5  1  0
  5  6  1  6
  5  7  1  0
  7  8  1  1
  8  9  1  0
  9 10  1  1
  9 11  1  0
 11 12  1  0
 12 13  1  0
 13 14  1  0
 14 15  1  0
 15 16  1  0
 16 17  1  0
 17 18  1  0
 18 19  1  0
 19 20  2  0
 19 21  1  0
 21 22  1  0
 21 23  1  0
 23 24  1  1
 23 25  1  0
 25 26  2  0
 25 27  1  0
  2 28  1  0
 28 29  2  0
 29 30  1  0
 30 31  2  0
 31 32  1  0
 32 33  1  0
 32 34  2  0
 27  7  1  0
 34 28  1  0
M  END
$$$$
