
     RDKit          3D

 34 35  0  0  0  0  0  0  0  0999 V2000
  -11.5523  -39.8725   -9.6204 C   0  0  0  0  0  0  0  0  0  0  0  0
  -12.8117  -39.1180   -9.8035 C   0  0  2  0  0  0  0  0  0  0  0  0
  -13.9003  -39.4958   -9.0062 N   0  0  0  0  0  0  0  0  0  0  0  0
  -15.1416  -38.8662   -9.2093 C   0  0  0  0  0  0  0  0  0  0  0  0
  -15.9765  -38.4456   -8.0767 C   0  0  1  0  0  0  0  0  0  0  0  0
  -16.8378  -37.3776   -8.5472 O   0  0  0  0  0  0  0  0  0  0  0  0
  -16.9383  -39.5175   -7.5822 C   0  0  2  0  0  0  0  0  0  0  0  0
  -17.6531  -39.1429   -6.3201 C   0  0  0  0  0  0  0  0  0  0  0  0
  -18.9939  -38.4669   -6.6275 C   0  0  2  0  0  0  0  0  0  0  0  0
  -19.4931  -37.7241   -5.4342 C   0  0  0  0  0  0  0  0  0  0  0  0
  -20.0016  -39.4550   -7.1698 C   0  0  0  0  0  0  0  0  0  0  0  0
  -21.3951  -38.9099   -7.1082 C   0  0  0  0  0  0  0  0  0  0  0  0
  -22.0421  -38.9271   -8.4779 C   0  0  0  0  0  0  0  0  0  0  0  0
  -22.4795  -40.2988   -8.9083 C   0  0  0  0  0  0  0  0  0  0  0  0
  -22.3600  -40.3642  -10.4213 C   0  0  0  0  0  0  0  0  0  0  0  0
  -22.3392  -41.7475  -10.9589 C   0  0  0  0  0  0  0  0  0  0  0  0
  -21.0676  -42.0980  -11.7082 C   0  0  0  0  0  0  0  0  0  0  0  0
  -19.8882  -41.9255  -10.8137 C   0  0  0  0  0  0  0  0  0  0  0  0
  -18.6713  -42.6079  -11.2840 C   0  0  0  0  0  0  0  0  0  0  0  0
  -18.6762  -43.2766  -12.3453 O   0  0  0  0  0  0  0  0  0  0  0  0
  -17.4828  -42.5008  -10.5178 N   0  0  0  0  0  0  0  0  0  0  0  0
  -16.1586  -42.6403  -11.1454 C   0  0  0  0  0  0  0  0  0  0  0  0
  -17.6066  -42.2523   -9.1136 C   0  0  1  0  0  0  0  0  0  0  0  0
  -18.0554  -43.5413   -8.4596 C   0  0  0  0  0  0  0  0  0  0  0  0
  -16.3690  -41.8232   -8.4390 C   0  0  0  0  0  0  0  0  0  0  0  0
  -15.2921  -42.4194   -8.7561 O   0  0  0  0  0  0  0  0  0  0  0  0
  -16.2623  -40.8019   -7.4623 N   0  0  0  0  0  0  0  0  0  0  0  0
  -13.1928  -39.1068  -11.2770 C   0  0  0  0  0  0  0  0  0  0  0  0
  -13.4348  -40.2787  -11.9120 C   0  0  0  0  0  0  0  0  0  0  0  0
  -13.7824  -40.2810  -13.2563 C   0  0  0  0  0  0  0  0  0  0  0  0
  -13.8829  -39.0998  -13.9482 C   0  0  0  0  0  0  0  0  0  0  0  0
  -13.6318  -37.9088  -13.2820 C   0  0  0  0  0  0  0  0  0  0  0  0
  -13.7662  -36.2693  -14.2176 Br  0  0  0  0  0  0  0  0  0  0  0  0
  -13.2870  -37.9240  -11.9453 C   0  0  0  0  0  0  0  0  0  0  0  0
  2  1  1  6
  2  3  1  0
  3  4  1  0
  4  5  1  0
  5  6  1  6
  5  7  1  0
  7  8  1  1
  8  9  1  0
  9 10  1  1
  9 11  1  0
 11 12  1  0
 12 13  1  0
 13 14  1  0
 14 15  1  0
 15 16  1  0
 16 17  1  0
 17 18  1  0
 18 19  1  0
 19 20  2  0
 19 21  1  0
 21 22  1  0
 21 23  1  0
 23 24  1  1
 23 25  1  0
 25 26  2  0
 25 27  1  0
  2 28  1  0
 28 29  2  0
 29 30  1  0
 30 31  2  0
 31 32  1  0
 32 33  1  0
 32 34  2  0
 27  7  1  0
 34 28  1  0
M  END
$$$$
