
     RDKit          3D

 34 35  0  0  0  0  0  0  0  0999 V2000
  -14.1692  -39.8464  -11.8401 C   0  0  0  0  0  0  0  0  0  0  0  0
  -14.7469  -40.5996  -10.7053 C   0  0  2  0  0  0  0  0  0  0  0  0
  -15.1741  -39.8531   -9.5991 N   0  0  0  0  0  0  0  0  0  0  0  0
  -16.5138  -39.9600   -9.1842 C   0  0  0  0  0  0  0  0  0  0  0  0
  -17.0673  -39.0658   -8.1591 C   0  0  1  0  0  0  0  0  0  0  0  0
  -18.0383  -38.2083   -8.8116 O   0  0  0  0  0  0  0  0  0  0  0  0
  -17.8620  -39.7807   -7.0747 C   0  0  2  0  0  0  0  0  0  0  0  0
  -18.2669  -38.8869   -5.9429 C   0  0  0  0  0  0  0  0  0  0  0  0
  -19.6566  -38.2877   -6.1854 C   0  0  2  0  0  0  0  0  0  0  0  0
  -19.8762  -37.0998   -5.3104 C   0  0  0  0  0  0  0  0  0  0  0  0
  -20.7422  -39.3306   -6.0454 C   0  0  0  0  0  0  0  0  0  0  0  0
  -22.0933  -38.7021   -5.8959 C   0  0  0  0  0  0  0  0  0  0  0  0
  -23.0446  -39.2085   -6.9606 C   0  0  0  0  0  0  0  0  0  0  0  0
  -23.5415  -40.6017   -6.6958 C   0  0  0  0  0  0  0  0  0  0  0  0
  -23.7809  -41.2663   -8.0406 C   0  0  0  0  0  0  0  0  0  0  0  0
  -23.8576  -42.7469   -7.9691 C   0  0  0  0  0  0  0  0  0  0  0  0
  -22.7914  -43.4587   -8.7802 C   0  0  0  0  0  0  0  0  0  0  0  0
  -21.4383  -43.0372   -8.3194 C   0  0  0  0  0  0  0  0  0  0  0  0
  -20.3522  -43.9391   -8.7373 C   0  0  0  0  0  0  0  0  0  0  0  0
  -20.5929  -44.9693   -9.4115 O   0  0  0  0  0  0  0  0  0  0  0  0
  -19.0191  -43.6287   -8.3664 N   0  0  0  0  0  0  0  0  0  0  0  0
  -17.8776  -44.1033   -9.1656 C   0  0  0  0  0  0  0  0  0  0  0  0
  -18.8135  -42.8389   -7.1905 C   0  0  1  0  0  0  0  0  0  0  0  0
  -19.0675  -43.7285   -5.9928 C   0  0  0  0  0  0  0  0  0  0  0  0
  -17.4613  -42.2733   -7.0409 C   0  0  0  0  0  0  0  0  0  0  0  0
  -16.4770  -43.0254   -7.3258 O   0  0  0  0  0  0  0  0  0  0  0  0
  -17.1493  -40.9611   -6.6059 N   0  0  0  0  0  0  0  0  0  0  0  0
  -13.7881  -41.7029  -10.2813 C   0  0  0  0  0  0  0  0  0  0  0  0
  -13.9090  -42.9373  -10.8262 C   0  0  0  0  0  0  0  0  0  0  0  0
  -13.0404  -43.9519  -10.4465 C   0  0  0  0  0  0  0  0  0  0  0  0
  -12.0568  -43.7116   -9.5197 C   0  0  0  0  0  0  0  0  0  0  0  0
  -11.9474  -42.4414   -8.9719 C   0  0  0  0  0  0  0  0  0  0  0  0
  -10.5973  -42.0893   -7.6934 Br  0  0  0  0  0  0  0  0  0  0  0  0
  -12.8191  -41.4438   -9.3601 C   0  0  0  0  0  0  0  0  0  0  0  0
  2  1  1  6
  2  3  1  0
  3  4  1  0
  4  5  1  0
  5  6  1  6
  5  7  1  0
  7  8  1  1
  8  9  1  0
  9 10  1  1
  9 11  1  0
 11 12  1  0
 12 13  1  0
 13 14  1  0
 14 15  1  0
 15 16  1  0
 16 17  1  0
 17 18  1  0
 18 19  1  0
 19 20  2  0
 19 21  1  0
 21 22  1  0
 21 23  1  0
 23 24  1  1
 23 25  1  0
 25 26  2  0
 25 27  1  0
  2 28  1  0
 28 29  2  0
 29 30  1  0
 30 31  2  0
 31 32  1  0
 32 33  1  0
 32 34  2  0
 27  7  1  0
 34 28  1  0
M  END
$$$$
