
     RDKit          3D

 34 35  0  0  0  0  0  0  0  0999 V2000
  -16.0960  -38.7361  -11.5687 C   0  0  0  0  0  0  0  0  0  0  0  0
  -14.9631  -39.4841  -10.9804 C   0  0  2  0  0  0  0  0  0  0  0  0
  -14.8594  -39.4845   -9.5830 N   0  0  0  0  0  0  0  0  0  0  0  0
  -15.9425  -39.9598   -8.8219 C   0  0  0  0  0  0  0  0  0  0  0  0
  -16.7847  -39.0443   -8.0413 C   0  0  1  0  0  0  0  0  0  0  0  0
  -17.5878  -38.2869   -8.9821 O   0  0  0  0  0  0  0  0  0  0  0  0
  -17.8032  -39.7437   -7.1513 C   0  0  2  0  0  0  0  0  0  0  0  0
  -18.4213  -38.8419   -6.1273 C   0  0  0  0  0  0  0  0  0  0  0  0
  -19.7174  -38.2171   -6.6555 C   0  0  2  0  0  0  0  0  0  0  0  0
  -20.0948  -37.0248   -5.8425 C   0  0  0  0  0  0  0  0  0  0  0  0
  -20.8270  -39.2396   -6.7511 C   0  0  0  0  0  0  0  0  0  0  0  0
  -22.1675  -38.5859   -6.8879 C   0  0  0  0  0  0  0  0  0  0  0  0
  -22.8818  -39.0751   -8.1309 C   0  0  0  0  0  0  0  0  0  0  0  0
  -23.4488  -40.4586   -7.9816 C   0  0  0  0  0  0  0  0  0  0  0  0
  -23.4113  -41.1195   -9.3489 C   0  0  0  0  0  0  0  0  0  0  0  0
  -23.5285  -42.5983   -9.3003 C   0  0  0  0  0  0  0  0  0  0  0  0
  -22.3283  -43.3303   -9.8706 C   0  0  0  0  0  0  0  0  0  0  0  0
  -21.0954  -42.9337   -9.1333 C   0  0  0  0  0  0  0  0  0  0  0  0
  -19.9623  -43.8560   -9.3158 C   0  0  0  0  0  0  0  0  0  0  0  0
  -20.0742  -44.8818  -10.0291 O   0  0  0  0  0  0  0  0  0  0  0  0
  -18.7320  -43.5702   -8.6710 N   0  0  0  0  0  0  0  0  0  0  0  0
  -17.4565  -44.0664   -9.2130 C   0  0  0  0  0  0  0  0  0  0  0  0
  -18.7647  -42.7837   -7.4755 C   0  0  1  0  0  0  0  0  0  0  0  0
  -19.2818  -43.6678   -6.3613 C   0  0  0  0  0  0  0  0  0  0  0  0
  -17.4643  -42.2433   -7.0422 C   0  0  0  0  0  0  0  0  0  0  0  0
  -16.4560  -43.0138   -7.1156 O   0  0  0  0  0  0  0  0  0  0  0  0
  -17.2271  -40.9369   -6.5467 N   0  0  0  0  0  0  0  0  0  0  0  0
  -13.6604  -39.0308  -11.6238 C   0  0  0  0  0  0  0  0  0  0  0  0
  -13.2337  -39.6317  -12.7605 C   0  0  0  0  0  0  0  0  0  0  0  0
  -12.0464  -39.2271  -13.3560 C   0  0  0  0  0  0  0  0  0  0  0  0
  -11.2998  -38.2190  -12.7988 C   0  0  0  0  0  0  0  0  0  0  0  0
  -11.7520  -37.6146  -11.6345 C   0  0  0  0  0  0  0  0  0  0  0  0
  -10.7380  -36.2219  -10.8511 Br  0  0  0  0  0  0  0  0  0  0  0  0
  -12.9345  -38.0288  -11.0550 C   0  0  0  0  0  0  0  0  0  0  0  0
  2  1  1  1
  2  3  1  0
  3  4  1  0
  4  5  1  0
  5  6  1  6
  5  7  1  0
  7  8  1  1
  8  9  1  0
  9 10  1  1
  9 11  1  0
 11 12  1  0
 12 13  1  0
 13 14  1  0
 14 15  1  0
 15 16  1  0
 16 17  1  0
 17 18  1  0
 18 19  1  0
 19 20  2  0
 19 21  1  0
 21 22  1  0
 21 23  1  0
 23 24  1  1
 23 25  1  0
 25 26  2  0
 25 27  1  0
  2 28  1  0
 28 29  2  0
 29 30  1  0
 30 31  2  0
 31 32  1  0
 32 33  1  0
 32 34  2  0
 27  7  1  0
 34 28  1  0
M  END
$$$$
