
     RDKit          3D

 34 35  0  0  0  0  0  0  0  0999 V2000
  -13.1923  -40.7798  -11.2465 C   0  0  0  0  0  0  0  0  0  0  0  0
  -13.7562  -39.5855  -10.5800 C   0  0  2  0  0  0  0  0  0  0  0  0
  -15.1531  -39.4891  -10.5244 N   0  0  0  0  0  0  0  0  0  0  0  0
  -15.8112  -39.8435   -9.3329 C   0  0  0  0  0  0  0  0  0  0  0  0
  -16.7667  -38.9318   -8.6905 C   0  0  1  0  0  0  0  0  0  0  0  0
  -17.8158  -38.6560   -9.6533 O   0  0  0  0  0  0  0  0  0  0  0  0
  -17.4962  -39.5360   -7.4983 C   0  0  2  0  0  0  0  0  0  0  0  0
  -17.9224  -38.5217   -6.4817 C   0  0  0  0  0  0  0  0  0  0  0  0
  -19.3477  -38.0307   -6.7586 C   0  0  2  0  0  0  0  0  0  0  0  0
  -19.6107  -36.7500   -6.0407 C   0  0  0  0  0  0  0  0  0  0  0  0
  -20.3719  -39.0994   -6.4506 C   0  0  0  0  0  0  0  0  0  0  0  0
  -21.7511  -38.5255   -6.3442 C   0  0  0  0  0  0  0  0  0  0  0  0
  -22.6981  -39.2157   -7.3042 C   0  0  0  0  0  0  0  0  0  0  0  0
  -23.1128  -40.5848   -6.8443 C   0  0  0  0  0  0  0  0  0  0  0  0
  -23.3472  -41.4329   -8.0826 C   0  0  0  0  0  0  0  0  0  0  0  0
  -23.3423  -42.8930   -7.8155 C   0  0  0  0  0  0  0  0  0  0  0  0
  -22.2582  -43.6512   -8.5580 C   0  0  0  0  0  0  0  0  0  0  0  0
  -20.9196  -43.1047   -8.1974 C   0  0  0  0  0  0  0  0  0  0  0  0
  -19.7964  -43.9981   -8.5260 C   0  0  0  0  0  0  0  0  0  0  0  0
  -19.9967  -45.1193   -9.0518 O   0  0  0  0  0  0  0  0  0  0  0  0
  -18.4738  -43.5746   -8.2393 N   0  0  0  0  0  0  0  0  0  0  0  0
  -17.3271  -44.0927   -9.0033 C   0  0  0  0  0  0  0  0  0  0  0  0
  -18.2838  -42.6266   -7.1837 C   0  0  1  0  0  0  0  0  0  0  0  0
  -18.4616  -43.3615   -5.8726 C   0  0  0  0  0  0  0  0  0  0  0  0
  -16.9610  -41.9788   -7.1503 C   0  0  0  0  0  0  0  0  0  0  0  0
  -15.9444  -42.7114   -7.3637 O   0  0  0  0  0  0  0  0  0  0  0  0
  -16.7102  -40.6065   -6.9005 N   0  0  0  0  0  0  0  0  0  0  0  0
  -13.1463  -38.3273  -11.1811 C   0  0  0  0  0  0  0  0  0  0  0  0
  -12.2256  -37.6291  -10.4739 C   0  0  0  0  0  0  0  0  0  0  0  0
  -11.6630  -36.4792  -11.0118 C   0  0  0  0  0  0  0  0  0  0  0  0
  -12.0347  -36.0439  -12.2594 C   0  0  0  0  0  0  0  0  0  0  0  0
  -12.9789  -36.7714  -12.9697 C   0  0  0  0  0  0  0  0  0  0  0  0
  -13.5039  -36.1887  -14.6920 Br  0  0  0  0  0  0  0  0  0  0  0  0
  -13.5288  -37.9123  -12.4205 C   0  0  0  0  0  0  0  0  0  0  0  0
  2  1  1  6
  2  3  1  0
  3  4  1  0
  4  5  1  0
  5  6  1  6
  5  7  1  0
  7  8  1  1
  8  9  1  0
  9 10  1  1
  9 11  1  0
 11 12  1  0
 12 13  1  0
 13 14  1  0
 14 15  1  0
 15 16  1  0
 16 17  1  0
 17 18  1  0
 18 19  1  0
 19 20  2  0
 19 21  1  0
 21 22  1  0
 21 23  1  0
 23 24  1  1
 23 25  1  0
 25 26  2  0
 25 27  1  0
  2 28  1  0
 28 29  2  0
 29 30  1  0
 30 31  2  0
 31 32  1  0
 32 33  1  0
 32 34  2  0
 27  7  1  0
 34 28  1  0
M  END
$$$$
