
     RDKit          3D

 34 35  0  0  0  0  0  0  0  0999 V2000
  -12.8477  -39.1413  -10.3884 C   0  0  0  0  0  0  0  0  0  0  0  0
  -14.2118  -38.5967  -10.2108 C   0  0  2  0  0  0  0  0  0  0  0  0
  -15.2778  -39.4953  -10.3509 N   0  0  0  0  0  0  0  0  0  0  0  0
  -16.0897  -39.7649   -9.2345 C   0  0  0  0  0  0  0  0  0  0  0  0
  -17.5543  -39.7748   -9.3425 C   0  0  1  0  0  0  0  0  0  0  0  0
  -17.9239  -40.9501  -10.1079 O   0  0  0  0  0  0  0  0  0  0  0  0
  -18.2741  -39.9479   -8.0119 C   0  0  2  0  0  0  0  0  0  0  0  0
  -18.8274  -38.6695   -7.4609 C   0  0  0  0  0  0  0  0  0  0  0  0
  -20.2783  -38.4602   -7.9082 C   0  0  2  0  0  0  0  0  0  0  0  0
  -20.6809  -37.0345   -7.7345 C   0  0  0  0  0  0  0  0  0  0  0  0
  -21.2159  -39.4249   -7.2180 C   0  0  0  0  0  0  0  0  0  0  0  0
  -22.6433  -38.9893   -7.3425 C   0  0  0  0  0  0  0  0  0  0  0  0
  -23.4876  -40.0802   -7.9686 C   0  0  0  0  0  0  0  0  0  0  0  0
  -23.7980  -41.2049   -7.0217 C   0  0  0  0  0  0  0  0  0  0  0  0
  -23.9081  -42.4782   -7.8428 C   0  0  0  0  0  0  0  0  0  0  0  0
  -23.7853  -43.7195   -7.0383 C   0  0  0  0  0  0  0  0  0  0  0  0
  -22.6105  -44.5948   -7.4320 C   0  0  0  0  0  0  0  0  0  0  0  0
  -21.3402  -43.8262   -7.3039 C   0  0  0  0  0  0  0  0  0  0  0  0
  -20.1308  -44.6648   -7.2634 C   0  0  0  0  0  0  0  0  0  0  0  0
  -20.2110  -45.9154   -7.3216 O   0  0  0  0  0  0  0  0  0  0  0  0
  -18.8628  -44.0389   -7.1567 N   0  0  0  0  0  0  0  0  0  0  0  0
  -17.6460  -44.6955   -7.6619 C   0  0  0  0  0  0  0  0  0  0  0  0
  -18.7985  -42.7475   -6.5427 C   0  0  1  0  0  0  0  0  0  0  0  0
  -18.9622  -42.9425   -5.0508 C   0  0  0  0  0  0  0  0  0  0  0  0
  -17.5401  -42.0114   -6.7558 C   0  0  0  0  0  0  0  0  0  0  0  0
  -16.4555  -42.6686   -6.6705 O   0  0  0  0  0  0  0  0  0  0  0  0
  -17.4210  -40.6299   -7.0485 N   0  0  0  0  0  0  0  0  0  0  0  0
  -14.4000  -37.3829  -11.1096 C   0  0  0  0  0  0  0  0  0  0  0  0
  -14.5492  -37.5584  -12.4446 C   0  0  0  0  0  0  0  0  0  0  0  0
  -14.7207  -36.4585  -13.2744 C   0  0  0  0  0  0  0  0  0  0  0  0
  -14.7404  -35.1904  -12.7494 C   0  0  0  0  0  0  0  0  0  0  0  0
  -14.5863  -35.0292  -11.3799 C   0  0  0  0  0  0  0  0  0  0  0  0
  -14.6118  -33.2892  -10.6360 Br  0  0  0  0  0  0  0  0  0  0  0  0
  -14.4165  -36.1332  -10.5687 C   0  0  0  0  0  0  0  0  0  0  0  0
  2  1  1  6
  2  3  1  0
  3  4  1  0
  4  5  1  0
  5  6  1  6
  5  7  1  0
  7  8  1  1
  8  9  1  0
  9 10  1  1
  9 11  1  0
 11 12  1  0
 12 13  1  0
 13 14  1  0
 14 15  1  0
 15 16  1  0
 16 17  1  0
 17 18  1  0
 18 19  1  0
 19 20  2  0
 19 21  1  0
 21 22  1  0
 21 23  1  0
 23 24  1  1
 23 25  1  0
 25 26  2  0
 25 27  1  0
  2 28  1  0
 28 29  2  0
 29 30  1  0
 30 31  2  0
 31 32  1  0
 32 33  1  0
 32 34  2  0
 27  7  1  0
 34 28  1  0
M  END
$$$$
