
     RDKit          3D

 34 35  0  0  0  0  0  0  0  0999 V2000
  -12.9486  -40.3507  -10.8749 C   0  0  0  0  0  0  0  0  0  0  0  0
  -13.3192  -39.0367  -10.3046 C   0  0  2  0  0  0  0  0  0  0  0  0
  -14.6376  -38.8891   -9.8535 N   0  0  0  0  0  0  0  0  0  0  0  0
  -14.9088  -39.0532   -8.4832 C   0  0  0  0  0  0  0  0  0  0  0  0
  -16.1411  -38.5269   -7.8823 C   0  0  1  0  0  0  0  0  0  0  0  0
  -16.9586  -38.0032   -8.9599 O   0  0  0  0  0  0  0  0  0  0  0  0
  -17.0143  -39.5877   -7.2259 C   0  0  2  0  0  0  0  0  0  0  0  0
  -17.7782  -39.0832   -6.0402 C   0  0  0  0  0  0  0  0  0  0  0  0
  -19.1674  -38.5842   -6.4526 C   0  0  2  0  0  0  0  0  0  0  0  0
  -19.7472  -37.7094   -5.3926 C   0  0  0  0  0  0  0  0  0  0  0  0
  -20.0776  -39.7298   -6.8334 C   0  0  0  0  0  0  0  0  0  0  0  0
  -21.5137  -39.3060   -6.8610 C   0  0  0  0  0  0  0  0  0  0  0  0
  -22.1357  -39.5953   -8.2117 C   0  0  0  0  0  0  0  0  0  0  0  0
  -22.4464  -41.0506   -8.4204 C   0  0  0  0  0  0  0  0  0  0  0  0
  -22.2985  -41.3427   -9.9038 C   0  0  0  0  0  0  0  0  0  0  0  0
  -22.1501  -42.7862  -10.2158 C   0  0  0  0  0  0  0  0  0  0  0  0
  -20.8416  -43.1374  -10.8983 C   0  0  0  0  0  0  0  0  0  0  0  0
  -19.6954  -42.7235  -10.0405 C   0  0  0  0  0  0  0  0  0  0  0  0
  -18.4171  -43.3622  -10.3950 C   0  0  0  0  0  0  0  0  0  0  0  0
  -18.3479  -44.1875  -11.3372 O   0  0  0  0  0  0  0  0  0  0  0  0
  -17.2542  -43.0320   -9.6536 N   0  0  0  0  0  0  0  0  0  0  0  0
  -15.9133  -43.1520  -10.2492 C   0  0  0  0  0  0  0  0  0  0  0  0
  -17.4205  -42.5774   -8.3065 C   0  0  1  0  0  0  0  0  0  0  0  0
  -17.7664  -43.7817   -7.4576 C   0  0  0  0  0  0  0  0  0  0  0  0
  -16.2351  -41.9407   -7.7064 C   0  0  0  0  0  0  0  0  0  0  0  0
  -15.1060  -42.4827   -7.9236 O   0  0  0  0  0  0  0  0  0  0  0  0
  -16.2320  -40.7730   -6.9034 N   0  0  0  0  0  0  0  0  0  0  0  0
  -12.9506  -37.9310  -11.2833 C   0  0  0  0  0  0  0  0  0  0  0  0
  -11.8757  -37.1466  -11.0293 C   0  0  0  0  0  0  0  0  0  0  0  0
  -11.5304  -36.1342  -11.9146 C   0  0  0  0  0  0  0  0  0  0  0  0
  -12.2732  -35.9222  -13.0491 C   0  0  0  0  0  0  0  0  0  0  0  0
  -13.3709  -36.7351  -13.2936 C   0  0  0  0  0  0  0  0  0  0  0  0
  -14.4074  -36.4600  -14.8529 Br  0  0  0  0  0  0  0  0  0  0  0  0
  -13.7009  -37.7371  -12.4032 C   0  0  0  0  0  0  0  0  0  0  0  0
  2  1  1  6
  2  3  1  0
  3  4  1  0
  4  5  1  0
  5  6  1  6
  5  7  1  0
  7  8  1  1
  8  9  1  0
  9 10  1  1
  9 11  1  0
 11 12  1  0
 12 13  1  0
 13 14  1  0
 14 15  1  0
 15 16  1  0
 16 17  1  0
 17 18  1  0
 18 19  1  0
 19 20  2  0
 19 21  1  0
 21 22  1  0
 21 23  1  0
 23 24  1  1
 23 25  1  0
 25 26  2  0
 25 27  1  0
  2 28  1  0
 28 29  2  0
 29 30  1  0
 30 31  2  0
 31 32  1  0
 32 33  1  0
 32 34  2  0
 27  7  1  0
 34 28  1  0
M  END
$$$$
