
     RDKit          3D

 34 35  0  0  0  0  0  0  0  0999 V2000
  -14.4977  -37.2997  -10.7886 C   0  0  0  0  0  0  0  0  0  0  0  0
  -15.0133  -38.6297  -10.3958 C   0  0  2  0  0  0  0  0  0  0  0  0
  -14.8790  -38.9906   -9.0485 N   0  0  0  0  0  0  0  0  0  0  0  0
  -16.0108  -38.9377   -8.2153 C   0  0  0  0  0  0  0  0  0  0  0  0
  -17.2789  -39.5630   -8.6126 C   0  0  1  0  0  0  0  0  0  0  0  0
  -16.9543  -40.7727   -9.3441 O   0  0  0  0  0  0  0  0  0  0  0  0
  -18.1274  -40.0439   -7.4433 C   0  0  2  0  0  0  0  0  0  0  0  0
  -18.6291  -38.9333   -6.5722 C   0  0  0  0  0  0  0  0  0  0  0  0
  -20.0133  -38.4589   -7.0284 C   0  0  2  0  0  0  0  0  0  0  0  0
  -20.3198  -37.1131   -6.4630 C   0  0  0  0  0  0  0  0  0  0  0  0
  -21.0805  -39.4843   -6.7193 C   0  0  0  0  0  0  0  0  0  0  0  0
  -22.4533  -38.8911   -6.7990 C   0  0  0  0  0  0  0  0  0  0  0  0
  -23.3182  -39.6620   -7.7750 C   0  0  0  0  0  0  0  0  0  0  0  0
  -23.7982  -40.9771   -7.2291 C   0  0  0  0  0  0  0  0  0  0  0  0
  -23.9304  -41.9379   -8.3983 C   0  0  0  0  0  0  0  0  0  0  0  0
  -23.9762  -43.3656   -7.9951 C   0  0  0  0  0  0  0  0  0  0  0  0
  -22.8408  -44.2008   -8.5563 C   0  0  0  0  0  0  0  0  0  0  0  0
  -21.5324  -43.6337   -8.1235 C   0  0  0  0  0  0  0  0  0  0  0  0
  -20.3993  -44.5641   -8.2581 C   0  0  0  0  0  0  0  0  0  0  0  0
  -20.5691  -45.7288   -8.6921 O   0  0  0  0  0  0  0  0  0  0  0  0
  -19.1021  -44.1263   -7.8884 N   0  0  0  0  0  0  0  0  0  0  0  0
  -17.8982  -44.7251   -8.4877 C   0  0  0  0  0  0  0  0  0  0  0  0
  -18.9953  -43.0833   -6.9140 C   0  0  1  0  0  0  0  0  0  0  0  0
  -19.3079  -43.6876   -5.5621 C   0  0  0  0  0  0  0  0  0  0  0  0
  -17.6701  -42.4466   -6.8165 C   0  0  0  0  0  0  0  0  0  0  0  0
  -16.6511  -43.2050   -6.8622 O   0  0  0  0  0  0  0  0  0  0  0  0
  -17.4198  -41.0588   -6.6750 N   0  0  0  0  0  0  0  0  0  0  0  0
  -14.4253  -39.6970  -11.3076 C   0  0  0  0  0  0  0  0  0  0  0  0
  -15.0122  -39.9511  -12.5019 C   0  0  0  0  0  0  0  0  0  0  0  0
  -14.4851  -40.9232  -13.3416 C   0  0  0  0  0  0  0  0  0  0  0  0
  -13.3695  -41.6306  -12.9686 C   0  0  0  0  0  0  0  0  0  0  0  0
  -12.7812  -41.3572  -11.7420 C   0  0  0  0  0  0  0  0  0  0  0  0
  -11.2417  -42.3206  -11.2096 Br  0  0  0  0  0  0  0  0  0  0  0  0
  -13.3179  -40.3877  -10.9187 C   0  0  0  0  0  0  0  0  0  0  0  0
  2  1  1  1
  2  3  1  0
  3  4  1  0
  4  5  1  0
  5  6  1  6
  5  7  1  0
  7  8  1  1
  8  9  1  0
  9 10  1  1
  9 11  1  0
 11 12  1  0
 12 13  1  0
 13 14  1  0
 14 15  1  0
 15 16  1  0
 16 17  1  0
 17 18  1  0
 18 19  1  0
 19 20  2  0
 19 21  1  0
 21 22  1  0
 21 23  1  0
 23 24  1  1
 23 25  1  0
 25 26  2  0
 25 27  1  0
  2 28  1  0
 28 29  2  0
 29 30  1  0
 30 31  2  0
 31 32  1  0
 32 33  1  0
 32 34  2  0
 27  7  1  0
 34 28  1  0
M  END
$$$$
