
     RDKit          3D

 34 35  0  0  0  0  0  0  0  0999 V2000
  -13.4385  -40.2600  -10.7715 C   0  0  0  0  0  0  0  0  0  0  0  0
  -13.4852  -38.9011  -10.1883 C   0  0  2  0  0  0  0  0  0  0  0  0
  -14.7458  -38.4084   -9.8257 N   0  0  0  0  0  0  0  0  0  0  0  0
  -15.5932  -39.2178   -9.0478 C   0  0  0  0  0  0  0  0  0  0  0  0
  -17.0513  -39.0456   -9.0800 C   0  0  1  0  0  0  0  0  0  0  0  0
  -17.5747  -39.9718  -10.0659 O   0  0  0  0  0  0  0  0  0  0  0  0
  -17.7515  -39.4355   -7.7852 C   0  0  2  0  0  0  0  0  0  0  0  0
  -18.1889  -38.2608   -6.9651 C   0  0  0  0  0  0  0  0  0  0  0  0
  -19.6287  -37.8592   -7.3038 C   0  0  2  0  0  0  0  0  0  0  0  0
  -19.9131  -36.4741   -6.8288 C   0  0  0  0  0  0  0  0  0  0  0  0
  -20.6235  -38.8742   -6.7879 C   0  0  0  0  0  0  0  0  0  0  0  0
  -22.0144  -38.3197   -6.7658 C   0  0  0  0  0  0  0  0  0  0  0  0
  -22.9566  -39.1944   -7.5670 C   0  0  0  0  0  0  0  0  0  0  0  0
  -23.3331  -40.4640   -6.8568 C   0  0  0  0  0  0  0  0  0  0  0  0
  -23.5626  -41.5300   -7.9144 C   0  0  0  0  0  0  0  0  0  0  0  0
  -23.5198  -42.9156   -7.3840 C   0  0  0  0  0  0  0  0  0  0  0  0
  -22.4274  -43.7746   -7.9926 C   0  0  0  0  0  0  0  0  0  0  0  0
  -21.0977  -43.1430   -7.7606 C   0  0  0  0  0  0  0  0  0  0  0  0
  -19.9578  -44.0579   -7.9383 C   0  0  0  0  0  0  0  0  0  0  0  0
  -20.1380  -45.2606   -8.2460 O   0  0  0  0  0  0  0  0  0  0  0  0
  -18.6421  -43.5611   -7.7561 N   0  0  0  0  0  0  0  0  0  0  0  0
  -17.4931  -44.1866   -8.4310 C   0  0  0  0  0  0  0  0  0  0  0  0
  -18.4616  -42.4315   -6.8957 C   0  0  1  0  0  0  0  0  0  0  0  0
  -18.6056  -42.9163   -5.4693 C   0  0  0  0  0  0  0  0  0  0  0  0
  -17.1542  -41.7609   -7.0037 C   0  0  0  0  0  0  0  0  0  0  0  0
  -16.1233  -42.4987   -7.0959 O   0  0  0  0  0  0  0  0  0  0  0  0
  -16.9329  -40.3611   -7.0143 N   0  0  0  0  0  0  0  0  0  0  0  0
  -12.7610  -37.9251  -11.1044 C   0  0  0  0  0  0  0  0  0  0  0  0
  -11.4115  -37.8259  -11.0398 C   0  0  0  0  0  0  0  0  0  0  0  0
  -10.7401  -36.9383  -11.8701 C   0  0  0  0  0  0  0  0  0  0  0  0
  -11.4370  -36.1583  -12.7589 C   0  0  0  0  0  0  0  0  0  0  0  0
  -12.8188  -36.2730  -12.8118 C   0  0  0  0  0  0  0  0  0  0  0  0
  -13.7980  -35.2074  -14.0313 Br  0  0  0  0  0  0  0  0  0  0  0  0
  -13.4711  -37.1601  -11.9792 C   0  0  0  0  0  0  0  0  0  0  0  0
  2  1  1  6
  2  3  1  0
  3  4  1  0
  4  5  1  0
  5  6  1  6
  5  7  1  0
  7  8  1  1
  8  9  1  0
  9 10  1  1
  9 11  1  0
 11 12  1  0
 12 13  1  0
 13 14  1  0
 14 15  1  0
 15 16  1  0
 16 17  1  0
 17 18  1  0
 18 19  1  0
 19 20  2  0
 19 21  1  0
 21 22  1  0
 21 23  1  0
 23 24  1  1
 23 25  1  0
 25 26  2  0
 25 27  1  0
  2 28  1  0
 28 29  2  0
 29 30  1  0
 30 31  2  0
 31 32  1  0
 32 33  1  0
 32 34  2  0
 27  7  1  0
 34 28  1  0
M  END
$$$$
