
     RDKit          3D

 34 35  0  0  0  0  0  0  0  0999 V2000
  -13.6728  -36.2622  -11.0290 C   0  0  0  0  0  0  0  0  0  0  0  0
  -14.1277  -37.6434  -10.7567 C   0  0  2  0  0  0  0  0  0  0  0  0
  -14.3334  -37.9916   -9.4150 N   0  0  0  0  0  0  0  0  0  0  0  0
  -15.2892  -38.9767   -9.1080 C   0  0  0  0  0  0  0  0  0  0  0  0
  -16.6531  -38.6141   -8.7017 C   0  0  1  0  0  0  0  0  0  0  0  0
  -17.4856  -38.6632   -9.8885 O   0  0  0  0  0  0  0  0  0  0  0  0
  -17.3002  -39.6056   -7.7442 C   0  0  2  0  0  0  0  0  0  0  0  0
  -17.7935  -38.9776   -6.4768 C   0  0  0  0  0  0  0  0  0  0  0  0
  -19.2625  -38.5597   -6.6056 C   0  0  2  0  0  0  0  0  0  0  0  0
  -19.6234  -37.5756   -5.5443 C   0  0  0  0  0  0  0  0  0  0  0  0
  -20.1804  -39.7608   -6.6314 C   0  0  0  0  0  0  0  0  0  0  0  0
  -21.6027  -39.3723   -6.3690 C   0  0  0  0  0  0  0  0  0  0  0  0
  -22.5046  -39.8344   -7.4951 C   0  0  0  0  0  0  0  0  0  0  0  0
  -22.7855  -41.3101   -7.4605 C   0  0  0  0  0  0  0  0  0  0  0  0
  -22.9695  -41.7755   -8.8948 C   0  0  0  0  0  0  0  0  0  0  0  0
  -22.8285  -43.2427   -9.0687 C   0  0  0  0  0  0  0  0  0  0  0  0
  -21.6972  -43.6472   -9.9950 C   0  0  0  0  0  0  0  0  0  0  0  0
  -20.4053  -43.1103   -9.4817 C   0  0  0  0  0  0  0  0  0  0  0  0
  -19.2141  -43.7612  -10.0519 C   0  0  0  0  0  0  0  0  0  0  0  0
  -19.3247  -44.6922  -10.8853 O   0  0  0  0  0  0  0  0  0  0  0  0
  -17.9287  -43.3210   -9.6455 N   0  0  0  0  0  0  0  0  0  0  0  0
  -16.7570  -43.4849  -10.5214 C   0  0  0  0  0  0  0  0  0  0  0  0
  -17.8018  -42.7111   -8.3568 C   0  0  1  0  0  0  0  0  0  0  0  0
  -17.8852  -43.8112   -7.3208 C   0  0  0  0  0  0  0  0  0  0  0  0
  -16.5416  -41.9832   -8.1266 C   0  0  0  0  0  0  0  0  0  0  0  0
  -15.4685  -42.5246   -8.5400 O   0  0  0  0  0  0  0  0  0  0  0  0
  -16.4092  -40.7275   -7.4829 N   0  0  0  0  0  0  0  0  0  0  0  0
  -13.1963  -38.6340  -11.4405 C   0  0  0  0  0  0  0  0  0  0  0  0
  -11.9983  -38.9211  -10.8769 C   0  0  0  0  0  0  0  0  0  0  0  0
  -11.1399  -39.8226  -11.4922 C   0  0  0  0  0  0  0  0  0  0  0  0
  -11.4985  -40.4268  -12.6713 C   0  0  0  0  0  0  0  0  0  0  0  0
  -12.7293  -40.1212  -13.2344 C   0  0  0  0  0  0  0  0  0  0  0  0
  -13.2429  -40.9444  -14.8592 Br  0  0  0  0  0  0  0  0  0  0  0  0
  -13.5709  -39.2225  -12.6101 C   0  0  0  0  0  0  0  0  0  0  0  0
  2  1  1  1
  2  3  1  0
  3  4  1  0
  4  5  1  0
  5  6  1  6
  5  7  1  0
  7  8  1  1
  8  9  1  0
  9 10  1  1
  9 11  1  0
 11 12  1  0
 12 13  1  0
 13 14  1  0
 14 15  1  0
 15 16  1  0
 16 17  1  0
 17 18  1  0
 18 19  1  0
 19 20  2  0
 19 21  1  0
 21 22  1  0
 21 23  1  0
 23 24  1  1
 23 25  1  0
 25 26  2  0
 25 27  1  0
  2 28  1  0
 28 29  2  0
 29 30  1  0
 30 31  2  0
 31 32  1  0
 32 33  1  0
 32 34  2  0
 27  7  1  0
 34 28  1  0
M  END
$$$$
