
     RDKit          3D

 38 39  0  0  0  0  0  0  0  0999 V2000
  -11.9727  -34.4121  -12.6740 C   0  0  0  0  0  0  0  0  0  0  0  0
  -13.0281  -34.7323  -11.6389 C   0  0  0  0  0  0  0  0  0  0  0  0
  -12.8337  -36.1538  -11.0989 C   0  0  0  0  0  0  0  0  0  0  0  0
  -13.9896  -36.4152  -10.1741 C   0  0  0  0  0  0  0  0  0  0  0  0
  -13.9861  -37.7142   -9.5813 N   0  0  0  0  0  0  0  0  0  0  0  0
  -14.6136  -38.8598  -10.1287 C   0  0  0  0  0  0  0  0  0  0  0  0
  -14.8420  -38.8757  -11.3593 O   0  0  0  0  0  0  0  0  0  0  0  0
  -15.0093  -40.0330   -9.3168 C   0  0  2  0  0  0  0  0  0  0  0  0
  -13.8267  -40.9133   -9.1187 C   0  0  0  0  0  0  0  0  0  0  0  0
  -16.1474  -40.7436  -10.0629 C   0  0  0  0  0  0  0  0  0  0  0  0
  -16.9715  -41.5576   -9.1340 C   0  0  2  0  0  0  0  0  0  0  0  0
  -17.4976  -42.7141   -9.6953 O   0  0  0  0  0  0  0  0  0  0  0  0
  -18.1812  -40.7791   -8.5779 C   0  0  2  0  0  0  0  0  0  0  0  0
  -18.2249  -39.5059   -9.3212 C   0  0  0  0  0  0  0  0  0  0  0  0
  -19.4393  -38.6985   -9.3852 C   0  0  2  0  0  0  0  0  0  0  0  0
  -20.2094  -38.5276   -8.0917 C   0  0  0  0  0  0  0  0  0  0  0  0
  -20.3876  -38.9432  -10.5313 C   0  0  0  0  0  0  0  0  0  0  0  0
  -21.2917  -40.0958  -10.4632 C   0  0  0  0  0  0  0  0  0  0  0  0
  -22.7472  -39.7100  -10.1554 C   0  0  0  0  0  0  0  0  0  0  0  0
  -23.5562  -40.9430   -9.8004 C   0  0  0  0  0  0  0  0  0  0  0  0
  -24.1359  -40.8673   -8.4382 C   0  0  0  0  0  0  0  0  0  0  0  0
  -24.3305  -42.1512   -7.7955 N   0  0  0  0  0  0  0  0  0  0  0  0
  -25.2644  -43.0539   -8.4478 C   0  0  0  0  0  0  0  0  0  0  0  0
  -25.4139  -42.8353   -9.9069 C   0  0  0  0  0  0  0  0  0  0  0  0
  -23.6702  -42.5369   -6.6134 C   0  0  0  0  0  0  0  0  0  0  0  0
  -24.3935  -43.3928   -5.9324 O   0  0  0  0  0  0  0  0  0  0  0  0
  -22.3649  -42.1558   -6.0356 C   0  0  0  0  0  0  0  0  0  0  0  0
  -22.5226  -41.9604   -4.6391 C   0  0  0  0  0  0  0  0  0  0  0  0
  -21.4981  -41.5814   -3.8069 C   0  0  0  0  0  0  0  0  0  0  0  0
  -20.2975  -41.4033   -4.4268 C   0  0  0  0  0  0  0  0  0  0  0  0
  -20.0683  -41.5811   -5.8198 C   0  0  0  0  0  0  0  0  0  0  0  0
  -21.1284  -41.9639   -6.6148 C   0  0  0  0  0  0  0  0  0  0  0  0
  -18.6547  -41.2854   -6.1184 C   0  0  0  0  0  0  0  0  0  0  0  0
  -17.7677  -41.7176   -5.2234 O   0  0  0  0  0  0  0  0  0  0  0  0
  -17.9608  -40.6404   -7.1369 N   0  0  0  0  0  0  0  0  0  0  0  0
  -21.6948  -41.4036   -2.4484 O   0  0  0  0  0  0  0  0  0  0  0  0
  -20.9111  -42.0890   -1.5135 C   0  0  0  0  0  0  0  0  0  0  0  0
  -20.8561  -41.4780   -0.1490 C   0  0  0  0  0  0  0  0  0  0  0  0
  1  2  1  0
  2  3  1  0
  3  4  1  0
  4  5  1  0
  5  6  1  0
  6  7  2  0
  6  8  1  0
  8  9  1  6
  8 10  1  0
 10 11  1  0
 11 12  1  6
 11 13  1  0
 13 14  1  6
 14 15  1  0
 15 16  1  1
 15 17  1  0
 17 18  1  0
 18 19  1  0
 19 20  1  0
 20 21  1  0
 21 22  1  0
 22 23  1  0
 23 24  1  0
 22 25  1  0
 25 26  2  0
 25 27  1  0
 27 28  2  0
 28 29  1  0
 29 30  2  0
 30 31  1  0
 31 32  2  0
 31 33  1  0
 33 34  2  0
 33 35  1  0
 29 36  1  0
 36 37  1  0
 37 38  1  0
 32 27  1  0
 35 13  1  0
M  END
$$$$
