
     RDKit          3D

 38 39  0  0  0  0  0  0  0  0999 V2000
  -10.9007  -37.6156  -12.5804 C   0  0  0  0  0  0  0  0  0  0  0  0
  -12.3198  -37.5015  -13.0912 C   0  0  0  0  0  0  0  0  0  0  0  0
  -13.3047  -38.0793  -12.0684 C   0  0  0  0  0  0  0  0  0  0  0  0
  -12.6783  -39.3423  -11.5469 C   0  0  0  0  0  0  0  0  0  0  0  0
  -13.0339  -39.6630  -10.2017 N   0  0  0  0  0  0  0  0  0  0  0  0
  -14.1276  -40.4788   -9.8220 C   0  0  0  0  0  0  0  0  0  0  0  0
  -14.9442  -40.8199  -10.7073 O   0  0  0  0  0  0  0  0  0  0  0  0
  -14.3479  -40.9445   -8.4339 C   0  0  2  0  0  0  0  0  0  0  0  0
  -13.8977  -42.3572   -8.3137 C   0  0  0  0  0  0  0  0  0  0  0  0
  -15.8433  -40.7804   -8.1276 C   0  0  0  0  0  0  0  0  0  0  0  0
  -16.2851  -39.3800   -8.3474 C   0  0  2  0  0  0  0  0  0  0  0  0
  -15.5496  -38.4293   -7.6513 O   0  0  0  0  0  0  0  0  0  0  0  0
  -17.7538  -39.1507   -7.9365 C   0  0  2  0  0  0  0  0  0  0  0  0
  -18.0542  -37.7434   -8.2604 C   0  0  0  0  0  0  0  0  0  0  0  0
  -19.4264  -37.2692   -8.4116 C   0  0  2  0  0  0  0  0  0  0  0  0
  -20.4281  -37.7506   -7.3819 C   0  0  0  0  0  0  0  0  0  0  0  0
  -20.0348  -37.3030   -9.7905 C   0  0  0  0  0  0  0  0  0  0  0  0
  -20.5382  -38.5800  -10.3068 C   0  0  0  0  0  0  0  0  0  0  0  0
  -22.0721  -38.6751  -10.3042 C   0  0  0  0  0  0  0  0  0  0  0  0
  -22.5126  -40.1048  -10.5548 C   0  0  0  0  0  0  0  0  0  0  0  0
  -23.3191  -40.6530   -9.4385 C   0  0  0  0  0  0  0  0  0  0  0  0
  -23.2205  -42.0892   -9.2742 N   0  0  0  0  0  0  0  0  0  0  0  0
  -23.7008  -42.8911  -10.3872 C   0  0  0  0  0  0  0  0  0  0  0  0
  -22.6308  -43.5130  -11.2041 C   0  0  0  0  0  0  0  0  0  0  0  0
  -22.6941  -42.7057   -8.1231 C   0  0  0  0  0  0  0  0  0  0  0  0
  -23.2280  -43.8895   -7.9417 O   0  0  0  0  0  0  0  0  0  0  0  0
  -21.6929  -42.2644   -7.1301 C   0  0  0  0  0  0  0  0  0  0  0  0
  -22.1478  -42.6190   -5.8338 C   0  0  0  0  0  0  0  0  0  0  0  0
  -21.4537  -42.3345   -4.6834 C   0  0  0  0  0  0  0  0  0  0  0  0
  -20.2761  -41.6765   -4.8773 C   0  0  0  0  0  0  0  0  0  0  0  0
  -19.7604  -41.2907   -6.1461 C   0  0  0  0  0  0  0  0  0  0  0  0
  -20.4932  -41.6000   -7.2729 C   0  0  0  0  0  0  0  0  0  0  0  0
  -18.4766  -40.5909   -5.9534 C   0  0  0  0  0  0  0  0  0  0  0  0
  -17.6730  -41.0955   -5.0184 O   0  0  0  0  0  0  0  0  0  0  0  0
  -17.8456  -39.4853   -6.5139 N   0  0  0  0  0  0  0  0  0  0  0  0
  -21.9328  -42.7006   -3.4376 O   0  0  0  0  0  0  0  0  0  0  0  0
  -23.1536  -43.3718   -3.3064 C   0  0  0  0  0  0  0  0  0  0  0  0
  -23.5037  -43.8043   -1.9177 C   0  0  0  0  0  0  0  0  0  0  0  0
  1  2  1  0
  2  3  1  0
  3  4  1  0
  4  5  1  0
  5  6  1  0
  6  7  2  0
  6  8  1  0
  8  9  1  6
  8 10  1  0
 10 11  1  0
 11 12  1  1
 11 13  1  0
 13 14  1  1
 14 15  1  0
 15 16  1  1
 15 17  1  0
 17 18  1  0
 18 19  1  0
 19 20  1  0
 20 21  1  0
 21 22  1  0
 22 23  1  0
 23 24  1  0
 22 25  1  0
 25 26  2  0
 25 27  1  0
 27 28  2  0
 28 29  1  0
 29 30  2  0
 30 31  1  0
 31 32  2  0
 31 33  1  0
 33 34  2  0
 33 35  1  0
 29 36  1  0
 36 37  1  0
 37 38  1  0
 32 27  1  0
 35 13  1  0
M  END
$$$$
