
     RDKit          3D

 38 39  0  0  0  0  0  0  0  0999 V2000
  -12.1045  -35.5194  -13.8009 C   0  0  0  0  0  0  0  0  0  0  0  0
  -12.4324  -36.9947  -13.8638 C   0  0  0  0  0  0  0  0  0  0  0  0
  -12.4166  -37.6067  -12.4584 C   0  0  0  0  0  0  0  0  0  0  0  0
  -13.7246  -37.2309  -11.8201 C   0  0  0  0  0  0  0  0  0  0  0  0
  -14.6727  -38.2964  -11.7510 N   0  0  0  0  0  0  0  0  0  0  0  0
  -14.4091  -39.5871  -11.2311 C   0  0  0  0  0  0  0  0  0  0  0  0
  -14.2790  -40.5335  -12.0401 O   0  0  0  0  0  0  0  0  0  0  0  0
  -14.2807  -39.8669   -9.7829 C   0  0  2  0  0  0  0  0  0  0  0  0
  -13.1803  -40.8446   -9.5683 C   0  0  0  0  0  0  0  0  0  0  0  0
  -15.6366  -40.3983   -9.2970 C   0  0  0  0  0  0  0  0  0  0  0  0
  -16.5425  -39.2859   -8.9143 C   0  0  2  0  0  0  0  0  0  0  0  0
  -15.8997  -38.1848   -8.3633 O   0  0  0  0  0  0  0  0  0  0  0  0
  -17.5987  -39.7128   -7.8747 C   0  0  2  0  0  0  0  0  0  0  0  0
  -17.8486  -38.5265   -7.0346 C   0  0  0  0  0  0  0  0  0  0  0  0
  -19.0598  -38.4002   -6.2298 C   0  0  2  0  0  0  0  0  0  0  0  0
  -19.4981  -39.6327   -5.4653 C   0  0  0  0  0  0  0  0  0  0  0  0
  -20.2513  -37.7191   -6.8535 C   0  0  0  0  0  0  0  0  0  0  0  0
  -21.0868  -38.4789   -7.7890 C   0  0  0  0  0  0  0  0  0  0  0  0
  -22.4328  -38.9133   -7.1878 C   0  0  0  0  0  0  0  0  0  0  0  0
  -23.1050  -39.9368   -8.0831 C   0  0  0  0  0  0  0  0  0  0  0  0
  -23.3398  -41.2269   -7.3917 C   0  0  0  0  0  0  0  0  0  0  0  0
  -23.3452  -42.3840   -8.2637 N   0  0  0  0  0  0  0  0  0  0  0  0
  -24.3891  -42.4136   -9.2746 C   0  0  0  0  0  0  0  0  0  0  0  0
  -25.7615  -42.2190   -8.7476 C   0  0  0  0  0  0  0  0  0  0  0  0
  -22.4106  -43.4327   -8.1697 C   0  0  0  0  0  0  0  0  0  0  0  0
  -22.9290  -44.5598   -8.5943 O   0  0  0  0  0  0  0  0  0  0  0  0
  -21.0130  -43.4774   -7.6926 C   0  0  0  0  0  0  0  0  0  0  0  0
  -20.8328  -44.6500   -6.9144 C   0  0  0  0  0  0  0  0  0  0  0  0
  -19.6461  -44.9818   -6.3081 C   0  0  0  0  0  0  0  0  0  0  0  0
  -18.6351  -44.0905   -6.5101 C   0  0  0  0  0  0  0  0  0  0  0  0
  -18.7454  -42.8971   -7.2771 C   0  0  0  0  0  0  0  0  0  0  0  0
  -19.9576  -42.6075   -7.8680 C   0  0  0  0  0  0  0  0  0  0  0  0
  -17.4527  -42.1876   -7.2555 C   0  0  0  0  0  0  0  0  0  0  0  0
  -16.3665  -42.9538   -7.3437 O   0  0  0  0  0  0  0  0  0  0  0  0
  -17.0398  -40.8627   -7.1610 N   0  0  0  0  0  0  0  0  0  0  0  0
  -19.5125  -46.1376   -5.5585 O   0  0  0  0  0  0  0  0  0  0  0  0
  -20.1212  -47.3307   -5.9636 C   0  0  0  0  0  0  0  0  0  0  0  0
  -20.1669  -48.4123   -4.9309 C   0  0  0  0  0  0  0  0  0  0  0  0
  1  2  1  0
  2  3  1  0
  3  4  1  0
  4  5  1  0
  5  6  1  0
  6  7  2  0
  6  8  1  0
  8  9  1  6
  8 10  1  0
 10 11  1  0
 11 12  1  1
 11 13  1  0
 13 14  1  1
 14 15  1  0
 15 16  1  6
 15 17  1  0
 17 18  1  0
 18 19  1  0
 19 20  1  0
 20 21  1  0
 21 22  1  0
 22 23  1  0
 23 24  1  0
 22 25  1  0
 25 26  2  0
 25 27  1  0
 27 28  2  0
 28 29  1  0
 29 30  2  0
 30 31  1  0
 31 32  2  0
 31 33  1  0
 33 34  2  0
 33 35  1  0
 29 36  1  0
 36 37  1  0
 37 38  1  0
 32 27  1  0
 35 13  1  0
M  END
$$$$
