
     RDKit          3D

 38 39  0  0  0  0  0  0  0  0999 V2000
  -12.5282  -36.1091  -14.6412 C   0  0  0  0  0  0  0  0  0  0  0  0
  -13.7427  -36.9326  -14.2743 C   0  0  0  0  0  0  0  0  0  0  0  0
  -13.9824  -36.8874  -12.7609 C   0  0  0  0  0  0  0  0  0  0  0  0
  -13.3374  -38.1215  -12.1948 C   0  0  0  0  0  0  0  0  0  0  0  0
  -13.4548  -38.2490  -10.7775 N   0  0  0  0  0  0  0  0  0  0  0  0
  -14.3078  -39.1622  -10.1109 C   0  0  0  0  0  0  0  0  0  0  0  0
  -15.1307  -39.8092  -10.7973 O   0  0  0  0  0  0  0  0  0  0  0  0
  -14.2708  -39.3857   -8.6478 C   0  0  2  0  0  0  0  0  0  0  0  0
  -13.0023  -40.0749   -8.2892 C   0  0  0  0  0  0  0  0  0  0  0  0
  -15.5096  -40.2145   -8.2795 C   0  0  0  0  0  0  0  0  0  0  0  0
  -16.7421  -39.3880   -8.3303 C   0  0  2  0  0  0  0  0  0  0  0  0
  -16.5615  -38.0630   -7.9545 O   0  0  0  0  0  0  0  0  0  0  0  0
  -17.8575  -39.9307   -7.4138 C   0  0  2  0  0  0  0  0  0  0  0  0
  -18.1771  -38.8430   -6.4703 C   0  0  0  0  0  0  0  0  0  0  0  0
  -19.4394  -38.8115   -5.7380 C   0  0  2  0  0  0  0  0  0  0  0  0
  -19.9097  -40.1216   -5.1397 C   0  0  0  0  0  0  0  0  0  0  0  0
  -20.5971  -38.0750   -6.3625 C   0  0  0  0  0  0  0  0  0  0  0  0
  -21.3601  -38.7353   -7.4266 C   0  0  0  0  0  0  0  0  0  0  0  0
  -22.7362  -39.2403   -6.9649 C   0  0  0  0  0  0  0  0  0  0  0  0
  -23.3353  -40.1662   -8.0065 C   0  0  0  0  0  0  0  0  0  0  0  0
  -23.5971  -41.5244   -7.4736 C   0  0  0  0  0  0  0  0  0  0  0  0
  -23.5306  -42.5813   -8.4624 N   0  0  0  0  0  0  0  0  0  0  0  0
  -24.5064  -42.5090   -9.5372 C   0  0  0  0  0  0  0  0  0  0  0  0
  -25.8119  -43.1398   -9.2261 C   0  0  0  0  0  0  0  0  0  0  0  0
  -22.5901  -43.6281   -8.4194 C   0  0  0  0  0  0  0  0  0  0  0  0
  -23.0648  -44.7064   -8.9950 O   0  0  0  0  0  0  0  0  0  0  0  0
  -21.2257  -43.7148   -7.8590 C   0  0  0  0  0  0  0  0  0  0  0  0
  -21.0806  -44.9629   -7.2001 C   0  0  0  0  0  0  0  0  0  0  0  0
  -19.9313  -45.3503   -6.5559 C   0  0  0  0  0  0  0  0  0  0  0  0
  -18.9213  -44.4360   -6.5948 C   0  0  0  0  0  0  0  0  0  0  0  0
  -18.9978  -43.1679   -7.2358 C   0  0  0  0  0  0  0  0  0  0  0  0
  -20.1730  -42.8244   -7.8709 C   0  0  0  0  0  0  0  0  0  0  0  0
  -17.7188  -42.4567   -7.0537 C   0  0  0  0  0  0  0  0  0  0  0  0
  -16.6190  -43.2020   -7.1515 O   0  0  0  0  0  0  0  0  0  0  0  0
  -17.3306  -41.1469   -6.7915 N   0  0  0  0  0  0  0  0  0  0  0  0
  -19.8310  -46.5789   -5.9267 O   0  0  0  0  0  0  0  0  0  0  0  0
  -19.5259  -47.7352   -6.6533 C   0  0  0  0  0  0  0  0  0  0  0  0
  -19.1412  -48.9267   -5.8343 C   0  0  0  0  0  0  0  0  0  0  0  0
  1  2  1  0
  2  3  1  0
  3  4  1  0
  4  5  1  0
  5  6  1  0
  6  7  2  0
  6  8  1  0
  8  9  1  6
  8 10  1  0
 10 11  1  0
 11 12  1  1
 11 13  1  0
 13 14  1  1
 14 15  1  0
 15 16  1  6
 15 17  1  0
 17 18  1  0
 18 19  1  0
 19 20  1  0
 20 21  1  0
 21 22  1  0
 22 23  1  0
 23 24  1  0
 22 25  1  0
 25 26  2  0
 25 27  1  0
 27 28  2  0
 28 29  1  0
 29 30  2  0
 30 31  1  0
 31 32  2  0
 31 33  1  0
 33 34  2  0
 33 35  1  0
 29 36  1  0
 36 37  1  0
 37 38  1  0
 32 27  1  0
 35 13  1  0
M  END
$$$$
