
     RDKit          3D

 38 39  0  0  0  0  0  0  0  0999 V2000
  -12.5382  -39.5013  -16.1505 C   0  0  0  0  0  0  0  0  0  0  0  0
  -12.2131  -38.7556  -14.8754 C   0  0  0  0  0  0  0  0  0  0  0  0
  -13.3909  -38.8299  -13.8970 C   0  0  0  0  0  0  0  0  0  0  0  0
  -12.8195  -39.2841  -12.5830 C   0  0  0  0  0  0  0  0  0  0  0  0
  -13.5886  -38.8995  -11.4431 N   0  0  0  0  0  0  0  0  0  0  0  0
  -14.4480  -39.7576  -10.7145 C   0  0  0  0  0  0  0  0  0  0  0  0
  -15.0253  -40.6791  -11.3346 O   0  0  0  0  0  0  0  0  0  0  0  0
  -14.6933  -39.6159   -9.2613 C   0  0  2  0  0  0  0  0  0  0  0  0
  -13.5425  -40.1877   -8.5120 C   0  0  0  0  0  0  0  0  0  0  0  0
  -16.0113  -40.3377   -8.9466 C   0  0  0  0  0  0  0  0  0  0  0  0
  -17.0813  -39.3706   -8.5940 C   0  0  2  0  0  0  0  0  0  0  0  0
  -16.6200  -38.1634   -8.0848 O   0  0  0  0  0  0  0  0  0  0  0  0
  -18.0538  -39.9239   -7.5326 C   0  0  2  0  0  0  0  0  0  0  0  0
  -18.3914  -38.7875   -6.6551 C   0  0  0  0  0  0  0  0  0  0  0  0
  -19.5810  -38.8008   -5.8093 C   0  0  2  0  0  0  0  0  0  0  0  0
  -19.8684  -40.0875   -5.0628 C   0  0  0  0  0  0  0  0  0  0  0  0
  -20.8549  -38.2288   -6.3773 C   0  0  0  0  0  0  0  0  0  0  0  0
  -21.6422  -39.0475   -7.3048 C   0  0  0  0  0  0  0  0  0  0  0  0
  -22.9171  -39.6277   -6.6724 C   0  0  0  0  0  0  0  0  0  0  0  0
  -23.5145  -40.6933   -7.5715 C   0  0  0  0  0  0  0  0  0  0  0  0
  -23.5963  -42.0153   -6.9061 C   0  0  0  0  0  0  0  0  0  0  0  0
  -23.5165  -43.1476   -7.8065 N   0  0  0  0  0  0  0  0  0  0  0  0
  -24.5862  -43.2593   -8.7842 C   0  0  0  0  0  0  0  0  0  0  0  0
  -24.1432  -43.1528  -10.1954 C   0  0  0  0  0  0  0  0  0  0  0  0
  -22.4797  -44.0994   -7.7688 C   0  0  0  0  0  0  0  0  0  0  0  0
  -22.8978  -45.2630   -8.2053 O   0  0  0  0  0  0  0  0  0  0  0  0
  -21.0691  -44.0145   -7.3376 C   0  0  0  0  0  0  0  0  0  0  0  0
  -20.7469  -45.1801   -6.5955 C   0  0  0  0  0  0  0  0  0  0  0  0
  -19.5131  -45.4047   -6.0359 C   0  0  0  0  0  0  0  0  0  0  0  0
  -18.6031  -44.4124   -6.2472 C   0  0  0  0  0  0  0  0  0  0  0  0
  -18.8575  -43.2194   -6.9797 C   0  0  0  0  0  0  0  0  0  0  0  0
  -20.1119  -43.0396   -7.5243 C   0  0  0  0  0  0  0  0  0  0  0  0
  -17.6417  -42.3848   -6.9812 C   0  0  0  0  0  0  0  0  0  0  0  0
  -16.4884  -43.0362   -7.1233 O   0  0  0  0  0  0  0  0  0  0  0  0
  -17.3594  -41.0276   -6.8663 N   0  0  0  0  0  0  0  0  0  0  0  0
  -19.2399  -46.5576   -5.3205 O   0  0  0  0  0  0  0  0  0  0  0  0
  -18.8278  -47.7259   -5.9711 C   0  0  0  0  0  0  0  0  0  0  0  0
  -19.7169  -48.9144   -5.7835 C   0  0  0  0  0  0  0  0  0  0  0  0
  1  2  1  0
  2  3  1  0
  3  4  1  0
  4  5  1  0
  5  6  1  0
  6  7  2  0
  6  8  1  0
  8  9  1  1
  8 10  1  0
 10 11  1  0
 11 12  1  1
 11 13  1  0
 13 14  1  1
 14 15  1  0
 15 16  1  6
 15 17  1  0
 17 18  1  0
 18 19  1  0
 19 20  1  0
 20 21  1  0
 21 22  1  0
 22 23  1  0
 23 24  1  0
 22 25  1  0
 25 26  2  0
 25 27  1  0
 27 28  2  0
 28 29  1  0
 29 30  2  0
 30 31  1  0
 31 32  2  0
 31 33  1  0
 33 34  2  0
 33 35  1  0
 29 36  1  0
 36 37  1  0
 37 38  1  0
 32 27  1  0
 35 13  1  0
M  END
$$$$
