
     RDKit          3D

 38 39  0  0  0  0  0  0  0  0999 V2000
  -12.1590  -34.5475  -10.5743 C   0  0  0  0  0  0  0  0  0  0  0  0
  -13.5180  -34.7863  -11.1939 C   0  0  0  0  0  0  0  0  0  0  0  0
  -13.4188  -35.8248  -12.3171 C   0  0  0  0  0  0  0  0  0  0  0  0
  -13.7517  -37.1520  -11.6949 C   0  0  0  0  0  0  0  0  0  0  0  0
  -15.1454  -37.3606  -11.4651 N   0  0  0  0  0  0  0  0  0  0  0  0
  -15.7008  -38.4760  -10.7917 C   0  0  0  0  0  0  0  0  0  0  0  0
  -16.8724  -38.8130  -11.0757 O   0  0  0  0  0  0  0  0  0  0  0  0
  -14.9631  -39.2575   -9.7733 C   0  0  2  0  0  0  0  0  0  0  0  0
  -13.7889  -39.9102  -10.4120 C   0  0  0  0  0  0  0  0  0  0  0  0
  -15.9452  -40.2765   -9.1780 C   0  0  0  0  0  0  0  0  0  0  0  0
  -17.2223  -39.6265   -8.7894 C   0  0  2  0  0  0  0  0  0  0  0  0
  -17.0888  -38.3179   -8.3434 O   0  0  0  0  0  0  0  0  0  0  0  0
  -17.9491  -40.3788   -7.6560 C   0  0  2  0  0  0  0  0  0  0  0  0
  -18.0506  -39.4277   -6.5332 C   0  0  0  0  0  0  0  0  0  0  0  0
  -19.0219  -39.6126   -5.4594 C   0  0  2  0  0  0  0  0  0  0  0  0
  -19.1718  -41.0184   -4.9147 C   0  0  0  0  0  0  0  0  0  0  0  0
  -20.3736  -38.9632   -5.6134 C   0  0  0  0  0  0  0  0  0  0  0  0
  -21.3705  -39.6082   -6.4741 C   0  0  0  0  0  0  0  0  0  0  0  0
  -22.4883  -40.3120   -5.6886 C   0  0  0  0  0  0  0  0  0  0  0  0
  -23.3007  -41.2022   -6.6097 C   0  0  0  0  0  0  0  0  0  0  0  0
  -23.2694  -42.6250   -6.1952 C   0  0  0  0  0  0  0  0  0  0  0  0
  -23.4242  -43.5713   -7.2814 N   0  0  0  0  0  0  0  0  0  0  0  0
  -24.6874  -43.5158   -7.9981 C   0  0  0  0  0  0  0  0  0  0  0  0
  -25.6188  -42.4645   -7.5225 C   0  0  0  0  0  0  0  0  0  0  0  0
  -22.4323  -44.4995   -7.6511 C   0  0  0  0  0  0  0  0  0  0  0  0
  -22.9697  -45.5686   -8.1872 O   0  0  0  0  0  0  0  0  0  0  0  0
  -20.9592  -44.4761   -7.5389 C   0  0  0  0  0  0  0  0  0  0  0  0
  -20.5128  -45.7538   -7.1131 C   0  0  0  0  0  0  0  0  0  0  0  0
  -19.1921  -46.0607   -6.8947 C   0  0  0  0  0  0  0  0  0  0  0  0
  -18.3245  -45.0341   -7.1202 C   0  0  0  0  0  0  0  0  0  0  0  0
  -18.7020  -43.7303   -7.5471 C   0  0  0  0  0  0  0  0  0  0  0  0
  -20.0406  -43.4706   -7.7546 C   0  0  0  0  0  0  0  0  0  0  0  0
  -17.4940  -42.8932   -7.6689 C   0  0  0  0  0  0  0  0  0  0  0  0
  -16.4202  -43.4917   -8.1821 O   0  0  0  0  0  0  0  0  0  0  0  0
  -17.1551  -41.5766   -7.3749 N   0  0  0  0  0  0  0  0  0  0  0  0
  -18.7990  -47.3216   -6.4811 O   0  0  0  0  0  0  0  0  0  0  0  0
  -18.4136  -48.2945   -7.4100 C   0  0  0  0  0  0  0  0  0  0  0  0
  -17.6575  -49.4567   -6.8480 C   0  0  0  0  0  0  0  0  0  0  0  0
  1  2  1  0
  2  3  1  0
  3  4  1  0
  4  5  1  0
  5  6  1  0
  6  7  2  0
  6  8  1  0
  8  9  1  6
  8 10  1  0
 10 11  1  0
 11 12  1  1
 11 13  1  0
 13 14  1  1
 14 15  1  0
 15 16  1  6
 15 17  1  0
 17 18  1  0
 18 19  1  0
 19 20  1  0
 20 21  1  0
 21 22  1  0
 22 23  1  0
 23 24  1  0
 22 25  1  0
 25 26  2  0
 25 27  1  0
 27 28  2  0
 28 29  1  0
 29 30  2  0
 30 31  1  0
 31 32  2  0
 31 33  1  0
 33 34  2  0
 33 35  1  0
 29 36  1  0
 36 37  1  0
 37 38  1  0
 32 27  1  0
 35 13  1  0
M  END
$$$$
