
     RDKit          3D

 38 39  0  0  0  0  0  0  0  0999 V2000
  -13.8269  -44.3833  -13.3911 C   0  0  0  0  0  0  0  0  0  0  0  0
  -13.3587  -42.9457  -13.3471 C   0  0  0  0  0  0  0  0  0  0  0  0
  -12.7604  -42.6197  -11.9739 C   0  0  0  0  0  0  0  0  0  0  0  0
  -13.8737  -42.0209  -11.1604 C   0  0  0  0  0  0  0  0  0  0  0  0
  -13.4679  -41.5231   -9.8851 N   0  0  0  0  0  0  0  0  0  0  0  0
  -14.3459  -41.1912   -8.8246 C   0  0  0  0  0  0  0  0  0  0  0  0
  -15.3664  -41.8974   -8.6609 O   0  0  0  0  0  0  0  0  0  0  0  0
  -14.1134  -40.0539   -7.9056 C   0  0  2  0  0  0  0  0  0  0  0  0
  -13.0732  -40.4317   -6.9116 C   0  0  0  0  0  0  0  0  0  0  0  0
  -15.4574  -39.7169   -7.2445 C   0  0  0  0  0  0  0  0  0  0  0  0
  -16.5225  -39.5268   -8.2615 C   0  0  2  0  0  0  0  0  0  0  0  0
  -16.3527  -38.4098   -9.0695 O   0  0  0  0  0  0  0  0  0  0  0  0
  -17.9222  -39.3746   -7.6322 C   0  0  2  0  0  0  0  0  0  0  0  0
  -18.2329  -37.9332   -7.6693 C   0  0  0  0  0  0  0  0  0  0  0  0
  -19.6034  -37.4429   -7.5596 C   0  0  2  0  0  0  0  0  0  0  0  0
  -20.4758  -38.0965   -6.5074 C   0  0  0  0  0  0  0  0  0  0  0  0
  -20.3825  -37.2400   -8.8342 C   0  0  0  0  0  0  0  0  0  0  0  0
  -20.9729  -38.4100   -9.4922 C   0  0  0  0  0  0  0  0  0  0  0  0
  -22.4956  -38.5073   -9.3089 C   0  0  0  0  0  0  0  0  0  0  0  0
  -22.9931  -39.8734   -9.7417 C   0  0  0  0  0  0  0  0  0  0  0  0
  -23.6622  -40.6073   -8.6412 C   0  0  0  0  0  0  0  0  0  0  0  0
  -23.5725  -42.0501   -8.7390 N   0  0  0  0  0  0  0  0  0  0  0  0
  -24.2062  -42.6494   -9.9017 C   0  0  0  0  0  0  0  0  0  0  0  0
  -25.5691  -42.1411  -10.1898 C   0  0  0  0  0  0  0  0  0  0  0  0
  -22.9167  -42.8545   -7.7877 C   0  0  0  0  0  0  0  0  0  0  0  0
  -23.4470  -44.0530   -7.7444 O   0  0  0  0  0  0  0  0  0  0  0  0
  -21.7890  -42.5888   -6.8709 C   0  0  0  0  0  0  0  0  0  0  0  0
  -22.0827  -43.1622   -5.6067 C   0  0  0  0  0  0  0  0  0  0  0  0
  -21.2427  -43.0786   -4.5235 C   0  0  0  0  0  0  0  0  0  0  0  0
  -20.0861  -42.3946   -4.7516 C   0  0  0  0  0  0  0  0  0  0  0  0
  -19.7280  -41.7951   -5.9914 C   0  0  0  0  0  0  0  0  0  0  0  0
  -20.6040  -41.9072   -7.0509 C   0  0  0  0  0  0  0  0  0  0  0  0
  -18.4164  -41.1363   -5.8484 C   0  0  0  0  0  0  0  0  0  0  0  0
  -17.5109  -41.7927   -5.1246 O   0  0  0  0  0  0  0  0  0  0  0  0
  -17.8394  -39.9494   -6.2879 N   0  0  0  0  0  0  0  0  0  0  0  0
  -21.5670  -43.6547   -3.3076 O   0  0  0  0  0  0  0  0  0  0  0  0
  -20.7546  -43.4662   -2.1841 C   0  0  0  0  0  0  0  0  0  0  0  0
  -21.4797  -43.3134   -0.8844 C   0  0  0  0  0  0  0  0  0  0  0  0
  1  2  1  0
  2  3  1  0
  3  4  1  0
  4  5  1  0
  5  6  1  0
  6  7  2  0
  6  8  1  0
  8  9  1  1
  8 10  1  0
 10 11  1  0
 11 12  1  1
 11 13  1  0
 13 14  1  1
 14 15  1  0
 15 16  1  1
 15 17  1  0
 17 18  1  0
 18 19  1  0
 19 20  1  0
 20 21  1  0
 21 22  1  0
 22 23  1  0
 23 24  1  0
 22 25  1  0
 25 26  2  0
 25 27  1  0
 27 28  2  0
 28 29  1  0
 29 30  2  0
 30 31  1  0
 31 32  2  0
 31 33  1  0
 33 34  2  0
 33 35  1  0
 29 36  1  0
 36 37  1  0
 37 38  1  0
 32 27  1  0
 35 13  1  0
M  END
$$$$
