
     RDKit          3D

 38 39  0  0  0  0  0  0  0  0999 V2000
  -12.6539  -36.3908  -14.2161 C   0  0  0  0  0  0  0  0  0  0  0  0
  -12.0517  -37.5714  -13.4873 C   0  0  0  0  0  0  0  0  0  0  0  0
  -11.9555  -37.2805  -11.9852 C   0  0  0  0  0  0  0  0  0  0  0  0
  -13.2925  -37.6400  -11.3996 C   0  0  0  0  0  0  0  0  0  0  0  0
  -13.2216  -38.4494  -10.2254 N   0  0  0  0  0  0  0  0  0  0  0  0
  -13.9856  -39.6198   -9.9970 C   0  0  0  0  0  0  0  0  0  0  0  0
  -14.6226  -40.1053  -10.9590 O   0  0  0  0  0  0  0  0  0  0  0  0
  -14.0646  -40.2920   -8.6802 C   0  0  2  0  0  0  0  0  0  0  0  0
  -13.3058  -41.5702   -8.7360 C   0  0  0  0  0  0  0  0  0  0  0  0
  -15.5514  -40.5092   -8.3652 C   0  0  0  0  0  0  0  0  0  0  0  0
  -16.3598  -39.3251   -8.7513 C   0  0  2  0  0  0  0  0  0  0  0  0
  -15.7030  -38.1095   -8.6088 O   0  0  0  0  0  0  0  0  0  0  0  0
  -17.6548  -39.1963   -7.9236 C   0  0  2  0  0  0  0  0  0  0  0  0
  -18.1109  -37.8038   -8.0916 C   0  0  0  0  0  0  0  0  0  0  0  0
  -19.4906  -37.4125   -7.8198 C   0  0  2  0  0  0  0  0  0  0  0  0
  -20.1212  -37.9774   -6.5634 C   0  0  0  0  0  0  0  0  0  0  0  0
  -20.4722  -37.4541   -8.9632 C   0  0  0  0  0  0  0  0  0  0  0  0
  -21.0358  -38.7484   -9.3605 C   0  0  0  0  0  0  0  0  0  0  0  0
  -22.4949  -38.9386   -8.9169 C   0  0  0  0  0  0  0  0  0  0  0  0
  -22.9128  -40.3871   -9.0843 C   0  0  0  0  0  0  0  0  0  0  0  0
  -23.3282  -41.0084   -7.8041 C   0  0  0  0  0  0  0  0  0  0  0  0
  -23.1098  -42.4389   -7.7313 N   0  0  0  0  0  0  0  0  0  0  0  0
  -23.8507  -43.2448   -8.6875 C   0  0  0  0  0  0  0  0  0  0  0  0
  -25.3123  -43.3000   -8.4434 C   0  0  0  0  0  0  0  0  0  0  0  0
  -22.2385  -43.0463   -6.8073 C   0  0  0  0  0  0  0  0  0  0  0  0
  -22.6326  -44.2646   -6.5249 O   0  0  0  0  0  0  0  0  0  0  0  0
  -21.0161  -42.5653   -6.1309 C   0  0  0  0  0  0  0  0  0  0  0  0
  -21.0534  -42.9755   -4.7731 C   0  0  0  0  0  0  0  0  0  0  0  0
  -20.0700  -42.6734   -3.8634 C   0  0  0  0  0  0  0  0  0  0  0  0
  -19.0368  -41.9395   -4.3647 C   0  0  0  0  0  0  0  0  0  0  0  0
  -18.9350  -41.4951   -5.7126 C   0  0  0  0  0  0  0  0  0  0  0  0
  -19.9473  -41.8248   -6.5896 C   0  0  0  0  0  0  0  0  0  0  0  0
  -17.6900  -40.7213   -5.8735 C   0  0  0  0  0  0  0  0  0  0  0  0
  -16.6229  -41.1951   -5.2320 O   0  0  0  0  0  0  0  0  0  0  0  0
  -17.3096  -39.5667   -6.5495 N   0  0  0  0  0  0  0  0  0  0  0  0
  -20.1446  -43.0954   -2.5473 O   0  0  0  0  0  0  0  0  0  0  0  0
  -21.0065  -44.1323   -2.1734 C   0  0  0  0  0  0  0  0  0  0  0  0
  -21.0577  -44.4291   -0.7079 C   0  0  0  0  0  0  0  0  0  0  0  0
  1  2  1  0
  2  3  1  0
  3  4  1  0
  4  5  1  0
  5  6  1  0
  6  7  2  0
  6  8  1  0
  8  9  1  6
  8 10  1  0
 10 11  1  0
 11 12  1  1
 11 13  1  0
 13 14  1  1
 14 15  1  0
 15 16  1  1
 15 17  1  0
 17 18  1  0
 18 19  1  0
 19 20  1  0
 20 21  1  0
 21 22  1  0
 22 23  1  0
 23 24  1  0
 22 25  1  0
 25 26  2  0
 25 27  1  0
 27 28  2  0
 28 29  1  0
 29 30  2  0
 30 31  1  0
 31 32  2  0
 31 33  1  0
 33 34  2  0
 33 35  1  0
 29 36  1  0
 36 37  1  0
 37 38  1  0
 32 27  1  0
 35 13  1  0
M  END
$$$$
