
     RDKit          3D

 38 39  0  0  0  0  0  0  0  0999 V2000
  -12.8718  -35.4434  -13.2924 C   0  0  0  0  0  0  0  0  0  0  0  0
  -13.3724  -36.3399  -12.1817 C   0  0  0  0  0  0  0  0  0  0  0  0
  -12.2310  -37.2073  -11.6388 C   0  0  0  0  0  0  0  0  0  0  0  0
  -12.5448  -38.6200  -12.0456 C   0  0  0  0  0  0  0  0  0  0  0  0
  -12.6911  -39.5276  -10.9531 N   0  0  0  0  0  0  0  0  0  0  0  0
  -13.9277  -39.9752  -10.4275 C   0  0  0  0  0  0  0  0  0  0  0  0
  -14.3475  -41.0995  -10.7836 O   0  0  0  0  0  0  0  0  0  0  0  0
  -14.7420  -39.1791   -9.4814 C   0  0  2  0  0  0  0  0  0  0  0  0
  -14.1186  -39.2338   -8.1319 C   0  0  0  0  0  0  0  0  0  0  0  0
  -16.1611  -39.7648   -9.4929 C   0  0  0  0  0  0  0  0  0  0  0  0
  -17.1209  -38.8584   -8.8134 C   0  0  2  0  0  0  0  0  0  0  0  0
  -16.5289  -37.8937   -8.0082 O   0  0  0  0  0  0  0  0  0  0  0  0
  -18.1048  -39.6155   -7.8984 C   0  0  2  0  0  0  0  0  0  0  0  0
  -18.3985  -38.7078   -6.7736 C   0  0  0  0  0  0  0  0  0  0  0  0
  -19.5825  -38.8829   -5.9382 C   0  0  2  0  0  0  0  0  0  0  0  0
  -19.9084  -40.2996   -5.5113 C   0  0  0  0  0  0  0  0  0  0  0  0
  -20.8399  -38.1536   -6.3378 C   0  0  0  0  0  0  0  0  0  0  0  0
  -21.6602  -38.7058   -7.4207 C   0  0  0  0  0  0  0  0  0  0  0  0
  -22.9499  -39.3785   -6.9247 C   0  0  0  0  0  0  0  0  0  0  0  0
  -23.5884  -40.1832   -8.0409 C   0  0  0  0  0  0  0  0  0  0  0  0
  -23.7105  -41.6215   -7.7040 C   0  0  0  0  0  0  0  0  0  0  0  0
  -23.6744  -42.5118   -8.8465 N   0  0  0  0  0  0  0  0  0  0  0  0
  -24.7533  -42.3565   -9.8080 C   0  0  0  0  0  0  0  0  0  0  0  0
  -26.0496  -42.9332   -9.3764 C   0  0  0  0  0  0  0  0  0  0  0  0
  -22.6701  -43.4775   -9.0483 C   0  0  0  0  0  0  0  0  0  0  0  0
  -23.1298  -44.4920   -9.7403 O   0  0  0  0  0  0  0  0  0  0  0  0
  -21.2547  -43.5406   -8.6290 C   0  0  0  0  0  0  0  0  0  0  0  0
  -20.9673  -44.8577   -8.1865 C   0  0  0  0  0  0  0  0  0  0  0  0
  -19.7383  -45.2463   -7.7128 C   0  0  0  0  0  0  0  0  0  0  0  0
  -18.7967  -44.2611   -7.6974 C   0  0  0  0  0  0  0  0  0  0  0  0
  -19.0154  -42.9217   -8.1251 C   0  0  0  0  0  0  0  0  0  0  0  0
  -20.2665  -42.5797   -8.5946 C   0  0  0  0  0  0  0  0  0  0  0  0
  -17.7723  -42.1487   -7.9473 C   0  0  0  0  0  0  0  0  0  0  0  0
  -16.6425  -42.7840   -8.2547 O   0  0  0  0  0  0  0  0  0  0  0  0
  -17.4437  -40.8663   -7.5203 N   0  0  0  0  0  0  0  0  0  0  0  0
  -19.4996  -46.5433   -7.2926 O   0  0  0  0  0  0  0  0  0  0  0  0
  -20.1464  -47.6254   -7.8995 C   0  0  0  0  0  0  0  0  0  0  0  0
  -19.8411  -48.9679   -7.3141 C   0  0  0  0  0  0  0  0  0  0  0  0
  1  2  1  0
  2  3  1  0
  3  4  1  0
  4  5  1  0
  5  6  1  0
  6  7  2  0
  6  8  1  0
  8  9  1  1
  8 10  1  0
 10 11  1  0
 11 12  1  1
 11 13  1  0
 13 14  1  1
 14 15  1  0
 15 16  1  6
 15 17  1  0
 17 18  1  0
 18 19  1  0
 19 20  1  0
 20 21  1  0
 21 22  1  0
 22 23  1  0
 23 24  1  0
 22 25  1  0
 25 26  2  0
 25 27  1  0
 27 28  2  0
 28 29  1  0
 29 30  2  0
 30 31  1  0
 31 32  2  0
 31 33  1  0
 33 34  2  0
 33 35  1  0
 29 36  1  0
 36 37  1  0
 37 38  1  0
 32 27  1  0
 35 13  1  0
M  END
$$$$
