
     RDKit          3D

 38 39  0  0  0  0  0  0  0  0999 V2000
  -11.8819  -34.8301  -12.4462 C   0  0  0  0  0  0  0  0  0  0  0  0
  -11.9643  -36.3095  -12.7503 C   0  0  0  0  0  0  0  0  0  0  0  0
  -12.0843  -37.1166  -11.4525 C   0  0  0  0  0  0  0  0  0  0  0  0
  -13.4893  -37.6496  -11.4158 C   0  0  0  0  0  0  0  0  0  0  0  0
  -13.7914  -38.4316  -10.2600 N   0  0  0  0  0  0  0  0  0  0  0  0
  -14.6657  -39.5456  -10.2374 C   0  0  0  0  0  0  0  0  0  0  0  0
  -15.4567  -39.6940  -11.1962 O   0  0  0  0  0  0  0  0  0  0  0  0
  -14.6865  -40.5375   -9.1384 C   0  0  2  0  0  0  0  0  0  0  0  0
  -13.7671  -41.6582   -9.4721 C   0  0  0  0  0  0  0  0  0  0  0  0
  -16.1393  -41.0046   -8.9703 C   0  0  0  0  0  0  0  0  0  0  0  0
  -17.0320  -39.8679   -8.6303 C   0  0  2  0  0  0  0  0  0  0  0  0
  -16.3890  -38.7900   -8.0353 O   0  0  0  0  0  0  0  0  0  0  0  0
  -18.1572  -40.2694   -7.6550 C   0  0  2  0  0  0  0  0  0  0  0  0
  -18.4283  -39.0772   -6.8301 C   0  0  0  0  0  0  0  0  0  0  0  0
  -19.6816  -38.9221   -6.0979 C   0  0  2  0  0  0  0  0  0  0  0  0
  -20.1927  -40.1436   -5.3615 C   0  0  0  0  0  0  0  0  0  0  0  0
  -20.8181  -38.2137   -6.7900 C   0  0  0  0  0  0  0  0  0  0  0  0
  -21.6146  -38.9543   -7.7737 C   0  0  0  0  0  0  0  0  0  0  0  0
  -23.0034  -39.3568   -7.2531 C   0  0  0  0  0  0  0  0  0  0  0  0
  -23.6454  -40.3649   -8.1872 C   0  0  0  0  0  0  0  0  0  0  0  0
  -23.9506  -41.6487   -7.5119 C   0  0  0  0  0  0  0  0  0  0  0  0
  -23.9317  -42.8058   -8.3836 N   0  0  0  0  0  0  0  0  0  0  0  0
  -24.9146  -42.8117   -9.4543 C   0  0  0  0  0  0  0  0  0  0  0  0
  -24.3924  -42.3735  -10.7712 C   0  0  0  0  0  0  0  0  0  0  0  0
  -23.0290  -43.8761   -8.2356 C   0  0  0  0  0  0  0  0  0  0  0  0
  -23.5477  -44.9910   -8.6909 O   0  0  0  0  0  0  0  0  0  0  0  0
  -21.6633  -43.9531   -7.6771 C   0  0  0  0  0  0  0  0  0  0  0  0
  -21.5567  -45.1292   -6.8906 C   0  0  0  0  0  0  0  0  0  0  0  0
  -20.4158  -45.4883   -6.2158 C   0  0  0  0  0  0  0  0  0  0  0  0
  -19.3741  -44.6209   -6.3572 C   0  0  0  0  0  0  0  0  0  0  0  0
  -19.4112  -43.4257   -7.1284 C   0  0  0  0  0  0  0  0  0  0  0  0
  -20.5794  -43.1082   -7.7894 C   0  0  0  0  0  0  0  0  0  0  0  0
  -18.1058  -42.7466   -7.0302 C   0  0  0  0  0  0  0  0  0  0  0  0
  -17.0345  -43.5380   -7.0549 O   0  0  0  0  0  0  0  0  0  0  0  0
  -17.6683  -41.4317   -6.9105 N   0  0  0  0  0  0  0  0  0  0  0  0
  -20.3536  -46.6465   -5.4606 O   0  0  0  0  0  0  0  0  0  0  0  0
  -21.4136  -47.0173   -4.6259 C   0  0  0  0  0  0  0  0  0  0  0  0
  -21.9126  -48.4166   -4.8031 C   0  0  0  0  0  0  0  0  0  0  0  0
  1  2  1  0
  2  3  1  0
  3  4  1  0
  4  5  1  0
  5  6  1  0
  6  7  2  0
  6  8  1  0
  8  9  1  6
  8 10  1  0
 10 11  1  0
 11 12  1  1
 11 13  1  0
 13 14  1  1
 14 15  1  0
 15 16  1  6
 15 17  1  0
 17 18  1  0
 18 19  1  0
 19 20  1  0
 20 21  1  0
 21 22  1  0
 22 23  1  0
 23 24  1  0
 22 25  1  0
 25 26  2  0
 25 27  1  0
 27 28  2  0
 28 29  1  0
 29 30  2  0
 30 31  1  0
 31 32  2  0
 31 33  1  0
 33 34  2  0
 33 35  1  0
 29 36  1  0
 36 37  1  0
 37 38  1  0
 32 27  1  0
 35 13  1  0
M  END
$$$$
