
     RDKit          3D

 38 39  0  0  0  0  0  0  0  0999 V2000
  -13.7305  -35.0701  -12.5119 C   0  0  0  0  0  0  0  0  0  0  0  0
  -13.1402  -35.9482  -11.4311 C   0  0  0  0  0  0  0  0  0  0  0  0
  -12.9035  -37.3661  -11.9637 C   0  0  0  0  0  0  0  0  0  0  0  0
  -12.3752  -38.1682  -10.8073 C   0  0  0  0  0  0  0  0  0  0  0  0
  -13.3560  -38.4973   -9.8232 N   0  0  0  0  0  0  0  0  0  0  0  0
  -14.1965  -39.6366   -9.8619 C   0  0  0  0  0  0  0  0  0  0  0  0
  -14.8403  -39.8592  -10.9121 O   0  0  0  0  0  0  0  0  0  0  0  0
  -14.3474  -40.5714   -8.7237 C   0  0  2  0  0  0  0  0  0  0  0  0
  -14.9375  -41.8467   -9.2118 C   0  0  0  0  0  0  0  0  0  0  0  0
  -15.2341  -39.8806   -7.6779 C   0  0  0  0  0  0  0  0  0  0  0  0
  -16.4264  -39.2619   -8.3105 C   0  0  2  0  0  0  0  0  0  0  0  0
  -16.3642  -37.8790   -8.4245 O   0  0  0  0  0  0  0  0  0  0  0  0
  -17.7275  -39.5561   -7.5365 C   0  0  2  0  0  0  0  0  0  0  0  0
  -18.1093  -38.2906   -6.8821 C   0  0  0  0  0  0  0  0  0  0  0  0
  -19.4719  -38.0502   -6.4173 C   0  0  2  0  0  0  0  0  0  0  0  0
  -20.1524  -39.1923   -5.6907 C   0  0  0  0  0  0  0  0  0  0  0  0
  -20.4340  -37.3879   -7.3703 C   0  0  0  0  0  0  0  0  0  0  0  0
  -21.0556  -38.2003   -8.4211 C   0  0  0  0  0  0  0  0  0  0  0  0
  -22.5300  -38.5318   -8.1419 C   0  0  0  0  0  0  0  0  0  0  0  0
  -23.0180  -39.6086   -9.0922 C   0  0  0  0  0  0  0  0  0  0  0  0
  -23.4869  -40.8217   -8.3810 C   0  0  0  0  0  0  0  0  0  0  0  0
  -23.3428  -42.0523   -9.1321 N   0  0  0  0  0  0  0  0  0  0  0  0
  -24.1067  -42.1377  -10.3657 C   0  0  0  0  0  0  0  0  0  0  0  0
  -25.0080  -40.9862  -10.6120 C   0  0  0  0  0  0  0  0  0  0  0  0
  -22.5199  -43.1197   -8.7251 C   0  0  0  0  0  0  0  0  0  0  0  0
  -22.9803  -44.2622   -9.1747 O   0  0  0  0  0  0  0  0  0  0  0  0
  -21.2868  -43.1690   -7.9127 C   0  0  0  0  0  0  0  0  0  0  0  0
  -21.3688  -44.2716   -7.0236 C   0  0  0  0  0  0  0  0  0  0  0  0
  -20.3875  -44.5877   -6.1163 C   0  0  0  0  0  0  0  0  0  0  0  0
  -19.3097  -43.7536   -6.1300 C   0  0  0  0  0  0  0  0  0  0  0  0
  -19.1617  -42.6316   -6.9926 C   0  0  0  0  0  0  0  0  0  0  0  0
  -20.1738  -42.3554   -7.8881 C   0  0  0  0  0  0  0  0  0  0  0  0
  -17.8763  -41.9681   -6.7059 C   0  0  0  0  0  0  0  0  0  0  0  0
  -16.8462  -42.7760   -6.4594 O   0  0  0  0  0  0  0  0  0  0  0  0
  -17.4259  -40.6551   -6.6169 N   0  0  0  0  0  0  0  0  0  0  0  0
  -20.5066  -45.6746   -5.2678 O   0  0  0  0  0  0  0  0  0  0  0  0
  -20.3558  -46.9803   -5.7477 C   0  0  0  0  0  0  0  0  0  0  0  0
  -20.1221  -48.0262   -4.7037 C   0  0  0  0  0  0  0  0  0  0  0  0
  1  2  1  0
  2  3  1  0
  3  4  1  0
  4  5  1  0
  5  6  1  0
  6  7  2  0
  6  8  1  0
  8  9  1  6
  8 10  1  0
 10 11  1  0
 11 12  1  1
 11 13  1  0
 13 14  1  1
 14 15  1  0
 15 16  1  6
 15 17  1  0
 17 18  1  0
 18 19  1  0
 19 20  1  0
 20 21  1  0
 21 22  1  0
 22 23  1  0
 23 24  1  0
 22 25  1  0
 25 26  2  0
 25 27  1  0
 27 28  2  0
 28 29  1  0
 29 30  2  0
 30 31  1  0
 31 32  2  0
 31 33  1  0
 33 34  2  0
 33 35  1  0
 29 36  1  0
 36 37  1  0
 37 38  1  0
 32 27  1  0
 35 13  1  0
M  END
$$$$
