
     RDKit          3D

 38 39  0  0  0  0  0  0  0  0999 V2000
  -13.5355  -40.5273  -15.0319 C   0  0  0  0  0  0  0  0  0  0  0  0
  -12.9793  -41.0790  -13.7380 C   0  0  0  0  0  0  0  0  0  0  0  0
  -14.0297  -40.9942  -12.6248 C   0  0  0  0  0  0  0  0  0  0  0  0
  -13.4336  -40.1320  -11.5474 C   0  0  0  0  0  0  0  0  0  0  0  0
  -13.3780  -40.7515  -10.2621 N   0  0  0  0  0  0  0  0  0  0  0  0
  -14.3722  -40.6364   -9.2600 C   0  0  0  0  0  0  0  0  0  0  0  0
  -15.4521  -41.2468   -9.4279 O   0  0  0  0  0  0  0  0  0  0  0  0
  -14.1937  -39.8322   -8.0298 C   0  0  2  0  0  0  0  0  0  0  0  0
  -13.1628  -40.4734   -7.1703 C   0  0  0  0  0  0  0  0  0  0  0  0
  -15.5607  -39.7464   -7.3363 C   0  0  0  0  0  0  0  0  0  0  0  0
  -16.6152  -39.3022   -8.2826 C   0  0  2  0  0  0  0  0  0  0  0  0
  -16.3463  -38.0967   -8.9181 O   0  0  0  0  0  0  0  0  0  0  0  0
  -17.9844  -39.1139   -7.5983 C   0  0  2  0  0  0  0  0  0  0  0  0
  -18.4034  -37.7313   -7.8951 C   0  0  0  0  0  0  0  0  0  0  0  0
  -19.7982  -37.3146   -7.7873 C   0  0  2  0  0  0  0  0  0  0  0  0
  -20.5582  -37.7969   -6.5686 C   0  0  0  0  0  0  0  0  0  0  0  0
  -20.6613  -37.4198   -9.0187 C   0  0  0  0  0  0  0  0  0  0  0  0
  -21.1992  -38.7321   -9.3916 C   0  0  0  0  0  0  0  0  0  0  0  0
  -22.6976  -38.8848   -9.0858 C   0  0  0  0  0  0  0  0  0  0  0  0
  -23.1155  -40.3379   -9.2064 C   0  0  0  0  0  0  0  0  0  0  0  0
  -23.6644  -40.8765   -7.9392 C   0  0  0  0  0  0  0  0  0  0  0  0
  -23.4729  -42.3013   -7.7585 N   0  0  0  0  0  0  0  0  0  0  0  0
  -24.1251  -43.1593   -8.7336 C   0  0  0  0  0  0  0  0  0  0  0  0
  -25.6047  -43.1857   -8.6376 C   0  0  0  0  0  0  0  0  0  0  0  0
  -22.7060  -42.8567   -6.7167 C   0  0  0  0  0  0  0  0  0  0  0  0
  -23.1421  -44.0526   -6.4021 O   0  0  0  0  0  0  0  0  0  0  0  0
  -21.5510  -42.3434   -5.9514 C   0  0  0  0  0  0  0  0  0  0  0  0
  -21.7288  -42.6691   -4.5820 C   0  0  0  0  0  0  0  0  0  0  0  0
  -20.8372  -42.3184   -3.5981 C   0  0  0  0  0  0  0  0  0  0  0  0
  -19.7498  -41.6237   -4.0367 C   0  0  0  0  0  0  0  0  0  0  0  0
  -19.5083  -41.2637   -5.3920 C   0  0  0  0  0  0  0  0  0  0  0  0
  -20.4323  -41.6398   -6.3446 C   0  0  0  0  0  0  0  0  0  0  0  0
  -18.2435  -40.5098   -5.4736 C   0  0  0  0  0  0  0  0  0  0  0  0
  -17.2520  -40.9506   -4.7009 O   0  0  0  0  0  0  0  0  0  0  0  0
  -17.7827  -39.4016   -6.1767 N   0  0  0  0  0  0  0  0  0  0  0  0
  -21.0481  -42.6582   -2.2731 O   0  0  0  0  0  0  0  0  0  0  0  0
  -20.6803  -43.9178   -1.7873 C   0  0  0  0  0  0  0  0  0  0  0  0
  -20.7840  -44.0909   -0.3049 C   0  0  0  0  0  0  0  0  0  0  0  0
  1  2  1  0
  2  3  1  0
  3  4  1  0
  4  5  1  0
  5  6  1  0
  6  7  2  0
  6  8  1  0
  8  9  1  1
  8 10  1  0
 10 11  1  0
 11 12  1  1
 11 13  1  0
 13 14  1  1
 14 15  1  0
 15 16  1  1
 15 17  1  0
 17 18  1  0
 18 19  1  0
 19 20  1  0
 20 21  1  0
 21 22  1  0
 22 23  1  0
 23 24  1  0
 22 25  1  0
 25 26  2  0
 25 27  1  0
 27 28  2  0
 28 29  1  0
 29 30  2  0
 30 31  1  0
 31 32  2  0
 31 33  1  0
 33 34  2  0
 33 35  1  0
 29 36  1  0
 36 37  1  0
 37 38  1  0
 32 27  1  0
 35 13  1  0
M  END
$$$$
