
     RDKit          3D

 38 39  0  0  0  0  0  0  0  0999 V2000
  -12.1982  -37.0880  -14.5804 C   0  0  0  0  0  0  0  0  0  0  0  0
  -12.4571  -38.1484  -13.5332 C   0  0  0  0  0  0  0  0  0  0  0  0
  -12.3895  -37.5400  -12.1277 C   0  0  0  0  0  0  0  0  0  0  0  0
  -12.6946  -38.6574  -11.1696 C   0  0  0  0  0  0  0  0  0  0  0  0
  -13.9402  -39.3133  -11.4088 N   0  0  0  0  0  0  0  0  0  0  0  0
  -14.5300  -40.2757  -10.5533 C   0  0  0  0  0  0  0  0  0  0  0  0
  -14.9466  -41.3407  -11.0623 O   0  0  0  0  0  0  0  0  0  0  0  0
  -14.6754  -40.0811   -9.0928 C   0  0  2  0  0  0  0  0  0  0  0  0
  -13.7780  -41.0297   -8.3803 C   0  0  0  0  0  0  0  0  0  0  0  0
  -16.1542  -40.3043   -8.7459 C   0  0  0  0  0  0  0  0  0  0  0  0
  -16.9073  -39.0247   -8.7601 C   0  0  2  0  0  0  0  0  0  0  0  0
  -16.2249  -37.9500   -8.2046 O   0  0  0  0  0  0  0  0  0  0  0  0
  -18.2401  -39.1130   -7.9891 C   0  0  2  0  0  0  0  0  0  0  0  0
  -18.9028  -37.8074   -8.1670 C   0  0  0  0  0  0  0  0  0  0  0  0
  -20.3373  -37.6421   -7.9533 C   0  0  2  0  0  0  0  0  0  0  0  0
  -20.9232  -38.3167   -6.7298 C   0  0  0  0  0  0  0  0  0  0  0  0
  -21.2508  -37.8218   -9.1389 C   0  0  0  0  0  0  0  0  0  0  0  0
  -21.5857  -39.1829   -9.5698 C   0  0  0  0  0  0  0  0  0  0  0  0
  -23.0138  -39.6067   -9.1921 C   0  0  0  0  0  0  0  0  0  0  0  0
  -23.1904  -41.1004   -9.3880 C   0  0  0  0  0  0  0  0  0  0  0  0
  -23.5561  -41.7972   -8.1318 C   0  0  0  0  0  0  0  0  0  0  0  0
  -23.1179  -43.1763   -8.0597 N   0  0  0  0  0  0  0  0  0  0  0  0
  -23.6812  -44.0754   -9.0532 C   0  0  0  0  0  0  0  0  0  0  0  0
  -25.0573  -44.5393   -8.7530 C   0  0  0  0  0  0  0  0  0  0  0  0
  -22.2013  -43.6519   -7.1026 C   0  0  0  0  0  0  0  0  0  0  0  0
  -22.4097  -44.9209   -6.8466 O   0  0  0  0  0  0  0  0  0  0  0  0
  -21.0999  -42.9939   -6.3699 C   0  0  0  0  0  0  0  0  0  0  0  0
  -21.1293  -43.4238   -5.0180 C   0  0  0  0  0  0  0  0  0  0  0  0
  -20.2452  -42.9834   -4.0638 C   0  0  0  0  0  0  0  0  0  0  0  0
  -19.3207  -42.0891   -4.5141 C   0  0  0  0  0  0  0  0  0  0  0  0
  -19.2335  -41.6153   -5.8530 C   0  0  0  0  0  0  0  0  0  0  0  0
  -20.1430  -42.0880   -6.7759 C   0  0  0  0  0  0  0  0  0  0  0  0
  -18.1206  -40.6530   -5.9535 C   0  0  0  0  0  0  0  0  0  0  0  0
  -17.0201  -40.9619   -5.2692 O   0  0  0  0  0  0  0  0  0  0  0  0
  -17.8990  -39.4436   -6.6039 N   0  0  0  0  0  0  0  0  0  0  0  0
  -20.3078  -43.4303   -2.7554 O   0  0  0  0  0  0  0  0  0  0  0  0
  -21.5344  -43.5361   -2.0905 C   0  0  0  0  0  0  0  0  0  0  0  0
  -21.4495  -43.8536   -0.6309 C   0  0  0  0  0  0  0  0  0  0  0  0
  1  2  1  0
  2  3  1  0
  3  4  1  0
  4  5  1  0
  5  6  1  0
  6  7  2  0
  6  8  1  0
  8  9  1  1
  8 10  1  0
 10 11  1  0
 11 12  1  1
 11 13  1  0
 13 14  1  1
 14 15  1  0
 15 16  1  1
 15 17  1  0
 17 18  1  0
 18 19  1  0
 19 20  1  0
 20 21  1  0
 21 22  1  0
 22 23  1  0
 23 24  1  0
 22 25  1  0
 25 26  2  0
 25 27  1  0
 27 28  2  0
 28 29  1  0
 29 30  2  0
 30 31  1  0
 31 32  2  0
 31 33  1  0
 33 34  2  0
 33 35  1  0
 29 36  1  0
 36 37  1  0
 37 38  1  0
 32 27  1  0
 35 13  1  0
M  END
$$$$
