
     RDKit          3D

 38 39  0  0  0  0  0  0  0  0999 V2000
  -11.7148  -36.8908  -14.7047 C   0  0  0  0  0  0  0  0  0  0  0  0
  -12.1876  -36.5020  -13.3215 C   0  0  0  0  0  0  0  0  0  0  0  0
  -11.9299  -37.6409  -12.3283 C   0  0  0  0  0  0  0  0  0  0  0  0
  -13.2760  -38.2185  -11.9906 C   0  0  0  0  0  0  0  0  0  0  0  0
  -13.2349  -39.2996  -11.0587 N   0  0  0  0  0  0  0  0  0  0  0  0
  -14.3688  -39.8997  -10.4587 C   0  0  0  0  0  0  0  0  0  0  0  0
  -15.3430  -40.1837  -11.1917 O   0  0  0  0  0  0  0  0  0  0  0  0
  -14.4542  -40.2052   -9.0125 C   0  0  2  0  0  0  0  0  0  0  0  0
  -13.7421  -41.4822   -8.7384 C   0  0  0  0  0  0  0  0  0  0  0  0
  -15.9435  -40.2773   -8.6467 C   0  0  0  0  0  0  0  0  0  0  0  0
  -16.5356  -38.9199   -8.5396 C   0  0  2  0  0  0  0  0  0  0  0  0
  -15.7336  -37.9929   -7.8864 O   0  0  0  0  0  0  0  0  0  0  0  0
  -17.8771  -38.9170   -7.7787 C   0  0  2  0  0  0  0  0  0  0  0  0
  -18.3694  -37.5273   -7.8228 C   0  0  0  0  0  0  0  0  0  0  0  0
  -19.7740  -37.2055   -7.5905 C   0  0  2  0  0  0  0  0  0  0  0  0
  -20.4527  -37.9204   -6.4400 C   0  0  0  0  0  0  0  0  0  0  0  0
  -20.6903  -37.1493   -8.7863 C   0  0  0  0  0  0  0  0  0  0  0  0
  -21.1882  -38.4076   -9.3514 C   0  0  0  0  0  0  0  0  0  0  0  0
  -22.6621  -38.6844   -9.0153 C   0  0  0  0  0  0  0  0  0  0  0  0
  -23.0221  -40.1170   -9.3603 C   0  0  0  0  0  0  0  0  0  0  0  0
  -23.4853  -40.8847   -8.1799 C   0  0  0  0  0  0  0  0  0  0  0  0
  -23.2239  -42.3081   -8.2481 N   0  0  0  0  0  0  0  0  0  0  0  0
  -23.8847  -43.0253   -9.3259 C   0  0  0  0  0  0  0  0  0  0  0  0
  -25.2903  -43.4030   -9.0422 C   0  0  0  0  0  0  0  0  0  0  0  0
  -22.3842  -42.9885   -7.3457 C   0  0  0  0  0  0  0  0  0  0  0  0
  -22.7525  -44.2405   -7.2183 O   0  0  0  0  0  0  0  0  0  0  0  0
  -21.2170  -42.5508   -6.5527 C   0  0  0  0  0  0  0  0  0  0  0  0
  -21.3142  -43.1068   -5.2509 C   0  0  0  0  0  0  0  0  0  0  0  0
  -20.3921  -42.8788   -4.2591 C   0  0  0  0  0  0  0  0  0  0  0  0
  -19.3582  -42.0670   -4.6189 C   0  0  0  0  0  0  0  0  0  0  0  0
  -19.1983  -41.4762   -5.9034 C   0  0  0  0  0  0  0  0  0  0  0  0
  -20.1500  -41.7360   -6.8674 C   0  0  0  0  0  0  0  0  0  0  0  0
  -17.9727  -40.6560   -5.9088 C   0  0  0  0  0  0  0  0  0  0  0  0
  -16.9269  -41.1676   -5.2614 O   0  0  0  0  0  0  0  0  0  0  0  0
  -17.5948  -39.4249   -6.4346 N   0  0  0  0  0  0  0  0  0  0  0  0
  -20.5239  -43.4431   -3.0022 O   0  0  0  0  0  0  0  0  0  0  0  0
  -21.6796  -43.2379   -2.2404 C   0  0  0  0  0  0  0  0  0  0  0  0
  -21.7934  -44.0756   -1.0060 C   0  0  0  0  0  0  0  0  0  0  0  0
  1  2  1  0
  2  3  1  0
  3  4  1  0
  4  5  1  0
  5  6  1  0
  6  7  2  0
  6  8  1  0
  8  9  1  6
  8 10  1  0
 10 11  1  0
 11 12  1  1
 11 13  1  0
 13 14  1  1
 14 15  1  0
 15 16  1  1
 15 17  1  0
 17 18  1  0
 18 19  1  0
 19 20  1  0
 20 21  1  0
 21 22  1  0
 22 23  1  0
 23 24  1  0
 22 25  1  0
 25 26  2  0
 25 27  1  0
 27 28  2  0
 28 29  1  0
 29 30  2  0
 30 31  1  0
 31 32  2  0
 31 33  1  0
 33 34  2  0
 33 35  1  0
 29 36  1  0
 36 37  1  0
 37 38  1  0
 32 27  1  0
 35 13  1  0
M  END
$$$$
