
     RDKit          3D

 38 39  0  0  0  0  0  0  0  0999 V2000
  -15.1373  -36.0877  -13.0714 C   0  0  0  0  0  0  0  0  0  0  0  0
  -15.4626  -36.7651  -11.7587 C   0  0  0  0  0  0  0  0  0  0  0  0
  -15.2762  -38.2819  -11.8788 C   0  0  0  0  0  0  0  0  0  0  0  0
  -13.9592  -38.5978  -11.2266 C   0  0  0  0  0  0  0  0  0  0  0  0
  -13.9270  -39.8513  -10.5436 N   0  0  0  0  0  0  0  0  0  0  0  0
  -14.7488  -40.1996   -9.4439 C   0  0  0  0  0  0  0  0  0  0  0  0
  -15.9856  -40.2592   -9.6274 O   0  0  0  0  0  0  0  0  0  0  0  0
  -14.2151  -40.4951   -8.0948 C   0  0  2  0  0  0  0  0  0  0  0  0
  -13.7097  -41.8938   -8.0633 C   0  0  0  0  0  0  0  0  0  0  0  0
  -15.3532  -40.2630   -7.0909 C   0  0  0  0  0  0  0  0  0  0  0  0
  -16.3074  -39.2403   -7.5892 C   0  0  2  0  0  0  0  0  0  0  0  0
  -16.0362  -37.9459   -7.1647 O   0  0  0  0  0  0  0  0  0  0  0  0
  -17.7598  -39.5235   -7.1547 C   0  0  2  0  0  0  0  0  0  0  0  0
  -18.3366  -38.2187   -6.7802 C   0  0  0  0  0  0  0  0  0  0  0  0
  -19.7799  -38.0084   -6.7221 C   0  0  2  0  0  0  0  0  0  0  0  0
  -20.5992  -39.1025   -6.0684 C   0  0  0  0  0  0  0  0  0  0  0  0
  -20.4692  -37.5101   -7.9667 C   0  0  0  0  0  0  0  0  0  0  0  0
  -20.7648  -38.4661   -9.0386 C   0  0  0  0  0  0  0  0  0  0  0  0
  -22.2507  -38.8500   -9.1189 C   0  0  0  0  0  0  0  0  0  0  0  0
  -22.4375  -40.0499  -10.0278 C   0  0  0  0  0  0  0  0  0  0  0  0
  -23.0469  -41.2038   -9.3247 C   0  0  0  0  0  0  0  0  0  0  0  0
  -22.6741  -42.4982   -9.8583 N   0  0  0  0  0  0  0  0  0  0  0  0
  -23.0774  -42.7609  -11.2298 C   0  0  0  0  0  0  0  0  0  0  0  0
  -22.0014  -42.5765  -12.2334 C   0  0  0  0  0  0  0  0  0  0  0  0
  -21.9619  -43.4659   -9.1245 C   0  0  0  0  0  0  0  0  0  0  0  0
  -22.2544  -44.6750   -9.5390 O   0  0  0  0  0  0  0  0  0  0  0  0
  -20.9903  -43.3554   -8.0169 C   0  0  0  0  0  0  0  0  0  0  0  0
  -21.2777  -44.3580   -7.0550 C   0  0  0  0  0  0  0  0  0  0  0  0
  -20.5670  -44.5166   -5.8906 C   0  0  0  0  0  0  0  0  0  0  0  0
  -19.5476  -43.6281   -5.7206 C   0  0  0  0  0  0  0  0  0  0  0  0
  -19.2043  -42.5996   -6.6420 C   0  0  0  0  0  0  0  0  0  0  0  0
  -19.9468  -42.4810   -7.7984 C   0  0  0  0  0  0  0  0  0  0  0  0
  -18.0608  -41.8358   -6.1094 C   0  0  0  0  0  0  0  0  0  0  0  0
  -17.1129  -42.5513   -5.5060 O   0  0  0  0  0  0  0  0  0  0  0  0
  -17.6860  -40.4970   -6.0634 N   0  0  0  0  0  0  0  0  0  0  0  0
  -20.8797  -45.5101   -4.9793 O   0  0  0  0  0  0  0  0  0  0  0  0
  -21.1688  -45.1970   -3.6465 C   0  0  0  0  0  0  0  0  0  0  0  0
  -22.2912  -45.9726   -3.0324 C   0  0  0  0  0  0  0  0  0  0  0  0
  1  2  1  0
  2  3  1  0
  3  4  1  0
  4  5  1  0
  5  6  1  0
  6  7  2  0
  6  8  1  0
  8  9  1  6
  8 10  1  0
 10 11  1  0
 11 12  1  1
 11 13  1  0
 13 14  1  1
 14 15  1  0
 15 16  1  6
 15 17  1  0
 17 18  1  0
 18 19  1  0
 19 20  1  0
 20 21  1  0
 21 22  1  0
 22 23  1  0
 23 24  1  0
 22 25  1  0
 25 26  2  0
 25 27  1  0
 27 28  2  0
 28 29  1  0
 29 30  2  0
 30 31  1  0
 31 32  2  0
 31 33  1  0
 33 34  2  0
 33 35  1  0
 29 36  1  0
 36 37  1  0
 37 38  1  0
 32 27  1  0
 35 13  1  0
M  END
$$$$
