
     RDKit          3D

 38 39  0  0  0  0  0  0  0  0999 V2000
  -13.6502  -35.3760  -13.9245 C   0  0  0  0  0  0  0  0  0  0  0  0
  -12.6029  -35.7639  -12.9045 C   0  0  0  0  0  0  0  0  0  0  0  0
  -12.8870  -37.1655  -12.3525 C   0  0  0  0  0  0  0  0  0  0  0  0
  -13.8883  -36.9878  -11.2456 C   0  0  0  0  0  0  0  0  0  0  0  0
  -13.7013  -37.8677  -10.1367 N   0  0  0  0  0  0  0  0  0  0  0  0
  -13.9767  -39.2569  -10.1453 C   0  0  0  0  0  0  0  0  0  0  0  0
  -14.1720  -39.8126  -11.2499 O   0  0  0  0  0  0  0  0  0  0  0  0
  -14.0436  -40.0775   -8.9148 C   0  0  2  0  0  0  0  0  0  0  0  0
  -13.0940  -41.2164   -9.0330 C   0  0  0  0  0  0  0  0  0  0  0  0
  -15.4974  -40.5441   -8.7537 C   0  0  0  0  0  0  0  0  0  0  0  0
  -16.3890  -39.4095   -8.4037 C   0  0  2  0  0  0  0  0  0  0  0  0
  -15.7978  -38.4393   -7.6046 O   0  0  0  0  0  0  0  0  0  0  0  0
  -17.6517  -39.8613   -7.6422 C   0  0  2  0  0  0  0  0  0  0  0  0
  -18.1623  -38.6632   -6.9498 C   0  0  0  0  0  0  0  0  0  0  0  0
  -19.5422  -38.5804   -6.4809 C   0  0  2  0  0  0  0  0  0  0  0  0
  -20.0996  -39.8091   -5.7917 C   0  0  0  0  0  0  0  0  0  0  0  0
  -20.5688  -37.9924   -7.4152 C   0  0  0  0  0  0  0  0  0  0  0  0
  -21.1035  -38.8320   -8.4921 C   0  0  0  0  0  0  0  0  0  0  0  0
  -22.5352  -39.3235   -8.2267 C   0  0  0  0  0  0  0  0  0  0  0  0
  -22.9095  -40.4151   -9.2110 C   0  0  0  0  0  0  0  0  0  0  0  0
  -23.2490  -41.6919   -8.5389 C   0  0  0  0  0  0  0  0  0  0  0  0
  -22.9784  -42.8770   -9.3274 N   0  0  0  0  0  0  0  0  0  0  0  0
  -23.7305  -43.0030  -10.5647 C   0  0  0  0  0  0  0  0  0  0  0  0
  -22.9605  -42.6742  -11.7887 C   0  0  0  0  0  0  0  0  0  0  0  0
  -22.0486  -43.8652   -8.9517 C   0  0  0  0  0  0  0  0  0  0  0  0
  -22.3882  -45.0348   -9.4376 O   0  0  0  0  0  0  0  0  0  0  0  0
  -20.8163  -43.8111   -8.1384 C   0  0  0  0  0  0  0  0  0  0  0  0
  -20.7824  -44.9434   -7.2841 C   0  0  0  0  0  0  0  0  0  0  0  0
  -19.7727  -45.1837   -6.3848 C   0  0  0  0  0  0  0  0  0  0  0  0
  -18.7875  -44.2422   -6.3702 C   0  0  0  0  0  0  0  0  0  0  0  0
  -18.7577  -43.0846   -7.1972 C   0  0  0  0  0  0  0  0  0  0  0  0
  -19.7939  -42.8874   -8.0860 C   0  0  0  0  0  0  0  0  0  0  0  0
  -17.5481  -42.3002   -6.8871 C   0  0  0  0  0  0  0  0  0  0  0  0
  -16.4393  -43.0039   -6.6634 O   0  0  0  0  0  0  0  0  0  0  0  0
  -17.2365  -40.9509   -6.7565 N   0  0  0  0  0  0  0  0  0  0  0  0
  -19.7774  -46.3030   -5.5706 O   0  0  0  0  0  0  0  0  0  0  0  0
  -19.2899  -47.5301   -6.0338 C   0  0  0  0  0  0  0  0  0  0  0  0
  -19.0558  -48.5676   -4.9816 C   0  0  0  0  0  0  0  0  0  0  0  0
  1  2  1  0
  2  3  1  0
  3  4  1  0
  4  5  1  0
  5  6  1  0
  6  7  2  0
  6  8  1  0
  8  9  1  6
  8 10  1  0
 10 11  1  0
 11 12  1  1
 11 13  1  0
 13 14  1  1
 14 15  1  0
 15 16  1  6
 15 17  1  0
 17 18  1  0
 18 19  1  0
 19 20  1  0
 20 21  1  0
 21 22  1  0
 22 23  1  0
 23 24  1  0
 22 25  1  0
 25 26  2  0
 25 27  1  0
 27 28  2  0
 28 29  1  0
 29 30  2  0
 30 31  1  0
 31 32  2  0
 31 33  1  0
 33 34  2  0
 33 35  1  0
 29 36  1  0
 36 37  1  0
 37 38  1  0
 32 27  1  0
 35 13  1  0
M  END
$$$$
