
     RDKit          3D

 39 42  0  0  0  0  0  0  0  0999 V2000
  -11.1323  -34.5038  -10.9582 C   0  0  0  0  0  0  0  0  0  0  0  0
  -11.9309  -35.0114  -12.1314 C   0  0  0  0  0  0  0  0  0  0  0  0
  -13.0666  -34.0214  -12.4341 C   0  0  0  0  0  0  0  0  0  0  0  0
  -12.5470  -36.3235  -11.8841 C   0  0  0  0  0  0  0  0  0  0  0  0
  -13.8508  -36.4385  -11.3879 C   0  0  0  0  0  0  0  0  0  0  0  0
  -14.4196  -37.6697  -11.1633 C   0  0  0  0  0  0  0  0  0  0  0  0
  -13.7058  -38.7937  -11.4268 C   0  0  0  0  0  0  0  0  0  0  0  0
  -12.3961  -38.7018  -11.9251 C   0  0  0  0  0  0  0  0  0  0  0  0
  -11.8419  -37.4642  -12.1441 C   0  0  0  0  0  0  0  0  0  0  0  0
  -15.8530  -37.7016  -10.6113 C   0  0  0  0  0  0  0  0  0  0  0  0
  -16.5827  -38.7099  -11.4651 C   0  0  0  0  0  0  0  0  0  0  0  0
  -16.3700  -36.3218  -10.8887 C   0  0  0  0  0  0  0  0  0  0  0  0
  -15.7251  -37.9992   -9.2722 N   0  0  0  0  0  0  0  0  0  0  0  0
  -16.4596  -37.4695   -8.2162 C   0  0  0  0  0  0  0  0  0  0  0  0
  -16.7131  -38.3833   -7.1118 C   0  0  1  0  0  0  0  0  0  0  0  0
  -16.6738  -37.8337   -5.8506 O   0  0  0  0  0  0  0  0  0  0  0  0
  -17.9309  -39.2812   -7.2217 C   0  0  2  0  0  0  0  0  0  0  0  0
  -18.3885  -39.8336   -5.8887 C   0  0  0  0  0  0  0  0  0  0  0  0
  -19.8695  -39.9223   -5.8419 C   0  0  0  0  0  0  0  0  0  0  0  0
  -20.7606  -40.9416   -5.7153 C   0  0  0  0  0  0  0  0  0  0  0  0
  -22.1176  -40.6458   -5.7252 C   0  0  0  0  0  0  0  0  0  0  0  0
  -22.5472  -39.3136   -5.8642 C   0  0  0  0  0  0  0  0  0  0  0  0
  -21.6782  -38.2496   -5.9946 C   0  0  0  0  0  0  0  0  0  0  0  0
  -20.3651  -38.5927   -5.9786 C   0  0  0  0  0  0  0  0  0  0  0  0
  -23.2027  -41.4831   -5.6176 O   0  0  0  0  0  0  0  0  0  0  0  0
  -23.7045  -42.5107   -4.9000 C   0  0  0  0  0  0  0  0  0  0  0  0
  -23.2513  -43.8294   -5.5222 C   0  0  0  0  0  0  0  0  0  0  0  0
  -23.8934  -44.1166   -6.8242 C   0  0  0  0  0  0  0  0  0  0  0  0
  -23.0519  -43.8765   -8.0480 C   0  0  0  0  0  0  0  0  0  0  0  0
  -21.7677  -44.5573   -7.9927 N   0  0  0  0  0  0  0  0  0  0  0  0
  -20.4474  -44.0763   -7.7461 C   0  0  0  0  0  0  0  0  0  0  0  0
  -19.7574  -42.9811   -8.2016 C   0  0  0  0  0  0  0  0  0  0  0  0
  -18.4649  -42.7744   -7.7529 C   0  0  0  0  0  0  0  0  0  0  0  0
  -17.9341  -43.7254   -6.8418 C   0  0  0  0  0  0  0  0  0  0  0  0
  -18.5733  -44.7943   -6.3840 N   0  0  0  0  0  0  0  0  0  0  0  0
  -19.8098  -44.9605   -6.8335 C   0  0  0  0  0  0  0  0  0  0  0  0
  -17.4914  -41.7136   -8.0301 C   0  0  0  0  0  0  0  0  0  0  0  0
  -16.2607  -42.1541   -8.2137 O   0  0  0  0  0  0  0  0  0  0  0  0
  -17.5346  -40.3206   -8.1507 N   0  0  0  0  0  0  0  0  0  0  0  0
  1  2  1  0
  2  3  1  0
  2  4  1  0
  4  5  2  0
  5  6  1  0
  6  7  2  0
  7  8  1  0
  8  9  2  0
  6 10  1  0
 10 11  1  0
 10 12  1  0
 10 13  1  0
 13 14  1  0
 14 15  1  0
 15 16  1  1
 15 17  1  0
 17 18  1  1
 18 19  1  0
 19 20  2  0
 20 21  1  0
 21 22  2  0
 22 23  1  0
 23 24  2  0
 21 25  1  0
 25 26  1  0
 26 27  1  0
 27 28  1  0
 28 29  1  0
 29 30  1  0
 30 31  1  0
 31 32  2  0
 32 33  1  0
 33 34  2  0
 34 35  1  0
 35 36  2  0
 33 37  1  0
 37 38  2  0
 37 39  1  0
  9  4  1  0
 24 19  1  0
 36 31  1  0
 39 17  1  0
M  END
$$$$
