
     RDKit          3D

 39 42  0  0  0  0  0  0  0  0999 V2000
  -12.0579  -34.4790  -11.8194 C   0  0  0  0  0  0  0  0  0  0  0  0
  -13.5005  -34.8402  -12.0643 C   0  0  0  0  0  0  0  0  0  0  0  0
  -14.3085  -34.5854  -10.7823 C   0  0  0  0  0  0  0  0  0  0  0  0
  -13.6868  -36.2531  -12.4268 C   0  0  0  0  0  0  0  0  0  0  0  0
  -13.7733  -37.2539  -11.4519 C   0  0  0  0  0  0  0  0  0  0  0  0
  -13.9511  -38.5718  -11.8004 C   0  0  0  0  0  0  0  0  0  0  0  0
  -14.0446  -38.9095  -13.1116 C   0  0  0  0  0  0  0  0  0  0  0  0
  -13.9606  -37.9218  -14.1063 C   0  0  0  0  0  0  0  0  0  0  0  0
  -13.7827  -36.6095  -13.7419 C   0  0  0  0  0  0  0  0  0  0  0  0
  -14.0286  -39.6040  -10.6651 C   0  0  0  0  0  0  0  0  0  0  0  0
  -12.8623  -39.2857   -9.7615 C   0  0  0  0  0  0  0  0  0  0  0  0
  -13.7993  -40.9126  -11.3602 C   0  0  0  0  0  0  0  0  0  0  0  0
  -15.2883  -39.4634  -10.1253 N   0  0  0  0  0  0  0  0  0  0  0  0
  -15.8406  -38.3193   -9.5585 C   0  0  0  0  0  0  0  0  0  0  0  0
  -16.4282  -38.4977   -8.2388 C   0  0  1  0  0  0  0  0  0  0  0  0
  -16.5908  -37.3548   -7.4893 O   0  0  0  0  0  0  0  0  0  0  0  0
  -17.6933  -39.3303   -8.1509 C   0  0  2  0  0  0  0  0  0  0  0  0
  -18.1533  -39.5705   -6.7288 C   0  0  0  0  0  0  0  0  0  0  0  0
  -19.6357  -39.5656   -6.6526 C   0  0  0  0  0  0  0  0  0  0  0  0
  -20.5764  -40.4862   -6.3110 C   0  0  0  0  0  0  0  0  0  0  0  0
  -21.9160  -40.1242   -6.3706 C   0  0  0  0  0  0  0  0  0  0  0  0
  -22.2777  -38.8273   -6.7782 C   0  0  0  0  0  0  0  0  0  0  0  0
  -21.3568  -37.8627   -7.1326 C   0  0  0  0  0  0  0  0  0  0  0  0
  -20.0635  -38.2673   -7.0569 C   0  0  0  0  0  0  0  0  0  0  0  0
  -23.0412  -40.8601   -6.0836 O   0  0  0  0  0  0  0  0  0  0  0  0
  -23.5821  -41.6887   -5.1653 C   0  0  0  0  0  0  0  0  0  0  0  0
  -23.2108  -43.1303   -5.5054 C   0  0  0  0  0  0  0  0  0  0  0  0
  -23.8922  -43.6431   -6.7147 C   0  0  0  0  0  0  0  0  0  0  0  0
  -23.0632  -43.7070   -7.9686 C   0  0  0  0  0  0  0  0  0  0  0  0
  -21.8156  -44.4317   -7.7844 N   0  0  0  0  0  0  0  0  0  0  0  0
  -20.4674  -43.9841   -7.6533 C   0  0  0  0  0  0  0  0  0  0  0  0
  -19.7298  -43.0458   -8.3307 C   0  0  0  0  0  0  0  0  0  0  0  0
  -18.4199  -42.8231   -7.9450 C   0  0  0  0  0  0  0  0  0  0  0  0
  -17.9220  -43.5941   -6.8615 C   0  0  0  0  0  0  0  0  0  0  0  0
  -18.6074  -44.5090   -6.1876 N   0  0  0  0  0  0  0  0  0  0  0  0
  -19.8595  -44.6955   -6.5830 C   0  0  0  0  0  0  0  0  0  0  0  0
  -17.3977  -41.8975   -8.4432 C   0  0  0  0  0  0  0  0  0  0  0  0
  -16.1956  -42.4337   -8.5419 O   0  0  0  0  0  0  0  0  0  0  0  0
  -17.3701  -40.5588   -8.8485 N   0  0  0  0  0  0  0  0  0  0  0  0
  1  2  1  0
  2  3  1  0
  2  4  1  0
  4  5  2  0
  5  6  1  0
  6  7  2  0
  7  8  1  0
  8  9  2  0
  6 10  1  0
 10 11  1  0
 10 12  1  0
 10 13  1  0
 13 14  1  0
 14 15  1  0
 15 16  1  6
 15 17  1  0
 17 18  1  1
 18 19  1  0
 19 20  2  0
 20 21  1  0
 21 22  2  0
 22 23  1  0
 23 24  2  0
 21 25  1  0
 25 26  1  0
 26 27  1  0
 27 28  1  0
 28 29  1  0
 29 30  1  0
 30 31  1  0
 31 32  2  0
 32 33  1  0
 33 34  2  0
 34 35  1  0
 35 36  2  0
 33 37  1  0
 37 38  2  0
 37 39  1  0
  9  4  1  0
 24 19  1  0
 36 31  1  0
 39 17  1  0
M  END
$$$$
