
     RDKit          3D

 39 42  0  0  0  0  0  0  0  0999 V2000
  -23.5721  -42.4100   -6.2195 C   0  0  0  0  0  0  0  0  0  0  0  0
  -23.7287  -41.0278   -5.6392 C   0  0  0  0  0  0  0  0  0  0  0  0
  -24.6712  -40.2089   -6.5352 C   0  0  0  0  0  0  0  0  0  0  0  0
  -22.4581  -40.2928   -5.5514 C   0  0  0  0  0  0  0  0  0  0  0  0
  -21.9118  -39.6394   -6.6624 C   0  0  0  0  0  0  0  0  0  0  0  0
  -20.7251  -38.9518   -6.5696 C   0  0  0  0  0  0  0  0  0  0  0  0
  -20.0711  -38.9047   -5.3812 C   0  0  0  0  0  0  0  0  0  0  0  0
  -20.6010  -39.5529   -4.2538 C   0  0  0  0  0  0  0  0  0  0  0  0
  -21.7877  -40.2360   -4.3627 C   0  0  0  0  0  0  0  0  0  0  0  0
  -20.1963  -38.2701   -7.8408 C   0  0  0  0  0  0  0  0  0  0  0  0
  -21.3132  -37.3629   -8.2965 C   0  0  0  0  0  0  0  0  0  0  0  0
  -20.0275  -39.4043   -8.8067 C   0  0  0  0  0  0  0  0  0  0  0  0
  -19.0165  -37.6632   -7.4693 N   0  0  0  0  0  0  0  0  0  0  0  0
  -17.7490  -38.2351   -7.4307 C   0  0  0  0  0  0  0  0  0  0  0  0
  -17.3819  -39.0188   -8.6011 C   0  0  1  0  0  0  0  0  0  0  0  0
  -16.3631  -38.5105   -9.3744 O   0  0  0  0  0  0  0  0  0  0  0  0
  -17.1521  -40.5042   -8.3955 C   0  0  2  0  0  0  0  0  0  0  0  0
  -17.1276  -41.2900   -9.6892 C   0  0  0  0  0  0  0  0  0  0  0  0
  -16.1339  -42.3900   -9.6122 C   0  0  0  0  0  0  0  0  0  0  0  0
  -16.2061  -43.7466   -9.6705 C   0  0  0  0  0  0  0  0  0  0  0  0
  -15.0349  -44.4825   -9.5450 C   0  0  0  0  0  0  0  0  0  0  0  0
  -13.8055  -43.8240   -9.3615 C   0  0  0  0  0  0  0  0  0  0  0  0
  -13.6865  -42.4507   -9.2972 C   0  0  0  0  0  0  0  0  0  0  0  0
  -14.8592  -41.7796   -9.4255 C   0  0  0  0  0  0  0  0  0  0  0  0
  -14.8430  -45.8437   -9.5668 O   0  0  0  0  0  0  0  0  0  0  0  0
  -15.1596  -46.9662  -10.2466 C   0  0  0  0  0  0  0  0  0  0  0  0
  -16.4455  -47.5575   -9.6735 C   0  0  0  0  0  0  0  0  0  0  0  0
  -16.2741  -48.1406   -8.3243 C   0  0  0  0  0  0  0  0  0  0  0  0
  -16.7832  -47.3157   -7.1737 C   0  0  0  0  0  0  0  0  0  0  0  0
  -18.1693  -46.9077   -7.3411 N   0  0  0  0  0  0  0  0  0  0  0  0
  -18.7552  -45.6558   -7.6942 C   0  0  0  0  0  0  0  0  0  0  0  0
  -18.5081  -44.3677   -7.2909 C   0  0  0  0  0  0  0  0  0  0  0  0
  -19.2532  -43.3419   -7.8449 C   0  0  0  0  0  0  0  0  0  0  0  0
  -20.2377  -43.6991   -8.8037 C   0  0  0  0  0  0  0  0  0  0  0  0
  -20.5024  -44.9331   -9.2135 N   0  0  0  0  0  0  0  0  0  0  0  0
  -19.7687  -45.8910   -8.6630 C   0  0  0  0  0  0  0  0  0  0  0  0
  -19.2202  -41.8899   -7.6432 C   0  0  0  0  0  0  0  0  0  0  0  0
  -20.4154  -41.3351   -7.5664 O   0  0  0  0  0  0  0  0  0  0  0  0
  -18.2217  -40.9192   -7.5100 N   0  0  0  0  0  0  0  0  0  0  0  0
  1  2  1  0
  2  3  1  0
  2  4  1  0
  4  5  2  0
  5  6  1  0
  6  7  2  0
  7  8  1  0
  8  9  2  0
  6 10  1  0
 10 11  1  0
 10 12  1  0
 10 13  1  0
 13 14  1  0
 14 15  1  0
 15 16  1  1
 15 17  1  0
 17 18  1  6
 18 19  1  0
 19 20  2  0
 20 21  1  0
 21 22  2  0
 22 23  1  0
 23 24  2  0
 21 25  1  0
 25 26  1  0
 26 27  1  0
 27 28  1  0
 28 29  1  0
 29 30  1  0
 30 31  1  0
 31 32  2  0
 32 33  1  0
 33 34  2  0
 34 35  1  0
 35 36  2  0
 33 37  1  0
 37 38  2  0
 37 39  1  0
  9  4  1  0
 24 19  1  0
 36 31  1  0
 39 17  1  0
M  END
$$$$
