
     RDKit          3D

 39 42  0  0  0  0  0  0  0  0999 V2000
  -11.7881  -36.2215  -13.0831 C   0  0  0  0  0  0  0  0  0  0  0  0
  -11.8564  -37.6924  -12.7616 C   0  0  0  0  0  0  0  0  0  0  0  0
  -11.0530  -38.4756  -13.8117 C   0  0  0  0  0  0  0  0  0  0  0  0
  -13.2283  -38.2215  -12.7746 C   0  0  0  0  0  0  0  0  0  0  0  0
  -14.2759  -37.5564  -12.1268 C   0  0  0  0  0  0  0  0  0  0  0  0
  -15.5560  -38.0571  -12.1475 C   0  0  0  0  0  0  0  0  0  0  0  0
  -15.8098  -39.2159  -12.8071 C   0  0  0  0  0  0  0  0  0  0  0  0
  -14.7739  -39.8998  -13.4639 C   0  0  0  0  0  0  0  0  0  0  0  0
  -13.5002  -39.3866  -13.4338 C   0  0  0  0  0  0  0  0  0  0  0  0
  -16.6424  -37.2647  -11.4043 C   0  0  0  0  0  0  0  0  0  0  0  0
  -17.7526  -37.0780  -12.4097 C   0  0  0  0  0  0  0  0  0  0  0  0
  -15.9845  -35.9493  -11.1134 C   0  0  0  0  0  0  0  0  0  0  0  0
  -16.9389  -38.0091  -10.2835 N   0  0  0  0  0  0  0  0  0  0  0  0
  -16.0410  -38.6250   -9.4177 C   0  0  0  0  0  0  0  0  0  0  0  0
  -16.5347  -38.8580   -8.0684 C   0  0  1  0  0  0  0  0  0  0  0  0
  -16.5815  -37.7577   -7.2428 O   0  0  0  0  0  0  0  0  0  0  0  0
  -17.8302  -39.6351   -7.9297 C   0  0  2  0  0  0  0  0  0  0  0  0
  -18.2890  -39.7811   -6.4945 C   0  0  0  0  0  0  0  0  0  0  0  0
  -19.7695  -39.7147   -6.4113 C   0  0  0  0  0  0  0  0  0  0  0  0
  -20.7425  -40.5787   -6.0161 C   0  0  0  0  0  0  0  0  0  0  0  0
  -22.0675  -40.1687   -6.0883 C   0  0  0  0  0  0  0  0  0  0  0  0
  -22.3821  -38.8825   -6.5631 C   0  0  0  0  0  0  0  0  0  0  0  0
  -21.4273  -37.9745   -6.9733 C   0  0  0  0  0  0  0  0  0  0  0  0
  -20.1500  -38.4242   -6.8825 C   0  0  0  0  0  0  0  0  0  0  0  0
  -23.2181  -40.8442   -5.7566 O   0  0  0  0  0  0  0  0  0  0  0  0
  -23.7840  -41.6010   -4.7925 C   0  0  0  0  0  0  0  0  0  0  0  0
  -23.4707  -43.0719   -5.0567 C   0  0  0  0  0  0  0  0  0  0  0  0
  -24.1799  -43.6219   -6.2334 C   0  0  0  0  0  0  0  0  0  0  0  0
  -23.3628  -43.7846   -7.4861 C   0  0  0  0  0  0  0  0  0  0  0  0
  -22.1426  -44.5462   -7.2696 N   0  0  0  0  0  0  0  0  0  0  0  0
  -20.7773  -44.1448   -7.1694 C   0  0  0  0  0  0  0  0  0  0  0  0
  -20.0091  -43.2733   -7.8998 C   0  0  0  0  0  0  0  0  0  0  0  0
  -18.6889  -43.0812   -7.5332 C   0  0  0  0  0  0  0  0  0  0  0  0
  -18.2134  -43.8119   -6.4124 C   0  0  0  0  0  0  0  0  0  0  0  0
  -18.9286  -44.6623   -5.6870 N   0  0  0  0  0  0  0  0  0  0  0  0
  -20.1896  -44.8210   -6.0656 C   0  0  0  0  0  0  0  0  0  0  0  0
  -17.6354  -42.2238   -8.0854 C   0  0  0  0  0  0  0  0  0  0  0  0
  -16.4555  -42.8106   -8.1612 O   0  0  0  0  0  0  0  0  0  0  0  0
  -17.5593  -40.9107   -8.5620 N   0  0  0  0  0  0  0  0  0  0  0  0
  1  2  1  0
  2  3  1  0
  2  4  1  0
  4  5  2  0
  5  6  1  0
  6  7  2  0
  7  8  1  0
  8  9  2  0
  6 10  1  0
 10 11  1  0
 10 12  1  0
 10 13  1  0
 13 14  1  0
 14 15  1  0
 15 16  1  6
 15 17  1  0
 17 18  1  1
 18 19  1  0
 19 20  2  0
 20 21  1  0
 21 22  2  0
 22 23  1  0
 23 24  2  0
 21 25  1  0
 25 26  1  0
 26 27  1  0
 27 28  1  0
 28 29  1  0
 29 30  1  0
 30 31  1  0
 31 32  2  0
 32 33  1  0
 33 34  2  0
 34 35  1  0
 35 36  2  0
 33 37  1  0
 37 38  2  0
 37 39  1  0
  9  4  1  0
 24 19  1  0
 36 31  1  0
 39 17  1  0
M  END
$$$$
