
     RDKit          3D

 39 42  0  0  0  0  0  0  0  0999 V2000
  -22.1650  -38.4713   -3.8397 C   0  0  0  0  0  0  0  0  0  0  0  0
  -23.1833  -38.8268   -4.8926 C   0  0  0  0  0  0  0  0  0  0  0  0
  -23.5482  -40.3136   -4.7589 C   0  0  0  0  0  0  0  0  0  0  0  0
  -22.6922  -38.6170   -6.2627 C   0  0  0  0  0  0  0  0  0  0  0  0
  -21.3980  -38.9917   -6.6421 C   0  0  0  0  0  0  0  0  0  0  0  0
  -20.9491  -38.7948   -7.9265 C   0  0  0  0  0  0  0  0  0  0  0  0
  -21.7739  -38.2276   -8.8431 C   0  0  0  0  0  0  0  0  0  0  0  0
  -23.0762  -37.8440   -8.4842 C   0  0  0  0  0  0  0  0  0  0  0  0
  -23.5098  -38.0473   -7.1968 C   0  0  0  0  0  0  0  0  0  0  0  0
  -19.5124  -39.2304   -8.2530 C   0  0  0  0  0  0  0  0  0  0  0  0
  -19.0493  -38.2852   -9.3348 C   0  0  0  0  0  0  0  0  0  0  0  0
  -19.6796  -40.6112   -8.8126 C   0  0  0  0  0  0  0  0  0  0  0  0
  -18.8327  -39.1837   -7.0555 N   0  0  0  0  0  0  0  0  0  0  0  0
  -17.5385  -38.7227   -6.8372 C   0  0  0  0  0  0  0  0  0  0  0  0
  -16.6179  -38.8956   -7.9514 C   0  0  1  0  0  0  0  0  0  0  0  0
  -15.6328  -37.9426   -8.0760 O   0  0  0  0  0  0  0  0  0  0  0  0
  -16.0017  -40.2699   -8.1334 C   0  0  2  0  0  0  0  0  0  0  0  0
  -15.2882  -40.4344   -9.4584 C   0  0  0  0  0  0  0  0  0  0  0  0
  -14.0788  -41.2799   -9.2978 C   0  0  0  0  0  0  0  0  0  0  0  0
  -13.6822  -42.4817   -9.7951 C   0  0  0  0  0  0  0  0  0  0  0  0
  -12.4507  -42.9913   -9.4042 C   0  0  0  0  0  0  0  0  0  0  0  0
  -11.6404  -42.2675   -8.5107 C   0  0  0  0  0  0  0  0  0  0  0  0
  -12.0032  -41.0453   -7.9828 C   0  0  0  0  0  0  0  0  0  0  0  0
  -13.2140  -40.5928   -8.3966 C   0  0  0  0  0  0  0  0  0  0  0  0
  -11.8314  -44.1670   -9.7570 O   0  0  0  0  0  0  0  0  0  0  0  0
  -11.5170  -44.9446  -10.8148 C   0  0  0  0  0  0  0  0  0  0  0  0
  -12.6544  -45.9303  -11.0723 C   0  0  0  0  0  0  0  0  0  0  0  0
  -12.7688  -46.9798  -10.0353 C   0  0  0  0  0  0  0  0  0  0  0  0
  -13.8750  -46.8042   -9.0306 C   0  0  0  0  0  0  0  0  0  0  0  0
  -15.1756  -46.6075   -9.6514 N   0  0  0  0  0  0  0  0  0  0  0  0
  -15.9808  -45.4421   -9.8212 C   0  0  0  0  0  0  0  0  0  0  0  0
  -16.3171  -44.4141   -8.9767 C   0  0  0  0  0  0  0  0  0  0  0  0
  -17.1218  -43.3953   -9.4552 C   0  0  0  0  0  0  0  0  0  0  0  0
  -17.5519  -43.4875  -10.8053 C   0  0  0  0  0  0  0  0  0  0  0  0
  -17.2465  -44.4674  -11.6463 N   0  0  0  0  0  0  0  0  0  0  0  0
  -16.4729  -45.4259  -11.1548 C   0  0  0  0  0  0  0  0  0  0  0  0
  -17.6325  -42.1742   -8.8244 C   0  0  0  0  0  0  0  0  0  0  0  0
  -18.8946  -41.9142   -9.1102 O   0  0  0  0  0  0  0  0  0  0  0  0
  -17.1106  -41.1899   -7.9783 N   0  0  0  0  0  0  0  0  0  0  0  0
  1  2  1  0
  2  3  1  0
  2  4  1  0
  4  5  2  0
  5  6  1  0
  6  7  2  0
  7  8  1  0
  8  9  2  0
  6 10  1  0
 10 11  1  0
 10 12  1  0
 10 13  1  0
 13 14  1  0
 14 15  1  0
 15 16  1  1
 15 17  1  0
 17 18  1  6
 18 19  1  0
 19 20  2  0
 20 21  1  0
 21 22  2  0
 22 23  1  0
 23 24  2  0
 21 25  1  0
 25 26  1  0
 26 27  1  0
 27 28  1  0
 28 29  1  0
 29 30  1  0
 30 31  1  0
 31 32  2  0
 32 33  1  0
 33 34  2  0
 34 35  1  0
 35 36  2  0
 33 37  1  0
 37 38  2  0
 37 39  1  0
  9  4  1  0
 24 19  1  0
 36 31  1  0
 39 17  1  0
M  END
$$$$
