
     RDKit          3D

 39 42  0  0  0  0  0  0  0  0999 V2000
  -13.5027  -34.0049  -11.0434 C   0  0  0  0  0  0  0  0  0  0  0  0
  -14.7292  -34.2645  -11.8801 C   0  0  0  0  0  0  0  0  0  0  0  0
  -15.9750  -33.8133  -11.1017 C   0  0  0  0  0  0  0  0  0  0  0  0
  -14.9099  -35.6857  -12.2116 C   0  0  0  0  0  0  0  0  0  0  0  0
  -14.4698  -36.6997  -11.3528 C   0  0  0  0  0  0  0  0  0  0  0  0
  -14.6464  -38.0256  -11.6697 C   0  0  0  0  0  0  0  0  0  0  0  0
  -15.2579  -38.3585  -12.8348 C   0  0  0  0  0  0  0  0  0  0  0  0
  -15.7074  -37.3576  -13.7113 C   0  0  0  0  0  0  0  0  0  0  0  0
  -15.5233  -36.0373  -13.3803 C   0  0  0  0  0  0  0  0  0  0  0  0
  -14.1263  -39.0714  -10.6717 C   0  0  0  0  0  0  0  0  0  0  0  0
  -12.6342  -38.8520  -10.6111 C   0  0  0  0  0  0  0  0  0  0  0  0
  -14.4278  -40.3792  -11.3400 C   0  0  0  0  0  0  0  0  0  0  0  0
  -14.8332  -38.8540   -9.5092 N   0  0  0  0  0  0  0  0  0  0  0  0
  -14.7167  -39.5471   -8.3087 C   0  0  0  0  0  0  0  0  0  0  0  0
  -15.7556  -39.2734   -7.3266 C   0  0  1  0  0  0  0  0  0  0  0  0
  -15.9726  -37.9472   -7.0289 O   0  0  0  0  0  0  0  0  0  0  0  0
  -17.0936  -39.9606   -7.5242 C   0  0  2  0  0  0  0  0  0  0  0  0
  -17.8485  -40.1823   -6.2309 C   0  0  0  0  0  0  0  0  0  0  0  0
  -19.3078  -40.0129   -6.4436 C   0  0  0  0  0  0  0  0  0  0  0  0
  -20.3890  -40.8302   -6.3337 C   0  0  0  0  0  0  0  0  0  0  0  0
  -21.6446  -40.3188   -6.6353 C   0  0  0  0  0  0  0  0  0  0  0  0
  -21.7801  -38.9800   -7.0453 C   0  0  0  0  0  0  0  0  0  0  0  0
  -20.7109  -38.1164   -7.1696 C   0  0  0  0  0  0  0  0  0  0  0  0
  -19.5081  -38.6653   -6.8631 C   0  0  0  0  0  0  0  0  0  0  0  0
  -22.8755  -40.9306   -6.6061 O   0  0  0  0  0  0  0  0  0  0  0  0
  -23.6716  -41.7154   -5.8492 C   0  0  0  0  0  0  0  0  0  0  0  0
  -23.3941  -43.1807   -6.1768 C   0  0  0  0  0  0  0  0  0  0  0  0
  -23.8729  -43.5843   -7.5176 C   0  0  0  0  0  0  0  0  0  0  0  0
  -22.8236  -43.7101   -8.5884 C   0  0  0  0  0  0  0  0  0  0  0  0
  -21.7204  -44.5746   -8.1992 N   0  0  0  0  0  0  0  0  0  0  0  0
  -20.3853  -44.2844   -7.7886 C   0  0  0  0  0  0  0  0  0  0  0  0
  -19.4338  -43.4186   -8.2662 C   0  0  0  0  0  0  0  0  0  0  0  0
  -18.2100  -43.3538   -7.6239 C   0  0  0  0  0  0  0  0  0  0  0  0
  -18.0204  -44.2020   -6.5009 C   0  0  0  0  0  0  0  0  0  0  0  0
  -18.9179  -45.0503   -6.0156 N   0  0  0  0  0  0  0  0  0  0  0  0
  -20.0795  -45.0854   -6.6545 C   0  0  0  0  0  0  0  0  0  0  0  0
  -17.0178  -42.5369   -7.8712 C   0  0  0  0  0  0  0  0  0  0  0  0
  -15.8832  -43.2020   -7.7594 O   0  0  0  0  0  0  0  0  0  0  0  0
  -16.7699  -41.2003   -8.2015 N   0  0  0  0  0  0  0  0  0  0  0  0
  1  2  1  0
  2  3  1  0
  2  4  1  0
  4  5  2  0
  5  6  1  0
  6  7  2  0
  7  8  1  0
  8  9  2  0
  6 10  1  0
 10 11  1  0
 10 12  1  0
 10 13  1  0
 13 14  1  0
 14 15  1  0
 15 16  1  6
 15 17  1  0
 17 18  1  1
 18 19  1  0
 19 20  2  0
 20 21  1  0
 21 22  2  0
 22 23  1  0
 23 24  2  0
 21 25  1  0
 25 26  1  0
 26 27  1  0
 27 28  1  0
 28 29  1  0
 29 30  1  0
 30 31  1  0
 31 32  2  0
 32 33  1  0
 33 34  2  0
 34 35  1  0
 35 36  2  0
 33 37  1  0
 37 38  2  0
 37 39  1  0
  9  4  1  0
 24 19  1  0
 36 31  1  0
 39 17  1  0
M  END
$$$$
