
     RDKit          3D

 39 42  0  0  0  0  0  0  0  0999 V2000
  -10.1698  -36.9959  -10.2455 C   0  0  0  0  0  0  0  0  0  0  0  0
  -10.7582  -37.0438  -11.6323 C   0  0  0  0  0  0  0  0  0  0  0  0
  -11.1860  -35.6274  -12.0474 C   0  0  0  0  0  0  0  0  0  0  0  0
  -11.9462  -37.9055  -11.7243 C   0  0  0  0  0  0  0  0  0  0  0  0
  -13.1962  -37.4818  -11.2578 C   0  0  0  0  0  0  0  0  0  0  0  0
  -14.3019  -38.2932  -11.3514 C   0  0  0  0  0  0  0  0  0  0  0  0
  -14.1809  -39.5264  -11.9053 C   0  0  0  0  0  0  0  0  0  0  0  0
  -12.9365  -39.9719  -12.3798 C   0  0  0  0  0  0  0  0  0  0  0  0
  -11.8411  -39.1493  -12.2789 C   0  0  0  0  0  0  0  0  0  0  0  0
  -15.6320  -37.7492  -10.8081 C   0  0  0  0  0  0  0  0  0  0  0  0
  -16.6965  -38.6307  -11.4146 C   0  0  0  0  0  0  0  0  0  0  0  0
  -15.7138  -36.3693  -11.3887 C   0  0  0  0  0  0  0  0  0  0  0  0
  -15.5089  -37.7794   -9.4362 N   0  0  0  0  0  0  0  0  0  0  0  0
  -15.6689  -38.8784   -8.5985 C   0  0  0  0  0  0  0  0  0  0  0  0
  -16.6249  -38.7034   -7.5149 C   0  0  1  0  0  0  0  0  0  0  0  0
  -16.8776  -37.4050   -7.1346 O   0  0  0  0  0  0  0  0  0  0  0  0
  -17.9405  -39.4508   -7.6249 C   0  0  2  0  0  0  0  0  0  0  0  0
  -18.5429  -39.8017   -6.2812 C   0  0  0  0  0  0  0  0  0  0  0  0
  -20.0230  -39.7018   -6.3313 C   0  0  0  0  0  0  0  0  0  0  0  0
  -21.0447  -40.5848   -6.1718 C   0  0  0  0  0  0  0  0  0  0  0  0
  -22.3490  -40.1265   -6.3060 C   0  0  0  0  0  0  0  0  0  0  0  0
  -22.5931  -38.7731   -6.6014 C   0  0  0  0  0  0  0  0  0  0  0  0
  -21.5873  -37.8436   -6.7706 C   0  0  0  0  0  0  0  0  0  0  0  0
  -20.3330  -38.3425   -6.6289 C   0  0  0  0  0  0  0  0  0  0  0  0
  -23.5380  -40.8080   -6.1964 O   0  0  0  0  0  0  0  0  0  0  0  0
  -24.2099  -41.6860   -5.4217 C   0  0  0  0  0  0  0  0  0  0  0  0
  -23.8961  -43.1078   -5.8817 C   0  0  0  0  0  0  0  0  0  0  0  0
  -24.4931  -43.4467   -7.1926 C   0  0  0  0  0  0  0  0  0  0  0  0
  -23.5577  -43.4403   -8.3710 C   0  0  0  0  0  0  0  0  0  0  0  0
  -22.3781  -44.2647   -8.1601 N   0  0  0  0  0  0  0  0  0  0  0  0
  -21.0232  -43.9274   -7.8674 C   0  0  0  0  0  0  0  0  0  0  0  0
  -20.1715  -42.9786   -8.3750 C   0  0  0  0  0  0  0  0  0  0  0  0
  -18.8915  -42.8877   -7.8576 C   0  0  0  0  0  0  0  0  0  0  0  0
  -18.5426  -43.7974   -6.8246 C   0  0  0  0  0  0  0  0  0  0  0  0
  -19.3407  -44.7262   -6.3136 N   0  0  0  0  0  0  0  0  0  0  0  0
  -20.5601  -44.7842   -6.8318 C   0  0  0  0  0  0  0  0  0  0  0  0
  -17.7741  -41.9894   -8.1647 C   0  0  0  0  0  0  0  0  0  0  0  0
  -16.6024  -42.5949   -8.2177 O   0  0  0  0  0  0  0  0  0  0  0  0
  -17.6290  -40.6217   -8.4202 N   0  0  0  0  0  0  0  0  0  0  0  0
  1  2  1  0
  2  3  1  0
  2  4  1  0
  4  5  2  0
  5  6  1  0
  6  7  2  0
  7  8  1  0
  8  9  2  0
  6 10  1  0
 10 11  1  0
 10 12  1  0
 10 13  1  0
 13 14  1  0
 14 15  1  0
 15 16  1  6
 15 17  1  0
 17 18  1  1
 18 19  1  0
 19 20  2  0
 20 21  1  0
 21 22  2  0
 22 23  1  0
 23 24  2  0
 21 25  1  0
 25 26  1  0
 26 27  1  0
 27 28  1  0
 28 29  1  0
 29 30  1  0
 30 31  1  0
 31 32  2  0
 32 33  1  0
 33 34  2  0
 34 35  1  0
 35 36  2  0
 33 37  1  0
 37 38  2  0
 37 39  1  0
  9  4  1  0
 24 19  1  0
 36 31  1  0
 39 17  1  0
M  END
$$$$
