
     RDKit          3D

 39 42  0  0  0  0  0  0  0  0999 V2000
  -16.3382  -46.7602   -9.7322 C   0  0  0  0  0  0  0  0  0  0  0  0
  -15.3691  -45.6952   -9.2868 C   0  0  0  0  0  0  0  0  0  0  0  0
  -15.6971  -45.2880   -7.8417 C   0  0  0  0  0  0  0  0  0  0  0  0
  -15.4320  -44.4786  -10.1104 C   0  0  0  0  0  0  0  0  0  0  0  0
  -14.7619  -43.3072   -9.7386 C   0  0  0  0  0  0  0  0  0  0  0  0
  -14.8237  -42.1758  -10.5170 C   0  0  0  0  0  0  0  0  0  0  0  0
  -15.5463  -42.1936  -11.6658 C   0  0  0  0  0  0  0  0  0  0  0  0
  -16.2264  -43.3579  -12.0580 C   0  0  0  0  0  0  0  0  0  0  0  0
  -16.1549  -44.4802  -11.2693 C   0  0  0  0  0  0  0  0  0  0  0  0
  -14.0628  -40.9335  -10.0289 C   0  0  0  0  0  0  0  0  0  0  0  0
  -13.3329  -40.4147  -11.2439 C   0  0  0  0  0  0  0  0  0  0  0  0
  -13.0836  -41.4853   -9.0366 C   0  0  0  0  0  0  0  0  0  0  0  0
  -15.0197  -40.1079   -9.4803 N   0  0  0  0  0  0  0  0  0  0  0  0
  -14.8687  -39.2404   -8.4033 C   0  0  0  0  0  0  0  0  0  0  0  0
  -15.8142  -39.4288   -7.3128 C   0  0  1  0  0  0  0  0  0  0  0  0
  -15.8203  -38.4532   -6.3419 O   0  0  0  0  0  0  0  0  0  0  0  0
  -17.2461  -39.7616   -7.6876 C   0  0  2  0  0  0  0  0  0  0  0  0
  -18.2332  -39.4977   -6.5705 C   0  0  0  0  0  0  0  0  0  0  0  0
  -19.5182  -38.9955   -7.1182 C   0  0  0  0  0  0  0  0  0  0  0  0
  -20.7983  -39.4542   -7.1208 C   0  0  0  0  0  0  0  0  0  0  0  0
  -21.7743  -38.7029   -7.7628 C   0  0  0  0  0  0  0  0  0  0  0  0
  -21.4307  -37.4935   -8.3938 C   0  0  0  0  0  0  0  0  0  0  0  0
  -20.1457  -36.9911   -8.4148 C   0  0  0  0  0  0  0  0  0  0  0  0
  -19.2313  -37.7625   -7.7738 C   0  0  0  0  0  0  0  0  0  0  0  0
  -23.1198  -38.9455   -7.9074 O   0  0  0  0  0  0  0  0  0  0  0  0
  -24.2278  -39.3133   -7.2295 C   0  0  0  0  0  0  0  0  0  0  0  0
  -24.3557  -40.8346   -7.2591 C   0  0  0  0  0  0  0  0  0  0  0  0
  -24.7085  -41.3690   -8.5932 C   0  0  0  0  0  0  0  0  0  0  0  0
  -23.5860  -41.9913   -9.3784 C   0  0  0  0  0  0  0  0  0  0  0  0
  -22.8740  -43.0158   -8.6306 N   0  0  0  0  0  0  0  0  0  0  0  0
  -21.5993  -43.0111   -7.9899 C   0  0  0  0  0  0  0  0  0  0  0  0
  -20.3664  -42.5496   -8.3773 C   0  0  0  0  0  0  0  0  0  0  0  0
  -19.3021  -42.6786   -7.5027 C   0  0  0  0  0  0  0  0  0  0  0  0
  -19.5630  -43.2909   -6.2484 C   0  0  0  0  0  0  0  0  0  0  0  0
  -20.7412  -43.7486   -5.8445 N   0  0  0  0  0  0  0  0  0  0  0  0
  -21.7387  -43.6074   -6.7069 C   0  0  0  0  0  0  0  0  0  0  0  0
  -17.8954  -42.2786   -7.6084 C   0  0  0  0  0  0  0  0  0  0  0  0
  -17.0485  -43.1823   -7.1519 O   0  0  0  0  0  0  0  0  0  0  0  0
  -17.2055  -41.1564   -8.0791 N   0  0  0  0  0  0  0  0  0  0  0  0
  1  2  1  0
  2  3  1  0
  2  4  1  0
  4  5  2  0
  5  6  1  0
  6  7  2  0
  7  8  1  0
  8  9  2  0
  6 10  1  0
 10 11  1  0
 10 12  1  0
 10 13  1  0
 13 14  1  0
 14 15  1  0
 15 16  1  6
 15 17  1  0
 17 18  1  1
 18 19  1  0
 19 20  2  0
 20 21  1  0
 21 22  2  0
 22 23  1  0
 23 24  2  0
 21 25  1  0
 25 26  1  0
 26 27  1  0
 27 28  1  0
 28 29  1  0
 29 30  1  0
 30 31  1  0
 31 32  2  0
 32 33  1  0
 33 34  2  0
 34 35  1  0
 35 36  2  0
 33 37  1  0
 37 38  2  0
 37 39  1  0
  9  4  1  0
 24 19  1  0
 36 31  1  0
 39 17  1  0
M  END
$$$$
