
     RDKit          3D

 39 42  0  0  0  0  0  0  0  0999 V2000
   -9.7222  -37.9991  -11.9510 C   0  0  0  0  0  0  0  0  0  0  0  0
  -11.1156  -38.4693  -12.2811 C   0  0  0  0  0  0  0  0  0  0  0  0
  -11.3615  -38.2978  -13.7883 C   0  0  0  0  0  0  0  0  0  0  0  0
  -12.1609  -37.7117  -11.5771 C   0  0  0  0  0  0  0  0  0  0  0  0
  -13.4965  -38.1308  -11.5796 C   0  0  0  0  0  0  0  0  0  0  0  0
  -14.4662  -37.4177  -10.9155 C   0  0  0  0  0  0  0  0  0  0  0  0
  -14.1240  -36.2880  -10.2455 C   0  0  0  0  0  0  0  0  0  0  0  0
  -12.7901  -35.8492  -10.2297 C   0  0  0  0  0  0  0  0  0  0  0  0
  -11.8329  -36.5726  -10.8983 C   0  0  0  0  0  0  0  0  0  0  0  0
  -15.9070  -37.9474  -10.9770 C   0  0  0  0  0  0  0  0  0  0  0  0
  -15.9068  -38.9640  -12.0928 C   0  0  0  0  0  0  0  0  0  0  0  0
  -16.7094  -36.7454  -11.3757 C   0  0  0  0  0  0  0  0  0  0  0  0
  -16.1811  -38.4160   -9.7107 N   0  0  0  0  0  0  0  0  0  0  0  0
  -15.3458  -38.3813   -8.5989 C   0  0  0  0  0  0  0  0  0  0  0  0
  -15.8722  -39.0215   -7.4024 C   0  0  1  0  0  0  0  0  0  0  0  0
  -15.8178  -38.2788   -6.2449 O   0  0  0  0  0  0  0  0  0  0  0  0
  -17.2391  -39.6709   -7.5089 C   0  0  2  0  0  0  0  0  0  0  0  0
  -17.9276  -39.8376   -6.1711 C   0  0  0  0  0  0  0  0  0  0  0  0
  -19.3907  -39.6275   -6.3080 C   0  0  0  0  0  0  0  0  0  0  0  0
  -20.4883  -40.4075   -6.1183 C   0  0  0  0  0  0  0  0  0  0  0  0
  -21.7427  -39.8641   -6.3639 C   0  0  0  0  0  0  0  0  0  0  0  0
  -21.8602  -38.5320   -6.8002 C   0  0  0  0  0  0  0  0  0  0  0  0
  -20.7741  -37.7057   -7.0048 C   0  0  0  0  0  0  0  0  0  0  0  0
  -19.5732  -38.2847   -6.7505 C   0  0  0  0  0  0  0  0  0  0  0  0
  -22.9879  -40.4360   -6.2519 O   0  0  0  0  0  0  0  0  0  0  0  0
  -23.7641  -41.1769   -5.4328 C   0  0  0  0  0  0  0  0  0  0  0  0
  -23.5495  -42.6578   -5.7372 C   0  0  0  0  0  0  0  0  0  0  0  0
  -24.1137  -43.0781   -7.0391 C   0  0  0  0  0  0  0  0  0  0  0  0
  -23.1296  -43.2626   -8.1620 C   0  0  0  0  0  0  0  0  0  0  0  0
  -22.0331  -44.1517   -7.8115 N   0  0  0  0  0  0  0  0  0  0  0  0
  -20.6692  -43.8940   -7.4820 C   0  0  0  0  0  0  0  0  0  0  0  0
  -19.7199  -43.0703   -8.0329 C   0  0  0  0  0  0  0  0  0  0  0  0
  -18.4611  -43.0286   -7.4603 C   0  0  0  0  0  0  0  0  0  0  0  0
  -18.2352  -43.8552   -6.3279 C   0  0  0  0  0  0  0  0  0  0  0  0
  -19.1296  -44.6629   -5.7727 N   0  0  0  0  0  0  0  0  0  0  0  0
  -20.3253  -44.6768   -6.3461 C   0  0  0  0  0  0  0  0  0  0  0  0
  -17.2603  -42.2558   -7.7932 C   0  0  0  0  0  0  0  0  0  0  0  0
  -16.1418  -42.9535   -7.7265 O   0  0  0  0  0  0  0  0  0  0  0  0
  -16.9909  -40.9360   -8.1708 N   0  0  0  0  0  0  0  0  0  0  0  0
  1  2  1  0
  2  3  1  0
  2  4  1  0
  4  5  2  0
  5  6  1  0
  6  7  2  0
  7  8  1  0
  8  9  2  0
  6 10  1  0
 10 11  1  0
 10 12  1  0
 10 13  1  0
 13 14  1  0
 14 15  1  0
 15 16  1  1
 15 17  1  0
 17 18  1  1
 18 19  1  0
 19 20  2  0
 20 21  1  0
 21 22  2  0
 22 23  1  0
 23 24  2  0
 21 25  1  0
 25 26  1  0
 26 27  1  0
 27 28  1  0
 28 29  1  0
 29 30  1  0
 30 31  1  0
 31 32  2  0
 32 33  1  0
 33 34  2  0
 34 35  1  0
 35 36  2  0
 33 37  1  0
 37 38  2  0
 37 39  1  0
  9  4  1  0
 24 19  1  0
 36 31  1  0
 39 17  1  0
M  END
$$$$
