
     RDKit          3D

 39 42  0  0  0  0  0  0  0  0999 V2000
  -14.4757  -33.2551  -12.5039 C   0  0  0  0  0  0  0  0  0  0  0  0
  -13.7818  -34.3871  -11.7907 C   0  0  0  0  0  0  0  0  0  0  0  0
  -12.2784  -34.3346  -12.1051 C   0  0  0  0  0  0  0  0  0  0  0  0
  -14.2699  -35.7120  -12.2017 C   0  0  0  0  0  0  0  0  0  0  0  0
  -14.2387  -36.8067  -11.3299 C   0  0  0  0  0  0  0  0  0  0  0  0
  -14.7006  -38.0406  -11.7221 C   0  0  0  0  0  0  0  0  0  0  0  0
  -15.1957  -38.2014  -12.9756 C   0  0  0  0  0  0  0  0  0  0  0  0
  -15.2365  -37.1169  -13.8667 C   0  0  0  0  0  0  0  0  0  0  0  0
  -14.7710  -35.8903  -13.4598 C   0  0  0  0  0  0  0  0  0  0  0  0
  -14.6222  -39.1871  -10.7024 C   0  0  0  0  0  0  0  0  0  0  0  0
  -13.1974  -39.6805  -10.7716 C   0  0  0  0  0  0  0  0  0  0  0  0
  -15.5530  -40.2215  -11.2603 C   0  0  0  0  0  0  0  0  0  0  0  0
  -15.0331  -38.6433   -9.5050 N   0  0  0  0  0  0  0  0  0  0  0  0
  -15.2459  -39.3114   -8.3036 C   0  0  0  0  0  0  0  0  0  0  0  0
  -16.3571  -38.8181   -7.5033 C   0  0  1  0  0  0  0  0  0  0  0  0
  -16.6265  -37.4723   -7.6063 O   0  0  0  0  0  0  0  0  0  0  0  0
  -17.6609  -39.5901   -7.5785 C   0  0  2  0  0  0  0  0  0  0  0  0
  -18.2258  -39.9432   -6.2192 C   0  0  0  0  0  0  0  0  0  0  0  0
  -19.7083  -39.8706   -6.2359 C   0  0  0  0  0  0  0  0  0  0  0  0
  -20.7097  -40.7710   -6.0477 C   0  0  0  0  0  0  0  0  0  0  0  0
  -22.0249  -40.3374   -6.1546 C   0  0  0  0  0  0  0  0  0  0  0  0
  -22.3006  -38.9906   -6.4525 C   0  0  0  0  0  0  0  0  0  0  0  0
  -21.3161  -38.0441   -6.6503 C   0  0  0  0  0  0  0  0  0  0  0  0
  -20.0500  -38.5191   -6.5345 C   0  0  0  0  0  0  0  0  0  0  0  0
  -23.1984  -41.0397   -6.0136 O   0  0  0  0  0  0  0  0  0  0  0  0
  -23.8361  -41.9248   -5.2184 C   0  0  0  0  0  0  0  0  0  0  0  0
  -23.5070  -43.3436   -5.6769 C   0  0  0  0  0  0  0  0  0  0  0  0
  -24.1274  -43.7018   -6.9718 C   0  0  0  0  0  0  0  0  0  0  0  0
  -23.2195  -43.6859   -8.1713 C   0  0  0  0  0  0  0  0  0  0  0  0
  -22.0204  -44.4873   -7.9826 N   0  0  0  0  0  0  0  0  0  0  0  0
  -20.6656  -44.1235   -7.7232 C   0  0  0  0  0  0  0  0  0  0  0  0
  -19.8433  -43.1627   -8.2559 C   0  0  0  0  0  0  0  0  0  0  0  0
  -18.5537  -43.0450   -7.7685 C   0  0  0  0  0  0  0  0  0  0  0  0
  -18.1646  -43.9416   -6.7384 C   0  0  0  0  0  0  0  0  0  0  0  0
  -18.9337  -44.8814   -6.2036 N   0  0  0  0  0  0  0  0  0  0  0  0
  -20.1633  -44.9650   -6.6933 C   0  0  0  0  0  0  0  0  0  0  0  0
  -17.4602  -42.1286   -8.1067 C   0  0  0  0  0  0  0  0  0  0  0  0
  -16.2792  -42.7130   -8.1829 O   0  0  0  0  0  0  0  0  0  0  0  0
  -17.3462  -40.7601   -8.3737 N   0  0  0  0  0  0  0  0  0  0  0  0
  1  2  1  0
  2  3  1  0
  2  4  1  0
  4  5  2  0
  5  6  1  0
  6  7  2  0
  7  8  1  0
  8  9  2  0
  6 10  1  0
 10 11  1  0
 10 12  1  0
 10 13  1  0
 13 14  1  0
 14 15  1  0
 15 16  1  6
 15 17  1  0
 17 18  1  1
 18 19  1  0
 19 20  2  0
 20 21  1  0
 21 22  2  0
 22 23  1  0
 23 24  2  0
 21 25  1  0
 25 26  1  0
 26 27  1  0
 27 28  1  0
 28 29  1  0
 29 30  1  0
 30 31  1  0
 31 32  2  0
 32 33  1  0
 33 34  2  0
 34 35  1  0
 35 36  2  0
 33 37  1  0
 37 38  2  0
 37 39  1  0
  9  4  1  0
 24 19  1  0
 36 31  1  0
 39 17  1  0
M  END
$$$$
