
     RDKit          3D

 39 42  0  0  0  0  0  0  0  0999 V2000
  -12.0752  -34.6495  -11.8910 C   0  0  0  0  0  0  0  0  0  0  0  0
  -13.5796  -34.6664  -11.9815 C   0  0  0  0  0  0  0  0  0  0  0  0
  -14.1661  -33.9438  -10.7585 C   0  0  0  0  0  0  0  0  0  0  0  0
  -14.1402  -36.0257  -11.9986 C   0  0  0  0  0  0  0  0  0  0  0  0
  -13.6847  -37.0168  -11.1213 C   0  0  0  0  0  0  0  0  0  0  0  0
  -14.2175  -38.2838  -11.1424 C   0  0  0  0  0  0  0  0  0  0  0  0
  -15.2021  -38.5801  -12.0284 C   0  0  0  0  0  0  0  0  0  0  0  0
  -15.6743  -37.6011  -12.9176 C   0  0  0  0  0  0  0  0  0  0  0  0
  -15.1315  -36.3398  -12.8842 C   0  0  0  0  0  0  0  0  0  0  0  0
  -13.6527  -39.3102  -10.1484 C   0  0  0  0  0  0  0  0  0  0  0  0
  -12.1542  -39.2362  -10.3129 C   0  0  0  0  0  0  0  0  0  0  0  0
  -14.1634  -40.6217  -10.6652 C   0  0  0  0  0  0  0  0  0  0  0  0
  -14.1606  -38.9501   -8.9193 N   0  0  0  0  0  0  0  0  0  0  0  0
  -15.4828  -38.6511   -8.6074 C   0  0  0  0  0  0  0  0  0  0  0  0
  -15.9922  -39.2682   -7.3914 C   0  0  1  0  0  0  0  0  0  0  0  0
  -15.9130  -38.5069   -6.2475 O   0  0  0  0  0  0  0  0  0  0  0  0
  -17.3649  -39.9102   -7.4634 C   0  0  2  0  0  0  0  0  0  0  0  0
  -17.8530  -40.4288   -6.1276 C   0  0  0  0  0  0  0  0  0  0  0  0
  -19.3189  -40.2348   -5.9972 C   0  0  0  0  0  0  0  0  0  0  0  0
  -20.3830  -41.0697   -5.8572 C   0  0  0  0  0  0  0  0  0  0  0  0
  -21.6557  -40.5197   -5.7760 C   0  0  0  0  0  0  0  0  0  0  0  0
  -21.8256  -39.1247   -5.8390 C   0  0  0  0  0  0  0  0  0  0  0  0
  -20.7747  -38.2416   -5.9800 C   0  0  0  0  0  0  0  0  0  0  0  0
  -19.5539  -38.8298   -6.0542 C   0  0  0  0  0  0  0  0  0  0  0  0
  -22.8756  -41.1382   -5.6365 O   0  0  0  0  0  0  0  0  0  0  0  0
  -23.5301  -42.0843   -4.9301 C   0  0  0  0  0  0  0  0  0  0  0  0
  -23.3728  -43.4337   -5.6273 C   0  0  0  0  0  0  0  0  0  0  0  0
  -24.1231  -43.5293   -6.8992 C   0  0  0  0  0  0  0  0  0  0  0  0
  -23.3138  -43.3956   -8.1604 C   0  0  0  0  0  0  0  0  0  0  0  0
  -22.1846  -44.3113   -8.2065 N   0  0  0  0  0  0  0  0  0  0  0  0
  -20.7854  -44.1043   -8.0199 C   0  0  0  0  0  0  0  0  0  0  0  0
  -19.9203  -43.1405   -8.4734 C   0  0  0  0  0  0  0  0  0  0  0  0
  -18.5913  -43.2069   -8.0941 C   0  0  0  0  0  0  0  0  0  0  0  0
  -18.2095  -44.2848   -7.2523 C   0  0  0  0  0  0  0  0  0  0  0  0
  -19.0197  -45.2326   -6.7985 N   0  0  0  0  0  0  0  0  0  0  0  0
  -20.2860  -45.1373   -7.1805 C   0  0  0  0  0  0  0  0  0  0  0  0
  -17.4460  -42.3397   -8.3876 C   0  0  0  0  0  0  0  0  0  0  0  0
  -16.3348  -42.9980   -8.6598 O   0  0  0  0  0  0  0  0  0  0  0  0
  -17.2246  -40.9599   -8.4527 N   0  0  0  0  0  0  0  0  0  0  0  0
  1  2  1  0
  2  3  1  0
  2  4  1  0
  4  5  2  0
  5  6  1  0
  6  7  2  0
  7  8  1  0
  8  9  2  0
  6 10  1  0
 10 11  1  0
 10 12  1  0
 10 13  1  0
 13 14  1  0
 14 15  1  0
 15 16  1  1
 15 17  1  0
 17 18  1  1
 18 19  1  0
 19 20  2  0
 20 21  1  0
 21 22  2  0
 22 23  1  0
 23 24  2  0
 21 25  1  0
 25 26  1  0
 26 27  1  0
 27 28  1  0
 28 29  1  0
 29 30  1  0
 30 31  1  0
 31 32  2  0
 32 33  1  0
 33 34  2  0
 34 35  1  0
 35 36  2  0
 33 37  1  0
 37 38  2  0
 37 39  1  0
  9  4  1  0
 24 19  1  0
 36 31  1  0
 39 17  1  0
M  END
$$$$
