
     RDKit          3D

 39 42  0  0  0  0  0  0  0  0999 V2000
  -17.5089  -45.1055   -6.5143 C   0  0  0  0  0  0  0  0  0  0  0  0
  -18.1325  -44.6725   -7.8164 C   0  0  0  0  0  0  0  0  0  0  0  0
  -18.8179  -45.8809   -8.4733 C   0  0  0  0  0  0  0  0  0  0  0  0
  -17.1517  -44.1479   -8.7782 C   0  0  0  0  0  0  0  0  0  0  0  0
  -15.9576  -43.5524   -8.3553 C   0  0  0  0  0  0  0  0  0  0  0  0
  -15.0451  -43.0681   -9.2623 C   0  0  0  0  0  0  0  0  0  0  0  0
  -15.3053  -43.1684  -10.5906 C   0  0  0  0  0  0  0  0  0  0  0  0
  -16.4970  -43.7621  -11.0372 C   0  0  0  0  0  0  0  0  0  0  0  0
  -17.3987  -44.2411  -10.1184 C   0  0  0  0  0  0  0  0  0  0  0  0
  -13.7645  -42.4245   -8.7090 C   0  0  0  0  0  0  0  0  0  0  0  0
  -13.0209  -41.9189   -9.9213 C   0  0  0  0  0  0  0  0  0  0  0  0
  -13.0261  -43.5760   -8.0953 C   0  0  0  0  0  0  0  0  0  0  0  0
  -14.1902  -41.4780   -7.8029 N   0  0  0  0  0  0  0  0  0  0  0  0
  -14.4813  -40.1409   -8.0532 C   0  0  0  0  0  0  0  0  0  0  0  0
  -15.5140  -39.5582   -7.2089 C   0  0  1  0  0  0  0  0  0  0  0  0
  -15.2098  -38.3475   -6.6292 O   0  0  0  0  0  0  0  0  0  0  0  0
  -16.9189  -39.4945   -7.7776 C   0  0  2  0  0  0  0  0  0  0  0  0
  -17.7249  -38.3266   -7.2502 C   0  0  0  0  0  0  0  0  0  0  0  0
  -18.6072  -37.7805   -8.3116 C   0  0  0  0  0  0  0  0  0  0  0  0
  -19.9530  -37.6634   -8.4668 C   0  0  0  0  0  0  0  0  0  0  0  0
  -20.4423  -37.0930   -9.6348 C   0  0  0  0  0  0  0  0  0  0  0  0
  -19.5515  -36.6498  -10.6291 C   0  0  0  0  0  0  0  0  0  0  0  0
  -18.1800  -36.7485  -10.5128 C   0  0  0  0  0  0  0  0  0  0  0  0
  -17.7546  -37.3123   -9.3538 C   0  0  0  0  0  0  0  0  0  0  0  0
  -21.7400  -36.8667  -10.0284 O   0  0  0  0  0  0  0  0  0  0  0  0
  -22.9234  -36.3717   -9.6077 C   0  0  0  0  0  0  0  0  0  0  0  0
  -23.7357  -37.4895   -8.9580 C   0  0  0  0  0  0  0  0  0  0  0  0
  -24.2318  -38.4939   -9.9249 C   0  0  0  0  0  0  0  0  0  0  0  0
  -23.4864  -39.8001   -9.9684 C   0  0  0  0  0  0  0  0  0  0  0  0
  -23.3619  -40.4230   -8.6599 N   0  0  0  0  0  0  0  0  0  0  0  0
  -22.2598  -40.5320   -7.7606 C   0  0  0  0  0  0  0  0  0  0  0  0
  -20.9362  -40.8430   -7.9465 C   0  0  0  0  0  0  0  0  0  0  0  0
  -20.0930  -40.8487   -6.8495 C   0  0  0  0  0  0  0  0  0  0  0  0
  -20.6650  -40.5306   -5.5893 C   0  0  0  0  0  0  0  0  0  0  0  0
  -21.9392  -40.2277   -5.3757 N   0  0  0  0  0  0  0  0  0  0  0  0
  -22.7180  -40.2304   -6.4491 C   0  0  0  0  0  0  0  0  0  0  0  0
  -18.6569  -41.1152   -6.7212 C   0  0  0  0  0  0  0  0  0  0  0  0
  -18.3435  -41.8551   -5.6740 O   0  0  0  0  0  0  0  0  0  0  0  0
  -17.5066  -40.7759   -7.4413 N   0  0  0  0  0  0  0  0  0  0  0  0
  1  2  1  0
  2  3  1  0
  2  4  1  0
  4  5  2  0
  5  6  1  0
  6  7  2  0
  7  8  1  0
  8  9  2  0
  6 10  1  0
 10 11  1  0
 10 12  1  0
 10 13  1  0
 13 14  1  0
 14 15  1  0
 15 16  1  6
 15 17  1  0
 17 18  1  1
 18 19  1  0
 19 20  2  0
 20 21  1  0
 21 22  2  0
 22 23  1  0
 23 24  2  0
 21 25  1  0
 25 26  1  0
 26 27  1  0
 27 28  1  0
 28 29  1  0
 29 30  1  0
 30 31  1  0
 31 32  2  0
 32 33  1  0
 33 34  2  0
 34 35  1  0
 35 36  2  0
 33 37  1  0
 37 38  2  0
 37 39  1  0
  9  4  1  0
 24 19  1  0
 36 31  1  0
 39 17  1  0
M  END
$$$$
