
     RDKit          3D

 39 42  0  0  0  0  0  0  0  0999 V2000
  -10.7758  -41.9765  -10.2062 C   0  0  0  0  0  0  0  0  0  0  0  0
  -12.2258  -42.2074   -9.8656 C   0  0  0  0  0  0  0  0  0  0  0  0
  -12.5635  -43.6913  -10.0794 C   0  0  0  0  0  0  0  0  0  0  0  0
  -13.1459  -41.4231  -10.7026 C   0  0  0  0  0  0  0  0  0  0  0  0
  -13.3511  -40.0560  -10.4824 C   0  0  0  0  0  0  0  0  0  0  0  0
  -14.2107  -39.3303  -11.2725 C   0  0  0  0  0  0  0  0  0  0  0  0
  -14.8721  -39.9486  -12.2836 C   0  0  0  0  0  0  0  0  0  0  0  0
  -14.6813  -41.3193  -12.5224 C   0  0  0  0  0  0  0  0  0  0  0  0
  -13.8192  -42.0305  -11.7240 C   0  0  0  0  0  0  0  0  0  0  0  0
  -14.3799  -37.8367  -10.9550 C   0  0  0  0  0  0  0  0  0  0  0  0
  -15.4536  -37.3514  -11.8983 C   0  0  0  0  0  0  0  0  0  0  0  0
  -13.0561  -37.2423  -11.3321 C   0  0  0  0  0  0  0  0  0  0  0  0
  -14.6638  -37.7767   -9.6081 N   0  0  0  0  0  0  0  0  0  0  0  0
  -15.9193  -37.7121   -9.0124 C   0  0  0  0  0  0  0  0  0  0  0  0
  -16.1575  -38.6799   -7.9516 C   0  0  1  0  0  0  0  0  0  0  0  0
  -15.8024  -38.2855   -6.6817 O   0  0  0  0  0  0  0  0  0  0  0  0
  -17.5274  -39.3298   -7.9022 C   0  0  2  0  0  0  0  0  0  0  0  0
  -17.9973  -39.6276   -6.4943 C   0  0  0  0  0  0  0  0  0  0  0  0
  -19.4625  -39.4200   -6.3790 C   0  0  0  0  0  0  0  0  0  0  0  0
  -20.5205  -40.2250   -6.0929 C   0  0  0  0  0  0  0  0  0  0  0  0
  -21.7952  -39.6735   -6.0860 C   0  0  0  0  0  0  0  0  0  0  0  0
  -21.9732  -38.3076   -6.3714 C   0  0  0  0  0  0  0  0  0  0  0  0
  -20.9288  -37.4552   -6.6660 C   0  0  0  0  0  0  0  0  0  0  0  0
  -19.7057  -38.0436   -6.6592 C   0  0  0  0  0  0  0  0  0  0  0  0
  -23.0100  -40.2655   -5.8335 O   0  0  0  0  0  0  0  0  0  0  0  0
  -23.6512  -41.0873   -4.9756 C   0  0  0  0  0  0  0  0  0  0  0  0
  -23.4947  -42.5310   -5.4476 C   0  0  0  0  0  0  0  0  0  0  0  0
  -24.2592  -42.8334   -6.6781 C   0  0  0  0  0  0  0  0  0  0  0  0
  -23.4652  -42.9025   -7.9542 C   0  0  0  0  0  0  0  0  0  0  0  0
  -22.3317  -43.8097   -7.8656 N   0  0  0  0  0  0  0  0  0  0  0  0
  -20.9316  -43.5705   -7.7321 C   0  0  0  0  0  0  0  0  0  0  0  0
  -20.0769  -42.6896   -8.3459 C   0  0  0  0  0  0  0  0  0  0  0  0
  -18.7433  -42.6893   -7.9771 C   0  0  0  0  0  0  0  0  0  0  0  0
  -18.3460  -43.6158   -6.9770 C   0  0  0  0  0  0  0  0  0  0  0  0
  -19.1458  -44.4806   -6.3662 N   0  0  0  0  0  0  0  0  0  0  0  0
  -20.4170  -44.4525   -6.7430 C   0  0  0  0  0  0  0  0  0  0  0  0
  -17.6062  -41.8770   -8.4209 C   0  0  0  0  0  0  0  0  0  0  0  0
  -16.4947  -42.5668   -8.5967 O   0  0  0  0  0  0  0  0  0  0  0  0
  -17.3930  -40.5251   -8.7106 N   0  0  0  0  0  0  0  0  0  0  0  0
  1  2  1  0
  2  3  1  0
  2  4  1  0
  4  5  2  0
  5  6  1  0
  6  7  2  0
  7  8  1  0
  8  9  2  0
  6 10  1  0
 10 11  1  0
 10 12  1  0
 10 13  1  0
 13 14  1  0
 14 15  1  0
 15 16  1  1
 15 17  1  0
 17 18  1  1
 18 19  1  0
 19 20  2  0
 20 21  1  0
 21 22  2  0
 22 23  1  0
 23 24  2  0
 21 25  1  0
 25 26  1  0
 26 27  1  0
 27 28  1  0
 28 29  1  0
 29 30  1  0
 30 31  1  0
 31 32  2  0
 32 33  1  0
 33 34  2  0
 34 35  1  0
 35 36  2  0
 33 37  1  0
 37 38  2  0
 37 39  1  0
  9  4  1  0
 24 19  1  0
 36 31  1  0
 39 17  1  0
M  END
$$$$
