
     RDKit          3D

 39 42  0  0  0  0  0  0  0  0999 V2000
  -22.2035  -37.3447   -8.4799 C   0  0  0  0  0  0  0  0  0  0  0  0
  -22.9779  -38.5706   -8.0685 C   0  0  0  0  0  0  0  0  0  0  0  0
  -23.6709  -38.3011   -6.7237 C   0  0  0  0  0  0  0  0  0  0  0  0
  -22.1273  -39.7573   -7.8937 C   0  0  0  0  0  0  0  0  0  0  0  0
  -20.9302  -39.7001   -7.1703 C   0  0  0  0  0  0  0  0  0  0  0  0
  -20.1434  -40.8157   -7.0093 C   0  0  0  0  0  0  0  0  0  0  0  0
  -20.5327  -41.9934   -7.5605 C   0  0  0  0  0  0  0  0  0  0  0  0
  -21.7299  -42.0736   -8.2902 C   0  0  0  0  0  0  0  0  0  0  0  0
  -22.5049  -40.9498   -8.4422 C   0  0  0  0  0  0  0  0  0  0  0  0
  -18.8431  -40.6598   -6.2058 C   0  0  0  0  0  0  0  0  0  0  0  0
  -18.1295  -41.9821   -6.3487 C   0  0  0  0  0  0  0  0  0  0  0  0
  -19.3180  -40.4807   -4.7950 C   0  0  0  0  0  0  0  0  0  0  0  0
  -18.2137  -39.5546   -6.7354 N   0  0  0  0  0  0  0  0  0  0  0  0
  -16.8454  -39.3108   -6.7956 C   0  0  0  0  0  0  0  0  0  0  0  0
  -16.4278  -38.3402   -7.7967 C   0  0  1  0  0  0  0  0  0  0  0  0
  -16.0858  -37.0933   -7.3250 O   0  0  0  0  0  0  0  0  0  0  0  0
  -15.3869  -38.7895   -8.8048 C   0  0  2  0  0  0  0  0  0  0  0  0
  -15.7077  -38.3688  -10.2232 C   0  0  0  0  0  0  0  0  0  0  0  0
  -14.4652  -38.0224  -10.9577 C   0  0  0  0  0  0  0  0  0  0  0  0
  -13.8332  -38.5232  -12.0527 C   0  0  0  0  0  0  0  0  0  0  0  0
  -12.6423  -37.9368  -12.4614 C   0  0  0  0  0  0  0  0  0  0  0  0
  -12.1121  -36.8471  -11.7470 C   0  0  0  0  0  0  0  0  0  0  0  0
  -12.7201  -36.3073  -10.6320 C   0  0  0  0  0  0  0  0  0  0  0  0
  -13.8795  -36.9161  -10.2754 C   0  0  0  0  0  0  0  0  0  0  0  0
  -11.8217  -38.2530  -13.5181 O   0  0  0  0  0  0  0  0  0  0  0  0
  -11.8245  -38.5364  -14.8380 C   0  0  0  0  0  0  0  0  0  0  0  0
  -11.9880  -40.0423  -15.0305 C   0  0  0  0  0  0  0  0  0  0  0  0
  -10.7954  -40.8195  -14.6261 C   0  0  0  0  0  0  0  0  0  0  0  0
  -10.8811  -41.5282  -13.3017 C   0  0  0  0  0  0  0  0  0  0  0  0
  -12.0588  -42.3745  -13.1893 N   0  0  0  0  0  0  0  0  0  0  0  0
  -13.2854  -42.2063  -12.4805 C   0  0  0  0  0  0  0  0  0  0  0  0
  -13.5726  -41.7742  -11.2100 C   0  0  0  0  0  0  0  0  0  0  0  0
  -14.8964  -41.7038  -10.8139 C   0  0  0  0  0  0  0  0  0  0  0  0
  -15.8794  -42.0919  -11.7623 C   0  0  0  0  0  0  0  0  0  0  0  0
  -15.6352  -42.5153  -12.9960 N   0  0  0  0  0  0  0  0  0  0  0  0
  -14.3562  -42.5690  -13.3423 C   0  0  0  0  0  0  0  0  0  0  0  0
  -15.5199  -41.2752   -9.5580 C   0  0  0  0  0  0  0  0  0  0  0  0
  -16.5140  -42.0494   -9.1649 O   0  0  0  0  0  0  0  0  0  0  0  0
  -15.3269  -40.2292   -8.6493 N   0  0  0  0  0  0  0  0  0  0  0  0
  1  2  1  0
  2  3  1  0
  2  4  1  0
  4  5  2  0
  5  6  1  0
  6  7  2  0
  7  8  1  0
  8  9  2  0
  6 10  1  0
 10 11  1  0
 10 12  1  0
 10 13  1  0
 13 14  1  0
 14 15  1  0
 15 16  1  1
 15 17  1  0
 17 18  1  6
 18 19  1  0
 19 20  2  0
 20 21  1  0
 21 22  2  0
 22 23  1  0
 23 24  2  0
 21 25  1  0
 25 26  1  0
 26 27  1  0
 27 28  1  0
 28 29  1  0
 29 30  1  0
 30 31  1  0
 31 32  2  0
 32 33  1  0
 33 34  2  0
 34 35  1  0
 35 36  2  0
 33 37  1  0
 37 38  2  0
 37 39  1  0
  9  4  1  0
 24 19  1  0
 36 31  1  0
 39 17  1  0
M  END
$$$$
