
     RDKit          3D

 39 42  0  0  0  0  0  0  0  0999 V2000
  -22.7921  -38.6651   -8.9028 C   0  0  0  0  0  0  0  0  0  0  0  0
  -22.7429  -38.5914   -7.3982 C   0  0  0  0  0  0  0  0  0  0  0  0
  -22.1689  -37.2290   -6.9789 C   0  0  0  0  0  0  0  0  0  0  0  0
  -21.8915  -39.6296   -6.7984 C   0  0  0  0  0  0  0  0  0  0  0  0
  -20.9184  -40.3015   -7.5474 C   0  0  0  0  0  0  0  0  0  0  0  0
  -20.1248  -41.2682   -6.9768 C   0  0  0  0  0  0  0  0  0  0  0  0
  -20.2865  -41.5772   -5.6651 C   0  0  0  0  0  0  0  0  0  0  0  0
  -21.2567  -40.9157   -4.8949 C   0  0  0  0  0  0  0  0  0  0  0  0
  -22.0419  -39.9522   -5.4797 C   0  0  0  0  0  0  0  0  0  0  0  0
  -19.0871  -41.9587   -7.8751 C   0  0  0  0  0  0  0  0  0  0  0  0
  -19.8843  -42.5704   -9.0014 C   0  0  0  0  0  0  0  0  0  0  0  0
  -18.5223  -43.0367   -6.9994 C   0  0  0  0  0  0  0  0  0  0  0  0
  -18.1839  -40.9760   -8.2165 N   0  0  0  0  0  0  0  0  0  0  0  0
  -17.4647  -40.1545   -7.3545 C   0  0  0  0  0  0  0  0  0  0  0  0
  -16.9820  -38.9103   -7.9355 C   0  0  1  0  0  0  0  0  0  0  0  0
  -16.7502  -37.8801   -7.0528 O   0  0  0  0  0  0  0  0  0  0  0  0
  -15.8167  -39.0039   -8.9024 C   0  0  2  0  0  0  0  0  0  0  0  0
  -16.1373  -38.4622  -10.2792 C   0  0  0  0  0  0  0  0  0  0  0  0
  -14.9531  -37.7816  -10.8603 C   0  0  0  0  0  0  0  0  0  0  0  0
  -14.1720  -37.9930  -11.9531 C   0  0  0  0  0  0  0  0  0  0  0  0
  -13.1055  -37.1345  -12.1865 C   0  0  0  0  0  0  0  0  0  0  0  0
  -12.8502  -36.0715  -11.3012 C   0  0  0  0  0  0  0  0  0  0  0  0
  -13.6169  -35.8202  -10.1818 C   0  0  0  0  0  0  0  0  0  0  0  0
  -14.6452  -36.6872  -10.0001 C   0  0  0  0  0  0  0  0  0  0  0  0
  -12.1800  -37.1351  -13.2031 O   0  0  0  0  0  0  0  0  0  0  0  0
  -12.0513  -37.2285  -14.5437 C   0  0  0  0  0  0  0  0  0  0  0  0
  -11.8921  -38.6961  -14.9343 C   0  0  0  0  0  0  0  0  0  0  0  0
  -10.5901  -39.2734  -14.5327 C   0  0  0  0  0  0  0  0  0  0  0  0
  -10.6025  -40.1611  -13.3180 C   0  0  0  0  0  0  0  0  0  0  0  0
  -11.5864  -41.2286  -13.4088 N   0  0  0  0  0  0  0  0  0  0  0  0
  -12.8590  -41.4029  -12.7880 C   0  0  0  0  0  0  0  0  0  0  0  0
  -13.2988  -41.2150  -11.5017 C   0  0  0  0  0  0  0  0  0  0  0  0
  -14.6290  -41.4601  -11.2103 C   0  0  0  0  0  0  0  0  0  0  0  0
  -15.4574  -41.8982  -12.2772 C   0  0  0  0  0  0  0  0  0  0  0  0
  -15.0634  -42.0912  -13.5296 N   0  0  0  0  0  0  0  0  0  0  0  0
  -13.7832  -41.8454  -13.7734 C   0  0  0  0  0  0  0  0  0  0  0  0
  -15.3960  -41.3393   -9.9666 C   0  0  0  0  0  0  0  0  0  0  0  0
  -16.2309  -42.3397   -9.7557 O   0  0  0  0  0  0  0  0  0  0  0  0
  -15.4720  -40.4114   -8.9224 N   0  0  0  0  0  0  0  0  0  0  0  0
  1  2  1  0
  2  3  1  0
  2  4  1  0
  4  5  2  0
  5  6  1  0
  6  7  2  0
  7  8  1  0
  8  9  2  0
  6 10  1  0
 10 11  1  0
 10 12  1  0
 10 13  1  0
 13 14  1  0
 14 15  1  0
 15 16  1  1
 15 17  1  0
 17 18  1  6
 18 19  1  0
 19 20  2  0
 20 21  1  0
 21 22  2  0
 22 23  1  0
 23 24  2  0
 21 25  1  0
 25 26  1  0
 26 27  1  0
 27 28  1  0
 28 29  1  0
 29 30  1  0
 30 31  1  0
 31 32  2  0
 32 33  1  0
 33 34  2  0
 34 35  1  0
 35 36  2  0
 33 37  1  0
 37 38  2  0
 37 39  1  0
  9  4  1  0
 24 19  1  0
 36 31  1  0
 39 17  1  0
M  END
$$$$
