
     RDKit          3D

 39 42  0  0  0  0  0  0  0  0999 V2000
  -21.5915  -40.0052   -3.2801 C   0  0  0  0  0  0  0  0  0  0  0  0
  -22.5217  -40.7113   -4.2328 C   0  0  0  0  0  0  0  0  0  0  0  0
  -22.3422  -42.2298   -4.0798 C   0  0  0  0  0  0  0  0  0  0  0  0
  -22.2641  -40.3788   -5.6419 C   0  0  0  0  0  0  0  0  0  0  0  0
  -20.9893  -40.5128   -6.2046 C   0  0  0  0  0  0  0  0  0  0  0  0
  -20.7590  -40.2028   -7.5239 C   0  0  0  0  0  0  0  0  0  0  0  0
  -21.7841  -39.7593   -8.2951 C   0  0  0  0  0  0  0  0  0  0  0  0
  -23.0710  -39.6174   -7.7512 C   0  0  0  0  0  0  0  0  0  0  0  0
  -23.2850  -39.9311   -6.4312 C   0  0  0  0  0  0  0  0  0  0  0  0
  -19.3278  -40.3736   -8.0558 C   0  0  0  0  0  0  0  0  0  0  0  0
  -19.4846  -40.6403   -9.5332 C   0  0  0  0  0  0  0  0  0  0  0  0
  -18.8361  -41.6069   -7.3593 C   0  0  0  0  0  0  0  0  0  0  0  0
  -18.6631  -39.2203   -7.7006 N   0  0  0  0  0  0  0  0  0  0  0  0
  -17.3875  -39.1152   -7.1557 C   0  0  0  0  0  0  0  0  0  0  0  0
  -16.5945  -37.9926   -7.6349 C   0  0  1  0  0  0  0  0  0  0  0  0
  -15.9894  -37.2226   -6.6677 O   0  0  0  0  0  0  0  0  0  0  0  0
  -15.5942  -38.2733   -8.7403 C   0  0  2  0  0  0  0  0  0  0  0  0
  -16.1030  -37.8992  -10.1161 C   0  0  0  0  0  0  0  0  0  0  0  0
  -14.9995  -37.3641  -10.9523 C   0  0  0  0  0  0  0  0  0  0  0  0
  -14.4018  -37.7575  -12.1087 C   0  0  0  0  0  0  0  0  0  0  0  0
  -13.3555  -36.9947  -12.6113 C   0  0  0  0  0  0  0  0  0  0  0  0
  -12.9331  -35.8405  -11.9270 C   0  0  0  0  0  0  0  0  0  0  0  0
  -13.5113  -35.4051  -10.7521 C   0  0  0  0  0  0  0  0  0  0  0  0
  -14.5279  -36.1850  -10.3046 C   0  0  0  0  0  0  0  0  0  0  0  0
  -12.5965  -37.1771  -13.7430 O   0  0  0  0  0  0  0  0  0  0  0  0
  -12.6771  -37.4510  -15.0625 C   0  0  0  0  0  0  0  0  0  0  0  0
  -12.6280  -38.9633  -15.2677 C   0  0  0  0  0  0  0  0  0  0  0  0
  -11.2997  -39.5519  -14.9864 C   0  0  0  0  0  0  0  0  0  0  0  0
  -11.1560  -40.2719  -13.6732 C   0  0  0  0  0  0  0  0  0  0  0  0
  -12.1770  -41.2882  -13.4717 N   0  0  0  0  0  0  0  0  0  0  0  0
  -13.3450  -41.3121  -12.6528 C   0  0  0  0  0  0  0  0  0  0  0  0
  -13.5769  -40.9351  -11.3539 C   0  0  0  0  0  0  0  0  0  0  0  0
  -14.8544  -41.0689  -10.8397 C   0  0  0  0  0  0  0  0  0  0  0  0
  -15.8499  -41.5975  -11.7034 C   0  0  0  0  0  0  0  0  0  0  0  0
  -15.6583  -41.9727  -12.9616 N   0  0  0  0  0  0  0  0  0  0  0  0
  -14.4229  -41.8293  -13.4220 C   0  0  0  0  0  0  0  0  0  0  0  0
  -15.4182  -40.7464   -9.5251 C   0  0  0  0  0  0  0  0  0  0  0  0
  -16.2438  -41.6649   -9.0592 O   0  0  0  0  0  0  0  0  0  0  0  0
  -15.3033  -39.6878   -8.6179 N   0  0  0  0  0  0  0  0  0  0  0  0
  1  2  1  0
  2  3  1  0
  2  4  1  0
  4  5  2  0
  5  6  1  0
  6  7  2  0
  7  8  1  0
  8  9  2  0
  6 10  1  0
 10 11  1  0
 10 12  1  0
 10 13  1  0
 13 14  1  0
 14 15  1  0
 15 16  1  1
 15 17  1  0
 17 18  1  6
 18 19  1  0
 19 20  2  0
 20 21  1  0
 21 22  2  0
 22 23  1  0
 23 24  2  0
 21 25  1  0
 25 26  1  0
 26 27  1  0
 27 28  1  0
 28 29  1  0
 29 30  1  0
 30 31  1  0
 31 32  2  0
 32 33  1  0
 33 34  2  0
 34 35  1  0
 35 36  2  0
 33 37  1  0
 37 38  2  0
 37 39  1  0
  9  4  1  0
 24 19  1  0
 36 31  1  0
 39 17  1  0
M  END
$$$$
