
     RDKit          3D

 39 42  0  0  0  0  0  0  0  0999 V2000
  -21.8185  -37.5325  -13.4138 C   0  0  0  0  0  0  0  0  0  0  0  0
  -20.6585  -36.9186  -12.6727 C   0  0  0  0  0  0  0  0  0  0  0  0
  -20.2780  -35.5897  -13.3443 C   0  0  0  0  0  0  0  0  0  0  0  0
  -19.4594  -37.7697  -12.6735 C   0  0  0  0  0  0  0  0  0  0  0  0
  -18.4449  -37.6065  -11.7229 C   0  0  0  0  0  0  0  0  0  0  0  0
  -17.3291  -38.4095  -11.7296 C   0  0  0  0  0  0  0  0  0  0  0  0
  -17.2080  -39.3774  -12.6733 C   0  0  0  0  0  0  0  0  0  0  0  0
  -18.2136  -39.5588  -13.6366 C   0  0  0  0  0  0  0  0  0  0  0  0
  -19.3223  -38.7482  -13.6167 C   0  0  0  0  0  0  0  0  0  0  0  0
  -16.2629  -38.1555  -10.6530 C   0  0  0  0  0  0  0  0  0  0  0  0
  -15.6363  -36.8328  -11.0219 C   0  0  0  0  0  0  0  0  0  0  0  0
  -15.2786  -39.2672  -10.8603 C   0  0  0  0  0  0  0  0  0  0  0  0
  -16.9335  -38.2106   -9.4507 N   0  0  0  0  0  0  0  0  0  0  0  0
  -16.3988  -38.0418   -8.1777 C   0  0  0  0  0  0  0  0  0  0  0  0
  -16.6559  -39.1281   -7.2435 C   0  0  1  0  0  0  0  0  0  0  0  0
  -16.3409  -38.8810   -5.9267 O   0  0  0  0  0  0  0  0  0  0  0  0
  -18.0194  -39.7899   -7.3096 C   0  0  2  0  0  0  0  0  0  0  0  0
  -18.3590  -40.5844   -6.0666 C   0  0  0  0  0  0  0  0  0  0  0  0
  -19.8060  -40.4720   -5.7553 C   0  0  0  0  0  0  0  0  0  0  0  0
  -20.8380  -41.3547   -5.6847 C   0  0  0  0  0  0  0  0  0  0  0  0
  -22.1031  -40.8773   -5.3676 C   0  0  0  0  0  0  0  0  0  0  0  0
  -22.2983  -39.5051   -5.1269 C   0  0  0  0  0  0  0  0  0  0  0  0
  -21.2802  -38.5756   -5.1873 C   0  0  0  0  0  0  0  0  0  0  0  0
  -20.0655  -39.0937   -5.5003 C   0  0  0  0  0  0  0  0  0  0  0  0
  -23.2931  -41.5534   -5.2379 O   0  0  0  0  0  0  0  0  0  0  0  0
  -23.8574  -42.6450   -4.6789 C   0  0  0  0  0  0  0  0  0  0  0  0
  -23.7542  -43.8194   -5.6494 C   0  0  0  0  0  0  0  0  0  0  0  0
  -24.6310  -43.6823   -6.8335 C   0  0  0  0  0  0  0  0  0  0  0  0
  -23.9588  -43.2685   -8.1143 C   0  0  0  0  0  0  0  0  0  0  0  0
  -22.8276  -44.1159   -8.4578 N   0  0  0  0  0  0  0  0  0  0  0  0
  -21.4197  -43.9021   -8.3719 C   0  0  0  0  0  0  0  0  0  0  0  0
  -20.6199  -42.8369   -8.7017 C   0  0  0  0  0  0  0  0  0  0  0  0
  -19.2580  -42.9321   -8.4769 C   0  0  0  0  0  0  0  0  0  0  0  0
  -18.7757  -44.1438   -7.9152 C   0  0  0  0  0  0  0  0  0  0  0  0
  -19.5210  -45.1915   -7.5872 N   0  0  0  0  0  0  0  0  0  0  0  0
  -20.8214  -45.0652   -7.8148 C   0  0  0  0  0  0  0  0  0  0  0  0
  -18.1616  -41.9840   -8.6985 C   0  0  0  0  0  0  0  0  0  0  0  0
  -17.0754  -42.5345   -9.2077 O   0  0  0  0  0  0  0  0  0  0  0  0
  -17.9677  -40.6126   -8.5015 N   0  0  0  0  0  0  0  0  0  0  0  0
  1  2  1  0
  2  3  1  0
  2  4  1  0
  4  5  2  0
  5  6  1  0
  6  7  2  0
  7  8  1  0
  8  9  2  0
  6 10  1  0
 10 11  1  0
 10 12  1  0
 10 13  1  0
 13 14  1  0
 14 15  1  0
 15 16  1  1
 15 17  1  0
 17 18  1  1
 18 19  1  0
 19 20  2  0
 20 21  1  0
 21 22  2  0
 22 23  1  0
 23 24  2  0
 21 25  1  0
 25 26  1  0
 26 27  1  0
 27 28  1  0
 28 29  1  0
 29 30  1  0
 30 31  1  0
 31 32  2  0
 32 33  1  0
 33 34  2  0
 34 35  1  0
 35 36  2  0
 33 37  1  0
 37 38  2  0
 37 39  1  0
  9  4  1  0
 24 19  1  0
 36 31  1  0
 39 17  1  0
M  END
$$$$
