
     RDKit          3D

 43 46  0  0  0  0  0  0  0  0999 V2000
  -19.1800  -48.7191   -8.8493 C   0  0  0  0  0  0  0  0  0  0  0  0
  -18.1180  -47.8294   -8.8302 O   0  0  0  0  0  0  0  0  0  0  0  0
  -18.2364  -46.8939   -7.8052 C   0  0  0  0  0  0  0  0  0  0  0  0
  -18.8138  -45.6149   -8.2923 C   0  0  0  0  0  0  0  0  0  0  0  0
  -20.1228  -45.4726   -8.6451 C   0  0  0  0  0  0  0  0  0  0  0  0
  -20.6896  -44.2539   -9.1139 C   0  0  0  0  0  0  0  0  0  0  0  0
  -19.8852  -43.1419   -9.2304 C   0  0  0  0  0  0  0  0  0  0  0  0
  -18.5595  -43.2437   -8.8804 C   0  0  0  0  0  0  0  0  0  0  0  0
  -18.0507  -44.4839   -8.4182 C   0  0  0  0  0  0  0  0  0  0  0  0
  -17.4810  -42.2315   -8.8490 C   0  0  0  0  0  0  0  0  0  0  0  0
  -16.2607  -42.6347   -9.1992 O   0  0  0  0  0  0  0  0  0  0  0  0
  -17.4543  -40.8754   -8.5154 N   0  0  0  0  0  0  0  0  0  0  0  0
  -17.9548  -40.1212   -7.4225 C   0  0  1  0  0  0  0  0  0  0  0  0
  -18.8379  -40.7819   -6.4327 C   0  0  0  0  0  0  0  0  0  0  0  0
  -20.2288  -40.2185   -6.4034 C   0  0  0  0  0  0  0  0  0  0  0  0
  -21.3619  -40.6339   -7.0478 C   0  0  0  0  0  0  0  0  0  0  0  0
  -22.5190  -39.8870   -6.8704 C   0  0  0  0  0  0  0  0  0  0  0  0
  -22.5299  -38.7530   -6.0585 C   0  0  0  0  0  0  0  0  0  0  0  0
  -21.4090  -38.3069   -5.3937 C   0  0  0  0  0  0  0  0  0  0  0  0
  -20.2838  -39.0628   -5.5914 C   0  0  0  0  0  0  0  0  0  0  0  0
  -23.7805  -40.1033   -7.4224 O   0  0  0  0  0  0  0  0  0  0  0  0
  -24.2766  -40.2393   -8.7163 C   0  0  0  0  0  0  0  0  0  0  0  0
  -24.6473  -41.6871   -8.9665 C   0  0  0  0  0  0  0  0  0  0  0  0
  -23.5331  -42.4517   -9.6695 C   0  0  0  0  0  0  0  0  0  0  0  0
  -23.2450  -43.6929   -8.8657 C   0  0  0  0  0  0  0  0  0  0  0  0
  -22.0921  -44.4322   -9.3328 N   0  0  0  0  0  0  0  0  0  0  0  0
  -16.7799  -39.3293   -6.7513 C   0  0  2  0  0  0  0  0  0  0  0  0
  -17.4482  -38.1213   -6.3887 O   0  0  0  0  0  0  0  0  0  0  0  0
  -15.7560  -38.9674   -7.7444 C   0  0  0  0  0  0  0  0  0  0  0  0
  -14.9162  -39.9776   -8.2633 N   0  0  0  0  0  0  0  0  0  0  0  0
  -14.1304  -39.7072   -9.4036 C   0  0  0  0  0  0  0  0  0  0  0  0
  -13.2245  -38.5395   -9.4092 C   0  0  0  0  0  0  0  0  0  0  0  0
  -13.2382  -40.9488   -9.6195 C   0  0  0  0  0  0  0  0  0  0  0  0
  -14.9561  -39.6249  -10.6615 C   0  0  0  0  0  0  0  0  0  0  0  0
  -15.9772  -38.7027  -10.7335 C   0  0  0  0  0  0  0  0  0  0  0  0
  -16.7677  -38.5520  -11.8497 C   0  0  0  0  0  0  0  0  0  0  0  0
  -16.5204  -39.3691  -12.9530 C   0  0  0  0  0  0  0  0  0  0  0  0
  -15.4937  -40.2818  -12.8524 C   0  0  0  0  0  0  0  0  0  0  0  0
  -14.7370  -40.4004  -11.7331 N   0  0  0  0  0  0  0  0  0  0  0  0
  -17.8801  -37.5795  -11.9215 C   0  0  0  0  0  0  0  0  0  0  0  0
  -17.8395  -36.7179  -13.1504 C   0  0  0  0  0  0  0  0  0  0  0  0
  -19.1948  -38.3624  -11.9086 C   0  0  0  0  0  0  0  0  0  0  0  0
  -17.8356  -36.6648  -10.7201 C   0  0  0  0  0  0  0  0  0  0  0  0
  1  2  1  0
  2  3  1  0
  3  4  1  0
  4  5  2  0
  5  6  1  0
  6  7  2  0
  7  8  1  0
  8  9  2  0
  8 10  1  0
 10 11  2  0
 10 12  1  0
 12 13  1  0
 13 14  1  1
 14 15  1  0
 15 16  2  0
 16 17  1  0
 17 18  2  0
 18 19  1  0
 19 20  2  0
 17 21  1  0
 21 22  1  0
 22 23  1  0
 23 24  1  0
 24 25  1  0
 25 26  1  0
 13 27  1  0
 27 28  1  6
 27 29  1  0
 29 30  1  0
 30 31  1  0
 31 32  1  0
 31 33  1  0
 31 34  1  0
 34 35  2  0
 35 36  1  0
 36 37  2  0
 37 38  1  0
 38 39  2  0
 36 40  1  0
 40 41  1  0
 40 42  1  0
 40 43  1  0
  9  4  1  0
 20 15  1  0
 26  6  1  0
 39 34  1  0
M  END
$$$$
