
     RDKit          3D

 43 46  0  0  0  0  0  0  0  0999 V2000
  -23.5516  -42.5464   -4.6758 C   0  0  0  0  0  0  0  0  0  0  0  0
  -22.8600  -42.0404   -3.5871 O   0  0  0  0  0  0  0  0  0  0  0  0
  -22.1950  -40.8555   -3.8934 C   0  0  0  0  0  0  0  0  0  0  0  0
  -21.6640  -40.8660   -5.2806 C   0  0  0  0  0  0  0  0  0  0  0  0
  -22.4216  -40.5638   -6.3728 C   0  0  0  0  0  0  0  0  0  0  0  0
  -21.9267  -40.5702   -7.7075 C   0  0  0  0  0  0  0  0  0  0  0  0
  -20.6092  -40.9035   -7.9320 C   0  0  0  0  0  0  0  0  0  0  0  0
  -19.8110  -41.2109   -6.8556 C   0  0  0  0  0  0  0  0  0  0  0  0
  -20.3589  -41.1865   -5.5480 C   0  0  0  0  0  0  0  0  0  0  0  0
  -18.3733  -41.5507   -6.7761 C   0  0  0  0  0  0  0  0  0  0  0  0
  -18.0152  -42.4645   -5.8754 O   0  0  0  0  0  0  0  0  0  0  0  0
  -17.2470  -41.1031   -7.4704 N   0  0  0  0  0  0  0  0  0  0  0  0
  -16.7455  -39.8193   -7.8080 C   0  0  1  0  0  0  0  0  0  0  0  0
  -17.5835  -38.6249   -7.5487 C   0  0  0  0  0  0  0  0  0  0  0  0
  -17.9885  -37.8970   -8.7973 C   0  0  0  0  0  0  0  0  0  0  0  0
  -19.1279  -38.0000   -9.5475 C   0  0  0  0  0  0  0  0  0  0  0  0
  -19.2195  -37.2254  -10.6964 C   0  0  0  0  0  0  0  0  0  0  0  0
  -18.1877  -36.3660  -11.0729 C   0  0  0  0  0  0  0  0  0  0  0  0
  -17.0278  -36.2357  -10.3413 C   0  0  0  0  0  0  0  0  0  0  0  0
  -16.9666  -37.0146   -9.2161 C   0  0  0  0  0  0  0  0  0  0  0  0
  -20.2648  -37.1643  -11.6164 O   0  0  0  0  0  0  0  0  0  0  0  0
  -20.9378  -38.0961  -12.4024 C   0  0  0  0  0  0  0  0  0  0  0  0
  -22.3258  -38.3247  -11.8392 C   0  0  0  0  0  0  0  0  0  0  0  0
  -22.3825  -39.5454  -10.9299 C   0  0  0  0  0  0  0  0  0  0  0  0
  -22.9945  -39.1192   -9.6208 C   0  0  0  0  0  0  0  0  0  0  0  0
  -22.9594  -40.1464   -8.6023 N   0  0  0  0  0  0  0  0  0  0  0  0
  -15.2861  -39.6656   -7.2560 C   0  0  2  0  0  0  0  0  0  0  0  0
  -15.0112  -38.3101   -7.6084 O   0  0  0  0  0  0  0  0  0  0  0  0
  -14.3457  -40.5024   -8.0183 C   0  0  0  0  0  0  0  0  0  0  0  0
  -14.5253  -41.9034   -8.0263 N   0  0  0  0  0  0  0  0  0  0  0  0
  -14.5068  -42.5971   -9.2548 C   0  0  0  0  0  0  0  0  0  0  0  0
  -13.8681  -41.9793  -10.4357 C   0  0  0  0  0  0  0  0  0  0  0  0
  -13.7513  -43.9185   -8.9951 C   0  0  0  0  0  0  0  0  0  0  0  0
  -15.8823  -43.0387   -9.6838 C   0  0  0  0  0  0  0  0  0  0  0  0
  -16.6881  -43.6941   -8.7785 C   0  0  0  0  0  0  0  0  0  0  0  0
  -17.9616  -44.1165   -9.0840 C   0  0  0  0  0  0  0  0  0  0  0  0
  -18.4535  -43.8675  -10.3655 C   0  0  0  0  0  0  0  0  0  0  0  0
  -17.6258  -43.2110  -11.2492 C   0  0  0  0  0  0  0  0  0  0  0  0
  -16.3751  -42.8111  -10.9096 N   0  0  0  0  0  0  0  0  0  0  0  0
  -18.8204  -44.8415   -8.1223 C   0  0  0  0  0  0  0  0  0  0  0  0
  -18.2235  -46.1351   -7.6483 C   0  0  0  0  0  0  0  0  0  0  0  0
  -19.0518  -43.9309   -6.9145 C   0  0  0  0  0  0  0  0  0  0  0  0
  -20.1497  -45.1598   -8.7654 C   0  0  0  0  0  0  0  0  0  0  0  0
  1  2  1  0
  2  3  1  0
  3  4  1  0
  4  5  2  0
  5  6  1  0
  6  7  2  0
  7  8  1  0
  8  9  2  0
  8 10  1  0
 10 11  2  0
 10 12  1  0
 12 13  1  0
 13 14  1  1
 14 15  1  0
 15 16  2  0
 16 17  1  0
 17 18  2  0
 18 19  1  0
 19 20  2  0
 17 21  1  0
 21 22  1  0
 22 23  1  0
 23 24  1  0
 24 25  1  0
 25 26  1  0
 13 27  1  0
 27 28  1  6
 27 29  1  0
 29 30  1  0
 30 31  1  0
 31 32  1  0
 31 33  1  0
 31 34  1  0
 34 35  2  0
 35 36  1  0
 36 37  2  0
 37 38  1  0
 38 39  2  0
 36 40  1  0
 40 41  1  0
 40 42  1  0
 40 43  1  0
  9  4  1  0
 20 15  1  0
 26  6  1  0
 39 34  1  0
M  END
$$$$
