
     RDKit          3D

 43 46  0  0  0  0  0  0  0  0999 V2000
  -16.8149  -46.3210   -4.3101 C   0  0  0  0  0  0  0  0  0  0  0  0
  -16.8425  -46.5712   -5.6726 O   0  0  0  0  0  0  0  0  0  0  0  0
  -18.1222  -46.8891   -6.1212 C   0  0  0  0  0  0  0  0  0  0  0  0
  -18.7582  -45.7453   -6.8239 C   0  0  0  0  0  0  0  0  0  0  0  0
  -20.1085  -45.5924   -6.9321 C   0  0  0  0  0  0  0  0  0  0  0  0
  -20.7319  -44.5025   -7.6027 C   0  0  0  0  0  0  0  0  0  0  0  0
  -19.9434  -43.5366   -8.1882 C   0  0  0  0  0  0  0  0  0  0  0  0
  -18.5764  -43.6529   -8.0975 C   0  0  0  0  0  0  0  0  0  0  0  0
  -18.0117  -44.7604   -7.4154 C   0  0  0  0  0  0  0  0  0  0  0  0
  -17.4910  -42.7662   -8.5711 C   0  0  0  0  0  0  0  0  0  0  0  0
  -16.3865  -43.3520   -9.0306 O   0  0  0  0  0  0  0  0  0  0  0  0
  -17.3577  -41.3778   -8.6473 N   0  0  0  0  0  0  0  0  0  0  0  0
  -17.5896  -40.3158   -7.7351 C   0  0  1  0  0  0  0  0  0  0  0  0
  -18.2537  -40.6056   -6.4424 C   0  0  0  0  0  0  0  0  0  0  0  0
  -19.5903  -39.9385   -6.2950 C   0  0  0  0  0  0  0  0  0  0  0  0
  -20.8464  -40.4143   -6.5541 C   0  0  0  0  0  0  0  0  0  0  0  0
  -21.9179  -39.5512   -6.3666 C   0  0  0  0  0  0  0  0  0  0  0  0
  -21.7232  -38.2430   -5.9238 C   0  0  0  0  0  0  0  0  0  0  0  0
  -20.4737  -37.7311   -5.6518 C   0  0  0  0  0  0  0  0  0  0  0  0
  -19.4380  -38.6057   -5.8493 C   0  0  0  0  0  0  0  0  0  0  0  0
  -23.2742  -39.8002   -6.5697 O   0  0  0  0  0  0  0  0  0  0  0  0
  -24.0424  -40.2387   -7.6450 C   0  0  0  0  0  0  0  0  0  0  0  0
  -24.4957  -41.6629   -7.3955 C   0  0  0  0  0  0  0  0  0  0  0  0
  -23.5807  -42.6818   -8.0624 C   0  0  0  0  0  0  0  0  0  0  0  0
  -23.1573  -43.6787   -7.0152 C   0  0  0  0  0  0  0  0  0  0  0  0
  -22.1526  -44.6127   -7.4758 N   0  0  0  0  0  0  0  0  0  0  0  0
  -16.2770  -39.4752   -7.5657 C   0  0  2  0  0  0  0  0  0  0  0  0
  -16.8021  -38.2768   -6.9953 O   0  0  0  0  0  0  0  0  0  0  0  0
  -15.7138  -39.1116   -8.8758 C   0  0  0  0  0  0  0  0  0  0  0  0
  -15.7443  -40.0593   -9.9226 N   0  0  0  0  0  0  0  0  0  0  0  0
  -14.5417  -40.4183  -10.5672 C   0  0  0  0  0  0  0  0  0  0  0  0
  -13.2734  -40.4119   -9.8085 C   0  0  0  0  0  0  0  0  0  0  0  0
  -14.7362  -41.8639  -11.0740 C   0  0  0  0  0  0  0  0  0  0  0  0
  -14.3035  -39.6182  -11.8219 C   0  0  0  0  0  0  0  0  0  0  0  0
  -14.2996  -38.2424  -11.7483 C   0  0  0  0  0  0  0  0  0  0  0  0
  -14.0747  -37.4384  -12.8423 C   0  0  0  0  0  0  0  0  0  0  0  0
  -13.8403  -38.0468  -14.0756 C   0  0  0  0  0  0  0  0  0  0  0  0
  -13.8504  -39.4235  -14.1190 C   0  0  0  0  0  0  0  0  0  0  0  0
  -14.0772  -40.1813  -13.0173 N   0  0  0  0  0  0  0  0  0  0  0  0
  -14.0935  -35.9610  -12.7715 C   0  0  0  0  0  0  0  0  0  0  0  0
  -15.4633  -35.3735  -12.9522 C   0  0  0  0  0  0  0  0  0  0  0  0
  -13.5533  -35.5459  -11.4014 C   0  0  0  0  0  0  0  0  0  0  0  0
  -13.2043  -35.3879  -13.8498 C   0  0  0  0  0  0  0  0  0  0  0  0
  1  2  1  0
  2  3  1  0
  3  4  1  0
  4  5  2  0
  5  6  1  0
  6  7  2  0
  7  8  1  0
  8  9  2  0
  8 10  1  0
 10 11  2  0
 10 12  1  0
 12 13  1  0
 13 14  1  1
 14 15  1  0
 15 16  2  0
 16 17  1  0
 17 18  2  0
 18 19  1  0
 19 20  2  0
 17 21  1  0
 21 22  1  0
 22 23  1  0
 23 24  1  0
 24 25  1  0
 25 26  1  0
 13 27  1  0
 27 28  1  1
 27 29  1  0
 29 30  1  0
 30 31  1  0
 31 32  1  0
 31 33  1  0
 31 34  1  0
 34 35  2  0
 35 36  1  0
 36 37  2  0
 37 38  1  0
 38 39  2  0
 36 40  1  0
 40 41  1  0
 40 42  1  0
 40 43  1  0
  9  4  1  0
 20 15  1  0
 26  6  1  0
 39 34  1  0
M  END
$$$$
