
     RDKit          3D

 43 46  0  0  0  0  0  0  0  0999 V2000
  -19.4991  -47.1181   -4.5924 C   0  0  0  0  0  0  0  0  0  0  0  0
  -20.4882  -46.1551   -4.4732 O   0  0  0  0  0  0  0  0  0  0  0  0
  -19.9587  -44.8754   -4.3259 C   0  0  0  0  0  0  0  0  0  0  0  0
  -20.1056  -44.0735   -5.5675 C   0  0  0  0  0  0  0  0  0  0  0  0
  -21.3019  -43.8714   -6.1892 C   0  0  0  0  0  0  0  0  0  0  0  0
  -21.4577  -43.1062   -7.3793 C   0  0  0  0  0  0  0  0  0  0  0  0
  -20.3470  -42.5312   -7.9565 C   0  0  0  0  0  0  0  0  0  0  0  0
  -19.1224  -42.7085   -7.3573 C   0  0  0  0  0  0  0  0  0  0  0  0
  -19.0283  -43.4802   -6.1714 C   0  0  0  0  0  0  0  0  0  0  0  0
  -17.7839  -42.1832   -7.7052 C   0  0  0  0  0  0  0  0  0  0  0  0
  -16.7443  -42.9918   -7.5051 O   0  0  0  0  0  0  0  0  0  0  0  0
  -17.3424  -40.9635   -8.2234 N   0  0  0  0  0  0  0  0  0  0  0  0
  -17.5976  -39.6062   -7.8974 C   0  0  1  0  0  0  0  0  0  0  0  0
  -18.6536  -39.2868   -6.9079 C   0  0  0  0  0  0  0  0  0  0  0  0
  -19.8019  -38.5139   -7.4884 C   0  0  0  0  0  0  0  0  0  0  0  0
  -21.0001  -38.9525   -7.9817 C   0  0  0  0  0  0  0  0  0  0  0  0
  -21.8710  -38.0060   -8.5052 C   0  0  0  0  0  0  0  0  0  0  0  0
  -21.5398  -36.6514   -8.5241 C   0  0  0  0  0  0  0  0  0  0  0  0
  -20.3438  -36.1741   -8.0350 C   0  0  0  0  0  0  0  0  0  0  0  0
  -19.5058  -37.1322   -7.5286 C   0  0  0  0  0  0  0  0  0  0  0  0
  -23.1307  -38.2076   -9.0666 O   0  0  0  0  0  0  0  0  0  0  0  0
  -23.6292  -38.9857  -10.1083 C   0  0  0  0  0  0  0  0  0  0  0  0
  -24.4271  -40.1415   -9.5395 C   0  0  0  0  0  0  0  0  0  0  0  0
  -23.5963  -41.4134   -9.4295 C   0  0  0  0  0  0  0  0  0  0  0  0
  -23.7164  -41.9239   -8.0171 C   0  0  0  0  0  0  0  0  0  0  0  0
  -22.8438  -43.0413   -7.7278 N   0  0  0  0  0  0  0  0  0  0  0  0
  -16.2432  -38.8773   -7.5930 C   0  0  2  0  0  0  0  0  0  0  0  0
  -16.6070  -37.5224   -7.8560 O   0  0  0  0  0  0  0  0  0  0  0  0
  -15.2169  -39.2421   -8.5826 C   0  0  0  0  0  0  0  0  0  0  0  0
  -14.6218  -40.5212   -8.5142 N   0  0  0  0  0  0  0  0  0  0  0  0
  -13.6948  -40.9078   -9.5051 C   0  0  0  0  0  0  0  0  0  0  0  0
  -13.5777  -40.1164  -10.7478 C   0  0  0  0  0  0  0  0  0  0  0  0
  -12.3039  -40.8713   -8.8355 C   0  0  0  0  0  0  0  0  0  0  0  0
  -13.8656  -42.3468   -9.9188 C   0  0  0  0  0  0  0  0  0  0  0  0
  -15.0193  -42.7239  -10.5709 C   0  0  0  0  0  0  0  0  0  0  0  0
  -15.2475  -44.0126  -10.9960 C   0  0  0  0  0  0  0  0  0  0  0  0
  -14.2659  -44.9742  -10.7553 C   0  0  0  0  0  0  0  0  0  0  0  0
  -13.1235  -44.5686  -10.1014 C   0  0  0  0  0  0  0  0  0  0  0  0
  -12.9365  -43.2876   -9.6970 N   0  0  0  0  0  0  0  0  0  0  0  0
  -16.4951  -44.4260  -11.6750 C   0  0  0  0  0  0  0  0  0  0  0  0
  -16.2969  -45.5463  -12.6547 C   0  0  0  0  0  0  0  0  0  0  0  0
  -17.4906  -44.8754  -10.6033 C   0  0  0  0  0  0  0  0  0  0  0  0
  -17.0758  -43.2544  -12.4314 C   0  0  0  0  0  0  0  0  0  0  0  0
  1  2  1  0
  2  3  1  0
  3  4  1  0
  4  5  2  0
  5  6  1  0
  6  7  2  0
  7  8  1  0
  8  9  2  0
  8 10  1  0
 10 11  2  0
 10 12  1  0
 12 13  1  0
 13 14  1  1
 14 15  1  0
 15 16  2  0
 16 17  1  0
 17 18  2  0
 18 19  1  0
 19 20  2  0
 17 21  1  0
 21 22  1  0
 22 23  1  0
 23 24  1  0
 24 25  1  0
 25 26  1  0
 13 27  1  0
 27 28  1  6
 27 29  1  0
 29 30  1  0
 30 31  1  0
 31 32  1  0
 31 33  1  0
 31 34  1  0
 34 35  2  0
 35 36  1  0
 36 37  2  0
 37 38  1  0
 38 39  2  0
 36 40  1  0
 40 41  1  0
 40 42  1  0
 40 43  1  0
  9  4  1  0
 20 15  1  0
 26  6  1  0
 39 34  1  0
M  END
$$$$
