
     RDKit          3D

 43 46  0  0  0  0  0  0  0  0999 V2000
  -16.6929  -45.9464   -9.3667 C   0  0  0  0  0  0  0  0  0  0  0  0
  -17.1392  -45.9973  -10.6774 O   0  0  0  0  0  0  0  0  0  0  0  0
  -17.8434  -44.8505  -11.0361 C   0  0  0  0  0  0  0  0  0  0  0  0
  -17.0917  -43.6151  -10.6965 C   0  0  0  0  0  0  0  0  0  0  0  0
  -16.0558  -43.1414  -11.4452 C   0  0  0  0  0  0  0  0  0  0  0  0
  -15.3262  -41.9599  -11.1319 C   0  0  0  0  0  0  0  0  0  0  0  0
  -15.6669  -41.2404  -10.0079 C   0  0  0  0  0  0  0  0  0  0  0  0
  -16.7092  -41.6834   -9.2285 C   0  0  0  0  0  0  0  0  0  0  0  0
  -17.4008  -42.8670   -9.5911 C   0  0  0  0  0  0  0  0  0  0  0  0
  -17.3290  -41.1085   -8.0144 C   0  0  0  0  0  0  0  0  0  0  0  0
  -17.7407  -41.9645   -7.0803 O   0  0  0  0  0  0  0  0  0  0  0  0
  -17.5943  -39.7991   -7.6069 N   0  0  0  0  0  0  0  0  0  0  0  0
  -18.1962  -38.6769   -8.2330 C   0  0  1  0  0  0  0  0  0  0  0  0
  -18.5216  -38.7434   -9.6772 C   0  0  0  0  0  0  0  0  0  0  0  0
  -17.7460  -37.7646  -10.5099 C   0  0  0  0  0  0  0  0  0  0  0  0
  -16.5800  -37.9291  -11.2063 C   0  0  0  0  0  0  0  0  0  0  0  0
  -16.0558  -36.8234  -11.8628 C   0  0  0  0  0  0  0  0  0  0  0  0
  -16.6974  -35.5859  -11.8196 C   0  0  0  0  0  0  0  0  0  0  0  0
  -17.8727  -35.3843  -11.1302 C   0  0  0  0  0  0  0  0  0  0  0  0
  -18.3624  -36.4926  -10.4911 C   0  0  0  0  0  0  0  0  0  0  0  0
  -14.8893  -36.7415  -12.6213 O   0  0  0  0  0  0  0  0  0  0  0  0
  -13.5451  -37.0217  -12.3900 C   0  0  0  0  0  0  0  0  0  0  0  0
  -13.1549  -38.2808  -13.1375 C   0  0  0  0  0  0  0  0  0  0  0  0
  -13.2224  -39.5183  -12.2519 C   0  0  0  0  0  0  0  0  0  0  0  0
  -14.0699  -40.5456  -12.9562 C   0  0  0  0  0  0  0  0  0  0  0  0
  -14.3532  -41.7145  -12.1516 N   0  0  0  0  0  0  0  0  0  0  0  0
  -19.4013  -38.1764   -7.3639 C   0  0  2  0  0  0  0  0  0  0  0  0
  -19.0481  -36.8048   -7.1867 O   0  0  0  0  0  0  0  0  0  0  0  0
  -19.3797  -38.7970   -6.0297 C   0  0  0  0  0  0  0  0  0  0  0  0
  -19.7051  -40.1657   -5.9044 N   0  0  0  0  0  0  0  0  0  0  0  0
  -20.3429  -40.6215   -4.7313 C   0  0  0  0  0  0  0  0  0  0  0  0
  -19.5888  -41.4379   -3.7571 C   0  0  0  0  0  0  0  0  0  0  0  0
  -20.8072  -39.3597   -3.9720 C   0  0  0  0  0  0  0  0  0  0  0  0
  -21.6209  -41.3639   -5.0259 C   0  0  0  0  0  0  0  0  0  0  0  0
  -21.6459  -42.2682   -6.0650 C   0  0  0  0  0  0  0  0  0  0  0  0
  -22.7660  -42.9983   -6.3905 C   0  0  0  0  0  0  0  0  0  0  0  0
  -23.9225  -42.8121   -5.6328 C   0  0  0  0  0  0  0  0  0  0  0  0
  -23.8682  -41.9016   -4.6007 C   0  0  0  0  0  0  0  0  0  0  0  0
  -22.7438  -41.2002   -4.3120 N   0  0  0  0  0  0  0  0  0  0  0  0
  -22.8033  -43.9524   -7.5203 C   0  0  0  0  0  0  0  0  0  0  0  0
  -23.9789  -44.8852   -7.4736 C   0  0  0  0  0  0  0  0  0  0  0  0
  -22.8626  -43.1457   -8.8193 C   0  0  0  0  0  0  0  0  0  0  0  0
  -21.5500  -44.7956   -7.5168 C   0  0  0  0  0  0  0  0  0  0  0  0
  1  2  1  0
  2  3  1  0
  3  4  1  0
  4  5  2  0
  5  6  1  0
  6  7  2  0
  7  8  1  0
  8  9  2  0
  8 10  1  0
 10 11  2  0
 10 12  1  0
 12 13  1  0
 13 14  1  6
 14 15  1  0
 15 16  2  0
 16 17  1  0
 17 18  2  0
 18 19  1  0
 19 20  2  0
 17 21  1  0
 21 22  1  0
 22 23  1  0
 23 24  1  0
 24 25  1  0
 25 26  1  0
 13 27  1  0
 27 28  1  1
 27 29  1  0
 29 30  1  0
 30 31  1  0
 31 32  1  0
 31 33  1  0
 31 34  1  0
 34 35  2  0
 35 36  1  0
 36 37  2  0
 37 38  1  0
 38 39  2  0
 36 40  1  0
 40 41  1  0
 40 42  1  0
 40 43  1  0
  9  4  1  0
 20 15  1  0
 26  6  1  0
 39 34  1  0
M  END
$$$$
