
     RDKit          3D

 43 46  0  0  0  0  0  0  0  0999 V2000
  -22.3791  -43.0012   -3.9613 C   0  0  0  0  0  0  0  0  0  0  0  0
  -22.9636  -42.1945   -4.9243 O   0  0  0  0  0  0  0  0  0  0  0  0
  -22.3705  -40.9358   -4.9839 C   0  0  0  0  0  0  0  0  0  0  0  0
  -21.7826  -40.6679   -6.3215 C   0  0  0  0  0  0  0  0  0  0  0  0
  -22.4827  -40.1027   -7.3456 C   0  0  0  0  0  0  0  0  0  0  0  0
  -21.9330  -39.8408   -8.6323 C   0  0  0  0  0  0  0  0  0  0  0  0
  -20.6199  -40.1748   -8.8806 C   0  0  0  0  0  0  0  0  0  0  0  0
  -19.8789  -40.7434   -7.8718 C   0  0  0  0  0  0  0  0  0  0  0  0
  -20.4798  -40.9796   -6.6093 C   0  0  0  0  0  0  0  0  0  0  0  0
  -18.4589  -41.1551   -7.8210 C   0  0  0  0  0  0  0  0  0  0  0  0
  -18.1714  -42.2576   -7.1307 O   0  0  0  0  0  0  0  0  0  0  0  0
  -17.2893  -40.6173   -8.3631 N   0  0  0  0  0  0  0  0  0  0  0  0
  -16.7286  -39.3140   -8.3949 C   0  0  1  0  0  0  0  0  0  0  0  0
  -17.5337  -38.1689   -7.9084 C   0  0  0  0  0  0  0  0  0  0  0  0
  -17.8600  -37.1701   -8.9803 C   0  0  0  0  0  0  0  0  0  0  0  0
  -18.9699  -37.0576   -9.7721 C   0  0  0  0  0  0  0  0  0  0  0  0
  -18.9858  -36.0487  -10.7261 C   0  0  0  0  0  0  0  0  0  0  0  0
  -17.9091  -35.1741  -10.8712 C   0  0  0  0  0  0  0  0  0  0  0  0
  -16.7770  -35.2569  -10.0909 C   0  0  0  0  0  0  0  0  0  0  0  0
  -16.7907  -36.2636   -9.1620 C   0  0  0  0  0  0  0  0  0  0  0  0
  -19.9889  -35.7434  -11.6445 O   0  0  0  0  0  0  0  0  0  0  0  0
  -20.6612  -36.4517  -12.6370 C   0  0  0  0  0  0  0  0  0  0  0  0
  -22.0788  -36.7360  -12.1836 C   0  0  0  0  0  0  0  0  0  0  0  0
  -22.2169  -38.1214  -11.5657 C   0  0  0  0  0  0  0  0  0  0  0  0
  -22.8675  -37.9634  -10.2161 C   0  0  0  0  0  0  0  0  0  0  0  0
  -22.9117  -39.1878   -9.4463 N   0  0  0  0  0  0  0  0  0  0  0  0
  -15.2890  -39.3482   -7.7748 C   0  0  2  0  0  0  0  0  0  0  0  0
  -14.8295  -38.0367   -8.1005 O   0  0  0  0  0  0  0  0  0  0  0  0
  -14.4268  -40.2938   -8.5014 C   0  0  0  0  0  0  0  0  0  0  0  0
  -14.8983  -41.6022   -8.7476 N   0  0  0  0  0  0  0  0  0  0  0  0
  -14.4852  -42.6571   -7.9065 C   0  0  0  0  0  0  0  0  0  0  0  0
  -13.3087  -43.4715   -8.2764 C   0  0  0  0  0  0  0  0  0  0  0  0
  -14.1578  -42.0186   -6.5393 C   0  0  0  0  0  0  0  0  0  0  0  0
  -15.6044  -43.6199   -7.6037 C   0  0  0  0  0  0  0  0  0  0  0  0
  -16.2258  -44.2735   -8.6453 C   0  0  0  0  0  0  0  0  0  0  0  0
  -17.2443  -45.1791   -8.4548 C   0  0  0  0  0  0  0  0  0  0  0  0
  -17.6612  -45.4438   -7.1501 C   0  0  0  0  0  0  0  0  0  0  0  0
  -17.0221  -44.7756   -6.1291 C   0  0  0  0  0  0  0  0  0  0  0  0
  -16.0219  -43.8888   -6.3584 N   0  0  0  0  0  0  0  0  0  0  0  0
  -17.9298  -45.8646   -9.5721 C   0  0  0  0  0  0  0  0  0  0  0  0
  -18.9121  -46.9058   -9.1191 C   0  0  0  0  0  0  0  0  0  0  0  0
  -18.6717  -44.8072  -10.3924 C   0  0  0  0  0  0  0  0  0  0  0  0
  -16.9105  -46.5496  -10.4517 C   0  0  0  0  0  0  0  0  0  0  0  0
  1  2  1  0
  2  3  1  0
  3  4  1  0
  4  5  2  0
  5  6  1  0
  6  7  2  0
  7  8  1  0
  8  9  2  0
  8 10  1  0
 10 11  2  0
 10 12  1  0
 12 13  1  0
 13 14  1  1
 14 15  1  0
 15 16  2  0
 16 17  1  0
 17 18  2  0
 18 19  1  0
 19 20  2  0
 17 21  1  0
 21 22  1  0
 22 23  1  0
 23 24  1  0
 24 25  1  0
 25 26  1  0
 13 27  1  0
 27 28  1  6
 27 29  1  0
 29 30  1  0
 30 31  1  0
 31 32  1  0
 31 33  1  0
 31 34  1  0
 34 35  2  0
 35 36  1  0
 36 37  2  0
 37 38  1  0
 38 39  2  0
 36 40  1  0
 40 41  1  0
 40 42  1  0
 40 43  1  0
  9  4  1  0
 20 15  1  0
 26  6  1  0
 39 34  1  0
M  END
$$$$
