
     RDKit          3D

 43 46  0  0  0  0  0  0  0  0999 V2000
  -14.6005  -45.6577  -11.9475 C   0  0  0  0  0  0  0  0  0  0  0  0
  -14.6302  -44.9559  -13.1417 O   0  0  0  0  0  0  0  0  0  0  0  0
  -15.3923  -43.7939  -13.0479 C   0  0  0  0  0  0  0  0  0  0  0  0
  -14.6607  -42.7124  -12.3397 C   0  0  0  0  0  0  0  0  0  0  0  0
  -13.6271  -42.0203  -12.8974 C   0  0  0  0  0  0  0  0  0  0  0  0
  -12.9167  -40.9824  -12.2309 C   0  0  0  0  0  0  0  0  0  0  0  0
  -13.2746  -40.6446  -10.9444 C   0  0  0  0  0  0  0  0  0  0  0  0
  -14.3151  -41.3169  -10.3481 C   0  0  0  0  0  0  0  0  0  0  0  0
  -14.9873  -42.3414  -11.0618 C   0  0  0  0  0  0  0  0  0  0  0  0
  -14.9505  -41.1478   -9.0229 C   0  0  0  0  0  0  0  0  0  0  0  0
  -15.3554  -42.2530   -8.3990 O   0  0  0  0  0  0  0  0  0  0  0  0
  -15.2372  -40.0287   -8.2377 N   0  0  0  0  0  0  0  0  0  0  0  0
  -15.8515  -38.7762   -8.4974 C   0  0  1  0  0  0  0  0  0  0  0  0
  -16.1671  -38.4023   -9.8962 C   0  0  0  0  0  0  0  0  0  0  0  0
  -15.4007  -37.2067  -10.3823 C   0  0  0  0  0  0  0  0  0  0  0  0
  -14.2283  -37.1367  -11.0837 C   0  0  0  0  0  0  0  0  0  0  0  0
  -13.7161  -35.8772  -11.3659 C   0  0  0  0  0  0  0  0  0  0  0  0
  -14.3759  -34.7197  -10.9535 C   0  0  0  0  0  0  0  0  0  0  0  0
  -15.5582  -34.7524  -10.2475 C   0  0  0  0  0  0  0  0  0  0  0  0
  -16.0356  -36.0087   -9.9824 C   0  0  0  0  0  0  0  0  0  0  0  0
  -12.5464  -35.5535  -12.0512 O   0  0  0  0  0  0  0  0  0  0  0  0
  -11.1997  -35.8750  -11.9029 C   0  0  0  0  0  0  0  0  0  0  0  0
  -10.7868  -36.8408  -12.9950 C   0  0  0  0  0  0  0  0  0  0  0  0
  -10.8417  -38.2904  -12.5303 C   0  0  0  0  0  0  0  0  0  0  0  0
  -11.6700  -39.0635  -13.5233 C   0  0  0  0  0  0  0  0  0  0  0  0
  -11.9411  -40.4256  -13.1169 N   0  0  0  0  0  0  0  0  0  0  0  0
  -17.0690  -38.5795   -7.5293 C   0  0  2  0  0  0  0  0  0  0  0  0
  -16.3908  -38.2991   -6.3050 O   0  0  0  0  0  0  0  0  0  0  0  0
  -17.7940  -39.8451   -7.3339 C   0  0  0  0  0  0  0  0  0  0  0  0
  -18.4299  -40.4494   -8.4409 N   0  0  0  0  0  0  0  0  0  0  0  0
  -19.4186  -41.4316   -8.2207 C   0  0  0  0  0  0  0  0  0  0  0  0
  -20.3006  -41.8456   -9.3320 C   0  0  0  0  0  0  0  0  0  0  0  0
  -18.6720  -42.7033   -7.7631 C   0  0  0  0  0  0  0  0  0  0  0  0
  -20.3136  -41.0922   -7.0567 C   0  0  0  0  0  0  0  0  0  0  0  0
  -21.1865  -40.0322   -7.1697 C   0  0  0  0  0  0  0  0  0  0  0  0
  -22.0480  -39.6657   -6.1611 C   0  0  0  0  0  0  0  0  0  0  0  0
  -22.0338  -40.4021   -4.9763 C   0  0  0  0  0  0  0  0  0  0  0  0
  -21.1508  -41.4559   -4.8917 C   0  0  0  0  0  0  0  0  0  0  0  0
  -20.3163  -41.7851   -5.9089 N   0  0  0  0  0  0  0  0  0  0  0  0
  -22.9694  -38.5136   -6.2700 C   0  0  0  0  0  0  0  0  0  0  0  0
  -24.2887  -38.8633   -6.8957 C   0  0  0  0  0  0  0  0  0  0  0  0
  -23.2178  -37.9713   -4.8609 C   0  0  0  0  0  0  0  0  0  0  0  0
  -22.3357  -37.4323   -7.1132 C   0  0  0  0  0  0  0  0  0  0  0  0
  1  2  1  0
  2  3  1  0
  3  4  1  0
  4  5  2  0
  5  6  1  0
  6  7  2  0
  7  8  1  0
  8  9  2  0
  8 10  1  0
 10 11  2  0
 10 12  1  0
 12 13  1  0
 13 14  1  6
 14 15  1  0
 15 16  2  0
 16 17  1  0
 17 18  2  0
 18 19  1  0
 19 20  2  0
 17 21  1  0
 21 22  1  0
 22 23  1  0
 23 24  1  0
 24 25  1  0
 25 26  1  0
 13 27  1  0
 27 28  1  1
 27 29  1  0
 29 30  1  0
 30 31  1  0
 31 32  1  0
 31 33  1  0
 31 34  1  0
 34 35  2  0
 35 36  1  0
 36 37  2  0
 37 38  1  0
 38 39  2  0
 36 40  1  0
 40 41  1  0
 40 42  1  0
 40 43  1  0
  9  4  1  0
 20 15  1  0
 26  6  1  0
 39 34  1  0
M  END
$$$$
