
     RDKit          3D

 43 46  0  0  0  0  0  0  0  0999 V2000
  -21.0051  -48.0702   -4.9788 C   0  0  0  0  0  0  0  0  0  0  0  0
  -20.0582  -47.0722   -5.1442 O   0  0  0  0  0  0  0  0  0  0  0  0
  -20.5620  -45.8137   -4.8249 C   0  0  0  0  0  0  0  0  0  0  0  0
  -20.4071  -44.8576   -5.9511 C   0  0  0  0  0  0  0  0  0  0  0  0
  -21.3857  -44.6209   -6.8701 C   0  0  0  0  0  0  0  0  0  0  0  0
  -21.2512  -43.7085   -7.9544 C   0  0  0  0  0  0  0  0  0  0  0  0
  -20.0694  -43.0172   -8.1058 C   0  0  0  0  0  0  0  0  0  0  0  0
  -19.0592  -43.2253   -7.1968 C   0  0  0  0  0  0  0  0  0  0  0  0
  -19.2509  -44.1460   -6.1355 C   0  0  0  0  0  0  0  0  0  0  0  0
  -17.7220  -42.6053   -7.0694 C   0  0  0  0  0  0  0  0  0  0  0  0
  -16.7247  -43.3917   -6.6678 O   0  0  0  0  0  0  0  0  0  0  0  0
  -17.2460  -41.3102   -7.2866 N   0  0  0  0  0  0  0  0  0  0  0  0
  -17.6885  -40.0206   -6.8932 C   0  0  1  0  0  0  0  0  0  0  0  0
  -19.0060  -39.8800   -6.2295 C   0  0  0  0  0  0  0  0  0  0  0  0
  -19.9949  -39.0817   -7.0281 C   0  0  0  0  0  0  0  0  0  0  0  0
  -20.9628  -39.4966   -7.9014 C   0  0  0  0  0  0  0  0  0  0  0  0
  -21.7167  -38.5233   -8.5435 C   0  0  0  0  0  0  0  0  0  0  0  0
  -21.5001  -37.1665   -8.3041 C   0  0  0  0  0  0  0  0  0  0  0  0
  -20.5361  -36.7128   -7.4309 C   0  0  0  0  0  0  0  0  0  0  0  0
  -19.8078  -37.6967   -6.8161 C   0  0  0  0  0  0  0  0  0  0  0  0
  -22.7420  -38.6968   -9.4717 O   0  0  0  0  0  0  0  0  0  0  0  0
  -22.8577  -39.3459  -10.6981 C   0  0  0  0  0  0  0  0  0  0  0  0
  -23.6935  -40.5986  -10.5306 C   0  0  0  0  0  0  0  0  0  0  0  0
  -22.8336  -41.8399  -10.3306 C   0  0  0  0  0  0  0  0  0  0  0  0
  -23.3153  -42.5410   -9.0872 C   0  0  0  0  0  0  0  0  0  0  0  0
  -22.4790  -43.6519   -8.6865 N   0  0  0  0  0  0  0  0  0  0  0  0
  -16.5398  -39.2866   -6.1188 C   0  0  2  0  0  0  0  0  0  0  0  0
  -16.9017  -37.9235   -6.3382 O   0  0  0  0  0  0  0  0  0  0  0  0
  -15.2429  -39.4947   -6.7825 C   0  0  0  0  0  0  0  0  0  0  0  0
  -15.0072  -38.8841   -8.0342 N   0  0  0  0  0  0  0  0  0  0  0  0
  -14.3816  -39.6247   -9.0593 C   0  0  0  0  0  0  0  0  0  0  0  0
  -12.9063  -39.6839   -9.1249 C   0  0  0  0  0  0  0  0  0  0  0  0
  -14.8670  -41.0818   -8.8995 C   0  0  0  0  0  0  0  0  0  0  0  0
  -14.8635  -39.2252  -10.4302 C   0  0  0  0  0  0  0  0  0  0  0  0
  -15.6254  -38.0854  -10.5665 C   0  0  0  0  0  0  0  0  0  0  0  0
  -16.0919  -37.6421  -11.7829 C   0  0  0  0  0  0  0  0  0  0  0  0
  -15.7766  -38.3810  -12.9234 C   0  0  0  0  0  0  0  0  0  0  0  0
  -15.0140  -39.5158  -12.7568 C   0  0  0  0  0  0  0  0  0  0  0  0
  -14.5737  -39.9202  -11.5394 N   0  0  0  0  0  0  0  0  0  0  0  0
  -16.9300  -36.4322  -11.9298 C   0  0  0  0  0  0  0  0  0  0  0  0
  -18.1005  -36.4007  -10.9900 C   0  0  0  0  0  0  0  0  0  0  0  0
  -16.0482  -35.2103  -11.6637 C   0  0  0  0  0  0  0  0  0  0  0  0
  -17.4719  -36.3556  -13.3378 C   0  0  0  0  0  0  0  0  0  0  0  0
  1  2  1  0
  2  3  1  0
  3  4  1  0
  4  5  2  0
  5  6  1  0
  6  7  2  0
  7  8  1  0
  8  9  2  0
  8 10  1  0
 10 11  2  0
 10 12  1  0
 12 13  1  0
 13 14  1  1
 14 15  1  0
 15 16  2  0
 16 17  1  0
 17 18  2  0
 18 19  1  0
 19 20  2  0
 17 21  1  0
 21 22  1  0
 22 23  1  0
 23 24  1  0
 24 25  1  0
 25 26  1  0
 13 27  1  0
 27 28  1  6
 27 29  1  0
 29 30  1  0
 30 31  1  0
 31 32  1  0
 31 33  1  0
 31 34  1  0
 34 35  2  0
 35 36  1  0
 36 37  2  0
 37 38  1  0
 38 39  2  0
 36 40  1  0
 40 41  1  0
 40 42  1  0
 40 43  1  0
  9  4  1  0
 20 15  1  0
 26  6  1  0
 39 34  1  0
M  END
$$$$
