
     RDKit          3D

 43 46  0  0  0  0  0  0  0  0999 V2000
  -18.5067  -48.9654   -8.1572 C   0  0  0  0  0  0  0  0  0  0  0  0
  -17.6557  -47.8838   -7.9966 O   0  0  0  0  0  0  0  0  0  0  0  0
  -18.0373  -47.0702   -6.9326 C   0  0  0  0  0  0  0  0  0  0  0  0
  -18.7679  -45.8634   -7.3979 C   0  0  0  0  0  0  0  0  0  0  0  0
  -20.1269  -45.7591   -7.3785 C   0  0  0  0  0  0  0  0  0  0  0  0
  -20.8404  -44.6097   -7.8214 C   0  0  0  0  0  0  0  0  0  0  0  0
  -20.1363  -43.5299   -8.3068 C   0  0  0  0  0  0  0  0  0  0  0  0
  -18.7633  -43.5946   -8.3390 C   0  0  0  0  0  0  0  0  0  0  0  0
  -18.1067  -44.7657   -7.8829 C   0  0  0  0  0  0  0  0  0  0  0  0
  -17.7516  -42.5961   -8.7489 C   0  0  0  0  0  0  0  0  0  0  0  0
  -16.6688  -43.0525   -9.3766 O   0  0  0  0  0  0  0  0  0  0  0  0
  -17.6729  -41.2077   -8.6172 N   0  0  0  0  0  0  0  0  0  0  0  0
  -17.8658  -40.3098   -7.5355 C   0  0  1  0  0  0  0  0  0  0  0  0
  -18.4114  -40.8246   -6.2574 C   0  0  0  0  0  0  0  0  0  0  0  0
  -19.7536  -40.2512   -5.9070 C   0  0  0  0  0  0  0  0  0  0  0  0
  -21.0096  -40.7400   -6.1415 C   0  0  0  0  0  0  0  0  0  0  0  0
  -22.0912  -39.9668   -5.7410 C   0  0  0  0  0  0  0  0  0  0  0  0
  -21.9061  -38.7341   -5.1153 C   0  0  0  0  0  0  0  0  0  0  0  0
  -20.6569  -38.2119   -4.8620 C   0  0  0  0  0  0  0  0  0  0  0  0
  -19.6114  -38.9966   -5.2714 C   0  0  0  0  0  0  0  0  0  0  0  0
  -23.4501  -40.2449   -5.8774 O   0  0  0  0  0  0  0  0  0  0  0  0
  -24.2883  -40.5492   -6.9468 C   0  0  0  0  0  0  0  0  0  0  0  0
  -24.6703  -42.0145   -6.8893 C   0  0  0  0  0  0  0  0  0  0  0  0
  -23.7784  -42.8754   -7.7744 C   0  0  0  0  0  0  0  0  0  0  0  0
  -23.2365  -43.9999   -6.9308 C   0  0  0  0  0  0  0  0  0  0  0  0
  -22.2412  -44.8044   -7.6063 N   0  0  0  0  0  0  0  0  0  0  0  0
  -16.5735  -39.4445   -7.3366 C   0  0  2  0  0  0  0  0  0  0  0  0
  -17.1496  -38.1666   -7.0674 O   0  0  0  0  0  0  0  0  0  0  0  0
  -15.8274  -39.3176   -8.5987 C   0  0  0  0  0  0  0  0  0  0  0  0
  -15.2420  -40.4698   -9.1684 N   0  0  0  0  0  0  0  0  0  0  0  0
  -14.0360  -40.3490   -9.8908 C   0  0  0  0  0  0  0  0  0  0  0  0
  -12.7613  -40.1712   -9.1643 C   0  0  0  0  0  0  0  0  0  0  0  0
  -13.8897  -41.6491  -10.7108 C   0  0  0  0  0  0  0  0  0  0  0  0
  -14.0992  -39.2624  -10.9331 C   0  0  0  0  0  0  0  0  0  0  0  0
  -13.3347  -38.1285  -10.7659 C   0  0  0  0  0  0  0  0  0  0  0  0
  -13.3223  -37.0973  -11.6771 C   0  0  0  0  0  0  0  0  0  0  0  0
  -14.1183  -37.2098  -12.8172 C   0  0  0  0  0  0  0  0  0  0  0  0
  -14.8720  -38.3542  -12.9575 C   0  0  0  0  0  0  0  0  0  0  0  0
  -14.8574  -39.3487  -12.0355 N   0  0  0  0  0  0  0  0  0  0  0  0
  -12.5211  -35.8681  -11.4889 C   0  0  0  0  0  0  0  0  0  0  0  0
  -11.1191  -36.1364  -11.0234 C   0  0  0  0  0  0  0  0  0  0  0  0
  -12.4656  -35.1297  -12.8280 C   0  0  0  0  0  0  0  0  0  0  0  0
  -13.1826  -34.9812  -10.4605 C   0  0  0  0  0  0  0  0  0  0  0  0
  1  2  1  0
  2  3  1  0
  3  4  1  0
  4  5  2  0
  5  6  1  0
  6  7  2  0
  7  8  1  0
  8  9  2  0
  8 10  1  0
 10 11  2  0
 10 12  1  0
 12 13  1  0
 13 14  1  1
 14 15  1  0
 15 16  2  0
 16 17  1  0
 17 18  2  0
 18 19  1  0
 19 20  2  0
 17 21  1  0
 21 22  1  0
 22 23  1  0
 23 24  1  0
 24 25  1  0
 25 26  1  0
 13 27  1  0
 27 28  1  6
 27 29  1  0
 29 30  1  0
 30 31  1  0
 31 32  1  0
 31 33  1  0
 31 34  1  0
 34 35  2  0
 35 36  1  0
 36 37  2  0
 37 38  1  0
 38 39  2  0
 36 40  1  0
 40 41  1  0
 40 42  1  0
 40 43  1  0
  9  4  1  0
 20 15  1  0
 26  6  1  0
 39 34  1  0
M  END
$$$$
