
     RDKit          3D

 43 46  0  0  0  0  0  0  0  0999 V2000
  -19.8120  -42.5763   -1.6812 C   0  0  0  0  0  0  0  0  0  0  0  0
  -20.9546  -42.9346   -2.3781 O   0  0  0  0  0  0  0  0  0  0  0  0
  -20.7084  -43.9455   -3.3040 C   0  0  0  0  0  0  0  0  0  0  0  0
  -20.6389  -43.4162   -4.6902 C   0  0  0  0  0  0  0  0  0  0  0  0
  -21.7026  -43.4128   -5.5428 C   0  0  0  0  0  0  0  0  0  0  0  0
  -21.6506  -42.9097   -6.8734 C   0  0  0  0  0  0  0  0  0  0  0  0
  -20.4646  -42.3961   -7.3497 C   0  0  0  0  0  0  0  0  0  0  0  0
  -19.3694  -42.3781   -6.5188 C   0  0  0  0  0  0  0  0  0  0  0  0
  -19.4810  -42.8920   -5.2019 C   0  0  0  0  0  0  0  0  0  0  0  0
  -18.0011  -41.8541   -6.7238 C   0  0  0  0  0  0  0  0  0  0  0  0
  -16.9998  -42.5440   -6.1797 O   0  0  0  0  0  0  0  0  0  0  0  0
  -17.4973  -40.7377   -7.3952 N   0  0  0  0  0  0  0  0  0  0  0  0
  -17.8380  -39.3602   -7.4066 C   0  0  1  0  0  0  0  0  0  0  0  0
  -19.0664  -38.9137   -6.7082 C   0  0  0  0  0  0  0  0  0  0  0  0
  -20.1030  -38.3408   -7.6303 C   0  0  0  0  0  0  0  0  0  0  0  0
  -21.1787  -38.9387   -8.2277 C   0  0  0  0  0  0  0  0  0  0  0  0
  -21.9571  -38.1683   -9.0813 C   0  0  0  0  0  0  0  0  0  0  0  0
  -21.6575  -36.8272   -9.3198 C   0  0  0  0  0  0  0  0  0  0  0  0
  -20.5840  -36.1924   -8.7348 C   0  0  0  0  0  0  0  0  0  0  0  0
  -19.8345  -36.9796   -7.9011 C   0  0  0  0  0  0  0  0  0  0  0  0
  -23.0856  -38.5515   -9.8041 O   0  0  0  0  0  0  0  0  0  0  0  0
  -23.3644  -39.5490  -10.7347 C   0  0  0  0  0  0  0  0  0  0  0  0
  -24.2291  -40.6140  -10.0911 C   0  0  0  0  0  0  0  0  0  0  0  0
  -23.4061  -41.7874   -9.5754 C   0  0  0  0  0  0  0  0  0  0  0  0
  -23.7761  -42.0133   -8.1325 C   0  0  0  0  0  0  0  0  0  0  0  0
  -22.9486  -42.9974   -7.4686 N   0  0  0  0  0  0  0  0  0  0  0  0
  -16.5801  -38.5066   -7.0231 C   0  0  2  0  0  0  0  0  0  0  0  0
  -17.0481  -37.1934   -7.3292 O   0  0  0  0  0  0  0  0  0  0  0  0
  -15.4599  -38.7828   -7.9367 C   0  0  0  0  0  0  0  0  0  0  0  0
  -14.9929  -40.1093   -8.0681 N   0  0  0  0  0  0  0  0  0  0  0  0
  -13.9472  -40.3891   -8.9731 C   0  0  0  0  0  0  0  0  0  0  0  0
  -12.6841  -40.9731   -8.4754 C   0  0  0  0  0  0  0  0  0  0  0  0
  -14.5167  -41.3959   -9.9959 C   0  0  0  0  0  0  0  0  0  0  0  0
  -13.5748  -39.1899   -9.8064 C   0  0  0  0  0  0  0  0  0  0  0  0
  -13.7205  -39.2539  -11.1749 C   0  0  0  0  0  0  0  0  0  0  0  0
  -13.4187  -38.1997  -12.0064 C   0  0  0  0  0  0  0  0  0  0  0  0
  -12.9466  -37.0180  -11.4346 C   0  0  0  0  0  0  0  0  0  0  0  0
  -12.8109  -36.9831  -10.0644 C   0  0  0  0  0  0  0  0  0  0  0  0
  -13.1185  -38.0450   -9.2788 N   0  0  0  0  0  0  0  0  0  0  0  0
  -13.5511  -38.2731  -13.4778 C   0  0  0  0  0  0  0  0  0  0  0  0
  -14.9661  -38.1223  -13.9568 C   0  0  0  0  0  0  0  0  0  0  0  0
  -12.7007  -37.1558  -14.0859 C   0  0  0  0  0  0  0  0  0  0  0  0
  -13.0418  -39.6076  -13.9694 C   0  0  0  0  0  0  0  0  0  0  0  0
  1  2  1  0
  2  3  1  0
  3  4  1  0
  4  5  2  0
  5  6  1  0
  6  7  2  0
  7  8  1  0
  8  9  2  0
  8 10  1  0
 10 11  2  0
 10 12  1  0
 12 13  1  0
 13 14  1  1
 14 15  1  0
 15 16  2  0
 16 17  1  0
 17 18  2  0
 18 19  1  0
 19 20  2  0
 17 21  1  0
 21 22  1  0
 22 23  1  0
 23 24  1  0
 24 25  1  0
 25 26  1  0
 13 27  1  0
 27 28  1  6
 27 29  1  0
 29 30  1  0
 30 31  1  0
 31 32  1  0
 31 33  1  0
 31 34  1  0
 34 35  2  0
 35 36  1  0
 36 37  2  0
 37 38  1  0
 38 39  2  0
 36 40  1  0
 40 41  1  0
 40 42  1  0
 40 43  1  0
  9  4  1  0
 20 15  1  0
 26  6  1  0
 39 34  1  0
M  END
$$$$
