
     RDKit          3D

 43 46  0  0  0  0  0  0  0  0999 V2000
  -21.8294  -45.0603   -6.6181 C   0  0  0  0  0  0  0  0  0  0  0  0
  -22.1336  -43.8441   -7.2082 O   0  0  0  0  0  0  0  0  0  0  0  0
  -21.6303  -43.7496   -8.5034 C   0  0  0  0  0  0  0  0  0  0  0  0
  -20.1541  -43.9125   -8.5327 C   0  0  0  0  0  0  0  0  0  0  0  0
  -19.5308  -44.9698   -9.1257 C   0  0  0  0  0  0  0  0  0  0  0  0
  -18.1179  -45.1394   -9.1611 C   0  0  0  0  0  0  0  0  0  0  0  0
  -17.3144  -44.1941   -8.5626 C   0  0  0  0  0  0  0  0  0  0  0  0
  -17.9051  -43.1102   -7.9571 C   0  0  0  0  0  0  0  0  0  0  0  0
  -19.3183  -42.9936   -7.9544 C   0  0  0  0  0  0  0  0  0  0  0  0
  -17.3167  -41.9285   -7.2894 C   0  0  0  0  0  0  0  0  0  0  0  0
  -17.9544  -41.4564   -6.2194 O   0  0  0  0  0  0  0  0  0  0  0  0
  -16.1818  -41.1549   -7.5440 N   0  0  0  0  0  0  0  0  0  0  0  0
  -15.6489  -40.5439   -8.7087 C   0  0  1  0  0  0  0  0  0  0  0  0
  -16.2614  -40.8406  -10.0251 C   0  0  0  0  0  0  0  0  0  0  0  0
  -15.3364  -41.5552  -10.9667 C   0  0  0  0  0  0  0  0  0  0  0  0
  -15.1930  -42.8927  -11.2160 C   0  0  0  0  0  0  0  0  0  0  0  0
  -14.2128  -43.2821  -12.1191 C   0  0  0  0  0  0  0  0  0  0  0  0
  -13.4029  -42.3424  -12.7565 C   0  0  0  0  0  0  0  0  0  0  0  0
  -13.5202  -40.9886  -12.5309 C   0  0  0  0  0  0  0  0  0  0  0  0
  -14.4934  -40.6370  -11.6334 C   0  0  0  0  0  0  0  0  0  0  0  0
  -13.8750  -44.5720  -12.5252 O   0  0  0  0  0  0  0  0  0  0  0  0
  -13.4876  -45.7384  -11.8708 C   0  0  0  0  0  0  0  0  0  0  0  0
  -14.6255  -46.7385  -11.9031 C   0  0  0  0  0  0  0  0  0  0  0  0
  -15.4620  -46.6976  -10.6308 C   0  0  0  0  0  0  0  0  0  0  0  0
  -16.9050  -46.5319  -11.0309 C   0  0  0  0  0  0  0  0  0  0  0  0
  -17.7961  -46.3139   -9.9118 N   0  0  0  0  0  0  0  0  0  0  0  0
  -15.4692  -39.0067   -8.4578 C   0  0  2  0  0  0  0  0  0  0  0  0
  -14.4171  -39.0173   -7.4933 O   0  0  0  0  0  0  0  0  0  0  0  0
  -16.6528  -38.4419   -7.7901 C   0  0  0  0  0  0  0  0  0  0  0  0
  -17.9114  -38.5439   -8.4230 N   0  0  0  0  0  0  0  0  0  0  0  0
  -19.0759  -38.1871   -7.7106 C   0  0  0  0  0  0  0  0  0  0  0  0
  -19.0369  -38.1075   -6.2353 C   0  0  0  0  0  0  0  0  0  0  0  0
  -19.4761  -36.7819   -8.2100 C   0  0  0  0  0  0  0  0  0  0  0  0
  -20.2551  -39.0541   -8.0696 C   0  0  0  0  0  0  0  0  0  0  0  0
  -21.2552  -39.2428   -7.1410 C   0  0  0  0  0  0  0  0  0  0  0  0
  -22.3722  -40.0058   -7.3935 C   0  0  0  0  0  0  0  0  0  0  0  0
  -22.4930  -40.6111   -8.6446 C   0  0  0  0  0  0  0  0  0  0  0  0
  -21.4779  -40.4053   -9.5526 C   0  0  0  0  0  0  0  0  0  0  0  0
  -20.3915  -39.6462   -9.2647 N   0  0  0  0  0  0  0  0  0  0  0  0
  -23.4361  -40.2299   -6.3906 C   0  0  0  0  0  0  0  0  0  0  0  0
  -23.6019  -39.0859   -5.4324 C   0  0  0  0  0  0  0  0  0  0  0  0
  -24.7538  -40.4446   -7.1383 C   0  0  0  0  0  0  0  0  0  0  0  0
  -23.1195  -41.4639   -5.5789 C   0  0  0  0  0  0  0  0  0  0  0  0
  1  2  1  0
  2  3  1  0
  3  4  1  0
  4  5  2  0
  5  6  1  0
  6  7  2  0
  7  8  1  0
  8  9  2  0
  8 10  1  0
 10 11  2  0
 10 12  1  0
 12 13  1  0
 13 14  1  6
 14 15  1  0
 15 16  2  0
 16 17  1  0
 17 18  2  0
 18 19  1  0
 19 20  2  0
 17 21  1  0
 21 22  1  0
 22 23  1  0
 23 24  1  0
 24 25  1  0
 25 26  1  0
 13 27  1  0
 27 28  1  1
 27 29  1  0
 29 30  1  0
 30 31  1  0
 31 32  1  0
 31 33  1  0
 31 34  1  0
 34 35  2  0
 35 36  1  0
 36 37  2  0
 37 38  1  0
 38 39  2  0
 36 40  1  0
 40 41  1  0
 40 42  1  0
 40 43  1  0
  9  4  1  0
 20 15  1  0
 26  6  1  0
 39 34  1  0
M  END
$$$$
