
     RDKit          3D

 43 46  0  0  0  0  0  0  0  0999 V2000
  -15.6594  -46.8803   -9.1462 C   0  0  0  0  0  0  0  0  0  0  0  0
  -16.9666  -47.0872   -8.7360 O   0  0  0  0  0  0  0  0  0  0  0  0
  -17.2784  -46.3576   -7.5914 C   0  0  0  0  0  0  0  0  0  0  0  0
  -18.1814  -45.2179   -7.8951 C   0  0  0  0  0  0  0  0  0  0  0  0
  -19.5378  -45.2880   -7.7791 C   0  0  0  0  0  0  0  0  0  0  0  0
  -20.4153  -44.2048   -8.0670 C   0  0  0  0  0  0  0  0  0  0  0  0
  -19.8844  -43.0078   -8.4944 C   0  0  0  0  0  0  0  0  0  0  0  0
  -18.5199  -42.8957   -8.6203 C   0  0  0  0  0  0  0  0  0  0  0  0
  -17.6951  -44.0087   -8.3178 C   0  0  0  0  0  0  0  0  0  0  0  0
  -17.6690  -41.7466   -9.0000 C   0  0  0  0  0  0  0  0  0  0  0  0
  -16.5895  -42.0083   -9.7353 O   0  0  0  0  0  0  0  0  0  0  0  0
  -17.7479  -40.3754   -8.7456 N   0  0  0  0  0  0  0  0  0  0  0  0
  -17.9655  -39.6031   -7.5752 C   0  0  1  0  0  0  0  0  0  0  0  0
  -18.3479  -40.2882   -6.3180 C   0  0  0  0  0  0  0  0  0  0  0  0
  -19.7191  -39.9203   -5.8306 C   0  0  0  0  0  0  0  0  0  0  0  0
  -20.9213  -40.5423   -6.0285 C   0  0  0  0  0  0  0  0  0  0  0  0
  -22.0549  -39.9482   -5.4895 C   0  0  0  0  0  0  0  0  0  0  0  0
  -21.9727  -38.7590   -4.7655 C   0  0  0  0  0  0  0  0  0  0  0  0
  -20.7797  -38.1065   -4.5454 C   0  0  0  0  0  0  0  0  0  0  0  0
  -19.6812  -38.7157   -5.0919 C   0  0  0  0  0  0  0  0  0  0  0  0
  -23.3769  -40.3833   -5.5637 O   0  0  0  0  0  0  0  0  0  0  0  0
  -24.2504  -40.7000   -6.6008 C   0  0  0  0  0  0  0  0  0  0  0  0
  -24.4483  -42.2013   -6.6549 C   0  0  0  0  0  0  0  0  0  0  0  0
  -23.5284  -42.8654   -7.6713 C   0  0  0  0  0  0  0  0  0  0  0  0
  -22.7937  -43.9793   -6.9720 C   0  0  0  0  0  0  0  0  0  0  0  0
  -21.7626  -44.5921   -7.7815 N   0  0  0  0  0  0  0  0  0  0  0  0
  -16.7752  -38.6014   -7.3802 C   0  0  2  0  0  0  0  0  0  0  0  0
  -17.3683  -37.6557   -6.4908 O   0  0  0  0  0  0  0  0  0  0  0  0
  -16.4828  -37.8837   -8.6312 C   0  0  0  0  0  0  0  0  0  0  0  0
  -15.6805  -38.5104   -9.6102 N   0  0  0  0  0  0  0  0  0  0  0  0
  -15.2175  -37.7590  -10.7111 C   0  0  0  0  0  0  0  0  0  0  0  0
  -16.1667  -36.9315  -11.4847 C   0  0  0  0  0  0  0  0  0  0  0  0
  -14.1502  -36.7906  -10.1568 C   0  0  0  0  0  0  0  0  0  0  0  0
  -14.4649  -38.6048  -11.7058 C   0  0  0  0  0  0  0  0  0  0  0  0
  -13.4455  -38.0332  -12.4354 C   0  0  0  0  0  0  0  0  0  0  0  0
  -12.6991  -38.7380  -13.3517 C   0  0  0  0  0  0  0  0  0  0  0  0
  -12.9901  -40.0885  -13.5460 C   0  0  0  0  0  0  0  0  0  0  0  0
  -14.0144  -40.6328  -12.8031 C   0  0  0  0  0  0  0  0  0  0  0  0
  -14.7279  -39.9035  -11.9096 N   0  0  0  0  0  0  0  0  0  0  0  0
  -11.6199  -38.1217  -14.1539 C   0  0  0  0  0  0  0  0  0  0  0  0
  -11.3511  -38.8417  -15.4437 C   0  0  0  0  0  0  0  0  0  0  0  0
  -12.0270  -36.6802  -14.4669 C   0  0  0  0  0  0  0  0  0  0  0  0
  -10.3355  -38.1129  -13.3588 C   0  0  0  0  0  0  0  0  0  0  0  0
  1  2  1  0
  2  3  1  0
  3  4  1  0
  4  5  2  0
  5  6  1  0
  6  7  2  0
  7  8  1  0
  8  9  2  0
  8 10  1  0
 10 11  2  0
 10 12  1  0
 12 13  1  0
 13 14  1  1
 14 15  1  0
 15 16  2  0
 16 17  1  0
 17 18  2  0
 18 19  1  0
 19 20  2  0
 17 21  1  0
 21 22  1  0
 22 23  1  0
 23 24  1  0
 24 25  1  0
 25 26  1  0
 13 27  1  0
 27 28  1  1
 27 29  1  0
 29 30  1  0
 30 31  1  0
 31 32  1  0
 31 33  1  0
 31 34  1  0
 34 35  2  0
 35 36  1  0
 36 37  2  0
 37 38  1  0
 38 39  2  0
 36 40  1  0
 40 41  1  0
 40 42  1  0
 40 43  1  0
  9  4  1  0
 20 15  1  0
 26  6  1  0
 39 34  1  0
M  END
$$$$
