
     RDKit          3D

 43 46  0  0  0  0  0  0  0  0999 V2000
  -16.4545  -47.7269   -9.7746 C   0  0  0  0  0  0  0  0  0  0  0  0
  -17.1326  -46.6794   -9.1724 O   0  0  0  0  0  0  0  0  0  0  0  0
  -18.5003  -46.7225   -9.4317 C   0  0  0  0  0  0  0  0  0  0  0  0
  -19.0980  -45.3629   -9.4580 C   0  0  0  0  0  0  0  0  0  0  0  0
  -20.4394  -45.1382   -9.5492 C   0  0  0  0  0  0  0  0  0  0  0  0
  -21.0262  -43.8415   -9.5761 C   0  0  0  0  0  0  0  0  0  0  0  0
  -20.2087  -42.7347   -9.5125 C   0  0  0  0  0  0  0  0  0  0  0  0
  -18.8497  -42.9196   -9.4157 C   0  0  0  0  0  0  0  0  0  0  0  0
  -18.3221  -44.2356   -9.3918 C   0  0  0  0  0  0  0  0  0  0  0  0
  -17.7427  -41.9475   -9.2816 C   0  0  0  0  0  0  0  0  0  0  0  0
  -16.6058  -42.2320   -9.9148 O   0  0  0  0  0  0  0  0  0  0  0  0
  -17.6156  -40.7335   -8.6024 N   0  0  0  0  0  0  0  0  0  0  0  0
  -17.9152  -40.3092   -7.2818 C   0  0  1  0  0  0  0  0  0  0  0  0
  -18.6603  -41.2204   -6.3815 C   0  0  0  0  0  0  0  0  0  0  0  0
  -20.0089  -40.6953   -5.9831 C   0  0  0  0  0  0  0  0  0  0  0  0
  -21.2416  -40.9265   -6.5296 C   0  0  0  0  0  0  0  0  0  0  0  0
  -22.3298  -40.2637   -5.9775 C   0  0  0  0  0  0  0  0  0  0  0  0
  -22.1749  -39.3942   -4.8981 C   0  0  0  0  0  0  0  0  0  0  0  0
  -20.9500  -39.1390   -4.3221 C   0  0  0  0  0  0  0  0  0  0  0  0
  -19.8967  -39.8052   -4.8907 C   0  0  0  0  0  0  0  0  0  0  0  0
  -23.6678  -40.3294   -6.3624 O   0  0  0  0  0  0  0  0  0  0  0  0
  -24.3605  -40.1106   -7.5503 C   0  0  0  0  0  0  0  0  0  0  0  0
  -24.8179  -41.4377   -8.1210 C   0  0  0  0  0  0  0  0  0  0  0  0
  -23.8531  -41.9744   -9.1704 C   0  0  0  0  0  0  0  0  0  0  0  0
  -23.4913  -43.3859   -8.7876 C   0  0  0  0  0  0  0  0  0  0  0  0
  -22.4512  -43.9623   -9.6121 N   0  0  0  0  0  0  0  0  0  0  0  0
  -16.6233  -39.7228   -6.6147 C   0  0  2  0  0  0  0  0  0  0  0  0
  -17.1603  -38.5703   -5.9660 O   0  0  0  0  0  0  0  0  0  0  0  0
  -15.6804  -39.2363   -7.6345 C   0  0  0  0  0  0  0  0  0  0  0  0
  -14.9347  -40.1741   -8.3824 N   0  0  0  0  0  0  0  0  0  0  0  0
  -14.0340  -39.7160   -9.3670 C   0  0  0  0  0  0  0  0  0  0  0  0
  -12.7606  -39.0864   -8.9591 C   0  0  0  0  0  0  0  0  0  0  0  0
  -13.6554  -40.9491  -10.2157 C   0  0  0  0  0  0  0  0  0  0  0  0
  -14.6880  -38.7800  -10.3504 C   0  0  0  0  0  0  0  0  0  0  0  0
  -13.9479  -37.7504  -10.8892 C   0  0  0  0  0  0  0  0  0  0  0  0
  -14.4636  -36.8617  -11.8046 C   0  0  0  0  0  0  0  0  0  0  0  0
  -15.7922  -37.0144  -12.2015 C   0  0  0  0  0  0  0  0  0  0  0  0
  -16.5078  -38.0521  -11.6461 C   0  0  0  0  0  0  0  0  0  0  0  0
  -15.9629  -38.9071  -10.7453 N   0  0  0  0  0  0  0  0  0  0  0  0
  -13.6789  -35.7409  -12.3669 C   0  0  0  0  0  0  0  0  0  0  0  0
  -13.5144  -35.8176  -13.8573 C   0  0  0  0  0  0  0  0  0  0  0  0
  -14.3971  -34.4365  -12.0144 C   0  0  0  0  0  0  0  0  0  0  0  0
  -12.2980  -35.7279  -11.7546 C   0  0  0  0  0  0  0  0  0  0  0  0
  1  2  1  0
  2  3  1  0
  3  4  1  0
  4  5  2  0
  5  6  1  0
  6  7  2  0
  7  8  1  0
  8  9  2  0
  8 10  1  0
 10 11  2  0
 10 12  1  0
 12 13  1  0
 13 14  1  1
 14 15  1  0
 15 16  2  0
 16 17  1  0
 17 18  2  0
 18 19  1  0
 19 20  2  0
 17 21  1  0
 21 22  1  0
 22 23  1  0
 23 24  1  0
 24 25  1  0
 25 26  1  0
 13 27  1  0
 27 28  1  1
 27 29  1  0
 29 30  1  0
 30 31  1  0
 31 32  1  0
 31 33  1  0
 31 34  1  0
 34 35  2  0
 35 36  1  0
 36 37  2  0
 37 38  1  0
 38 39  2  0
 36 40  1  0
 40 41  1  0
 40 42  1  0
 40 43  1  0
  9  4  1  0
 20 15  1  0
 26  6  1  0
 39 34  1  0
M  END
$$$$
