
     RDKit          3D

 43 46  0  0  0  0  0  0  0  0999 V2000
  -19.2190  -42.4378   -1.4648 C   0  0  0  0  0  0  0  0  0  0  0  0
  -18.8402  -43.3873   -2.4001 O   0  0  0  0  0  0  0  0  0  0  0  0
  -19.9363  -44.0469   -2.9509 C   0  0  0  0  0  0  0  0  0  0  0  0
  -20.3116  -43.4808   -4.2719 C   0  0  0  0  0  0  0  0  0  0  0  0
  -21.5942  -43.1715   -4.6150 C   0  0  0  0  0  0  0  0  0  0  0  0
  -21.9687  -42.6292   -5.8767 C   0  0  0  0  0  0  0  0  0  0  0  0
  -20.9946  -42.4003   -6.8233 C   0  0  0  0  0  0  0  0  0  0  0  0
  -19.6879  -42.6954   -6.5141 C   0  0  0  0  0  0  0  0  0  0  0  0
  -19.3742  -43.2328   -5.2399 C   0  0  0  0  0  0  0  0  0  0  0  0
  -18.4403  -42.5152   -7.2884 C   0  0  0  0  0  0  0  0  0  0  0  0
  -17.5072  -43.4576   -7.1627 O   0  0  0  0  0  0  0  0  0  0  0  0
  -17.9976  -41.5245   -8.1680 N   0  0  0  0  0  0  0  0  0  0  0  0
  -17.9635  -40.1069   -8.1161 C   0  0  1  0  0  0  0  0  0  0  0  0
  -18.6482  -39.4077   -7.0032 C   0  0  0  0  0  0  0  0  0  0  0  0
  -19.7954  -38.5504   -7.4525 C   0  0  0  0  0  0  0  0  0  0  0  0
  -21.1320  -38.8332   -7.5246 C   0  0  0  0  0  0  0  0  0  0  0  0
  -21.9758  -37.8519   -8.0278 C   0  0  0  0  0  0  0  0  0  0  0  0
  -21.4805  -36.6157   -8.4420 C   0  0  0  0  0  0  0  0  0  0  0  0
  -20.1420  -36.2961   -8.3823 C   0  0  0  0  0  0  0  0  0  0  0  0
  -19.3358  -37.2854   -7.8846 C   0  0  0  0  0  0  0  0  0  0  0  0
  -23.3573  -37.9075   -8.2045 O   0  0  0  0  0  0  0  0  0  0  0  0
  -24.2277  -38.7564   -8.8832 C   0  0  0  0  0  0  0  0  0  0  0  0
  -24.9864  -39.6068   -7.8846 C   0  0  0  0  0  0  0  0  0  0  0  0
  -24.3403  -40.9717   -7.6851 C   0  0  0  0  0  0  0  0  0  0  0  0
  -24.1314  -41.1732   -6.2067 C   0  0  0  0  0  0  0  0  0  0  0  0
  -23.3744  -42.3636   -5.8845 N   0  0  0  0  0  0  0  0  0  0  0  0
  -16.4913  -39.6107   -8.3275 C   0  0  2  0  0  0  0  0  0  0  0  0
  -16.5475  -38.3357   -7.6881 O   0  0  0  0  0  0  0  0  0  0  0  0
  -16.2211  -39.3606   -9.7523 C   0  0  0  0  0  0  0  0  0  0  0  0
  -16.7645  -40.2368  -10.7176 N   0  0  0  0  0  0  0  0  0  0  0  0
  -16.0900  -41.4386  -11.0200 C   0  0  0  0  0  0  0  0  0  0  0  0
  -16.8183  -42.7232  -10.9582 C   0  0  0  0  0  0  0  0  0  0  0  0
  -15.5824  -41.2976  -12.4714 C   0  0  0  0  0  0  0  0  0  0  0  0
  -14.8332  -41.6102  -10.2064 C   0  0  0  0  0  0  0  0  0  0  0  0
  -13.8271  -40.6761  -10.3227 C   0  0  0  0  0  0  0  0  0  0  0  0
  -12.6554  -40.7498   -9.6050 C   0  0  0  0  0  0  0  0  0  0  0  0
  -12.4839  -41.8167   -8.7228 C   0  0  0  0  0  0  0  0  0  0  0  0
  -13.5060  -42.7351   -8.6274 C   0  0  0  0  0  0  0  0  0  0  0  0
  -14.6464  -42.6277   -9.3535 N   0  0  0  0  0  0  0  0  0  0  0  0
  -11.5634  -39.7618   -9.7452 C   0  0  0  0  0  0  0  0  0  0  0  0
  -10.2118  -40.3898   -9.9272 C   0  0  0  0  0  0  0  0  0  0  0  0
  -11.8706  -38.8863  -10.9620 C   0  0  0  0  0  0  0  0  0  0  0  0
  -11.5013  -38.8924   -8.5115 C   0  0  0  0  0  0  0  0  0  0  0  0
  1  2  1  0
  2  3  1  0
  3  4  1  0
  4  5  2  0
  5  6  1  0
  6  7  2  0
  7  8  1  0
  8  9  2  0
  8 10  1  0
 10 11  2  0
 10 12  1  0
 12 13  1  0
 13 14  1  1
 14 15  1  0
 15 16  2  0
 16 17  1  0
 17 18  2  0
 18 19  1  0
 19 20  2  0
 17 21  1  0
 21 22  1  0
 22 23  1  0
 23 24  1  0
 24 25  1  0
 25 26  1  0
 13 27  1  0
 27 28  1  1
 27 29  1  0
 29 30  1  0
 30 31  1  0
 31 32  1  0
 31 33  1  0
 31 34  1  0
 34 35  2  0
 35 36  1  0
 36 37  2  0
 37 38  1  0
 38 39  2  0
 36 40  1  0
 40 41  1  0
 40 42  1  0
 40 43  1  0
  9  4  1  0
 20 15  1  0
 26  6  1  0
 39 34  1  0
M  END
$$$$
