
     RDKit          3D

 38 41  0  0  0  0  0  0  0  0999 V2000
  -14.1147  -34.3982  -11.3959 C   0  0  0  0  0  0  0  0  0  0  0  0
  -14.2369  -35.5458  -12.4045 C   0  0  0  0  0  0  0  0  0  0  0  0
  -15.6734  -36.0205  -12.3392 C   0  0  0  0  0  0  0  0  0  0  0  0
  -13.3215  -36.6615  -12.0345 C   0  0  0  0  0  0  0  0  0  0  0  0
  -12.0004  -36.5543  -12.4182 C   0  0  0  0  0  0  0  0  0  0  0  0
  -11.1541  -37.5665  -12.0882 C   0  0  0  0  0  0  0  0  0  0  0  0
  -11.6117  -38.6883  -11.3775 C   0  0  0  0  0  0  0  0  0  0  0  0
  -12.9196  -38.7977  -10.9955 C   0  0  0  0  0  0  0  0  0  0  0  0
  -13.7846  -37.7601  -11.3344 C   0  0  0  0  0  0  0  0  0  0  0  0
  -13.3577  -39.9882  -10.2446 C   0  0  0  0  0  0  0  0  0  0  0  0
  -13.3855  -41.1735  -11.1760 C   0  0  0  0  0  0  0  0  0  0  0  0
  -12.2632  -40.2809   -9.2281 C   0  0  0  0  0  0  0  0  0  0  0  0
  -14.6365  -39.8319   -9.6373 N   0  0  0  0  0  0  0  0  0  0  0  0
  -14.5589  -38.9218   -8.5243 C   0  0  0  0  0  0  0  0  0  0  0  0
  -15.5348  -39.3075   -7.4205 C   0  0  1  0  0  0  0  0  0  0  0  0
  -15.8811  -38.1331   -6.7567 O   0  0  0  0  0  0  0  0  0  0  0  0
  -16.8431  -39.8307   -8.0479 C   0  0  2  0  0  0  0  0  0  0  0  0
  -17.7068  -40.2742   -6.9493 C   0  0  0  0  0  0  0  0  0  0  0  0
  -19.1795  -40.1274   -6.9922 C   0  0  0  0  0  0  0  0  0  0  0  0
  -19.7695  -41.3341   -6.5325 C   0  0  0  0  0  0  0  0  0  0  0  0
  -21.1147  -41.5506   -6.4470 C   0  0  0  0  0  0  0  0  0  0  0  0
  -21.8853  -40.4928   -6.8472 C   0  0  0  0  0  0  0  0  0  0  0  0
  -21.3550  -39.2663   -7.3147 C   0  0  0  0  0  0  0  0  0  0  0  0
  -22.4734  -38.3530   -7.6645 C   0  0  0  0  0  0  0  0  0  0  0  0
  -23.7951  -39.0182   -7.9491 C   0  0  0  0  0  0  0  0  0  0  0  0
  -23.8820  -39.9443   -9.0842 C   0  0  0  0  0  0  0  0  0  0  0  0
  -22.7886  -39.8970  -10.1045 C   0  0  0  0  0  0  0  0  0  0  0  0
  -22.2384  -41.2284  -10.4049 N   0  0  0  0  0  0  0  0  0  0  0  0
  -20.9875  -41.8088  -10.0370 C   0  0  0  0  0  0  0  0  0  0  0  0
  -21.2295  -43.1171   -9.5307 C   0  0  0  0  0  0  0  0  0  0  0  0
  -20.2477  -43.9449   -9.0709 C   0  0  0  0  0  0  0  0  0  0  0  0
  -18.9776  -43.4328   -9.1248 C   0  0  0  0  0  0  0  0  0  0  0  0
  -18.6770  -42.1364   -9.6194 C   0  0  0  0  0  0  0  0  0  0  0  0
  -19.6990  -41.3216  -10.0808 C   0  0  0  0  0  0  0  0  0  0  0  0
  -17.2298  -41.9040   -9.5020 C   0  0  0  0  0  0  0  0  0  0  0  0
  -16.4826  -42.9145   -9.8841 O   0  0  0  0  0  0  0  0  0  0  0  0
  -16.4872  -40.7829   -9.0464 N   0  0  0  0  0  0  0  0  0  0  0  0
  -19.9960  -39.0870   -7.3840 C   0  0  0  0  0  0  0  0  0  0  0  0
  1  2  1  0
  2  3  1  0
  2  4  1  0
  4  5  2  0
  5  6  1  0
  6  7  2  0
  7  8  1  0
  8  9  2  0
  8 10  1  0
 10 11  1  0
 10 12  1  0
 10 13  1  0
 13 14  1  0
 14 15  1  0
 15 16  1  6
 15 17  1  0
 17 18  1  1
 18 19  1  0
 19 20  1  0
 20 21  2  0
 21 22  1  0
 22 23  2  0
 23 24  1  0
 24 25  1  0
 25 26  1  0
 26 27  1  0
 27 28  1  0
 28 29  1  0
 29 30  1  0
 30 31  2  0
 31 32  1  0
 32 33  2  0
 33 34  1  0
 33 35  1  0
 35 36  2  0
 35 37  1  0
 23 38  1  0
  9  4  1  0
 34 29  2  0
 37 17  1  0
 38 19  2  0
M  END
$$$$
