
     RDKit          3D

 38 41  0  0  0  0  0  0  0  0999 V2000
  -13.5303  -34.6177  -11.6558 C   0  0  0  0  0  0  0  0  0  0  0  0
  -14.4855  -35.5234  -12.4409 C   0  0  0  0  0  0  0  0  0  0  0  0
  -15.8712  -35.2637  -11.8883 C   0  0  0  0  0  0  0  0  0  0  0  0
  -14.1249  -36.9551  -12.2412 C   0  0  0  0  0  0  0  0  0  0  0  0
  -14.0629  -37.7579  -13.3618 C   0  0  0  0  0  0  0  0  0  0  0  0
  -13.7363  -39.0673  -13.1936 C   0  0  0  0  0  0  0  0  0  0  0  0
  -13.4698  -39.5873  -11.9163 C   0  0  0  0  0  0  0  0  0  0  0  0
  -13.5300  -38.7949  -10.8041 C   0  0  0  0  0  0  0  0  0  0  0  0
  -13.8646  -37.4543  -10.9785 C   0  0  0  0  0  0  0  0  0  0  0  0
  -13.2362  -39.3782   -9.4825 C   0  0  0  0  0  0  0  0  0  0  0  0
  -13.9028  -40.7269   -9.3817 C   0  0  0  0  0  0  0  0  0  0  0  0
  -11.7386  -39.6491   -9.4566 C   0  0  0  0  0  0  0  0  0  0  0  0
  -13.6594  -38.5577   -8.3980 N   0  0  0  0  0  0  0  0  0  0  0  0
  -14.2501  -39.3601   -7.3586 C   0  0  0  0  0  0  0  0  0  0  0  0
  -15.5921  -38.7942   -6.9130 C   0  0  1  0  0  0  0  0  0  0  0  0
  -15.6535  -37.4827   -7.3777 O   0  0  0  0  0  0  0  0  0  0  0  0
  -16.7325  -39.5432   -7.6323 C   0  0  2  0  0  0  0  0  0  0  0  0
  -17.8197  -39.7160   -6.6639 C   0  0  0  0  0  0  0  0  0  0  0  0
  -19.2458  -39.6706   -7.0594 C   0  0  0  0  0  0  0  0  0  0  0  0
  -19.9292  -40.7361   -6.4164 C   0  0  0  0  0  0  0  0  0  0  0  0
  -21.2613  -40.9968   -6.5625 C   0  0  0  0  0  0  0  0  0  0  0  0
  -21.9188  -40.1354   -7.3981 C   0  0  0  0  0  0  0  0  0  0  0  0
  -21.2918  -39.0565   -8.0668 C   0  0  0  0  0  0  0  0  0  0  0  0
  -22.3005  -38.3397   -8.8890 C   0  0  0  0  0  0  0  0  0  0  0  0
  -23.5304  -39.1316   -9.2505 C   0  0  0  0  0  0  0  0  0  0  0  0
  -23.3697  -40.3373  -10.0714 C   0  0  0  0  0  0  0  0  0  0  0  0
  -22.0779  -40.5102  -10.8063 C   0  0  0  0  0  0  0  0  0  0  0  0
  -21.4822  -41.8393  -10.5964 N   0  0  0  0  0  0  0  0  0  0  0  0
  -20.3465  -42.2242   -9.8225 C   0  0  0  0  0  0  0  0  0  0  0  0
  -20.7013  -43.3545   -9.0332 C   0  0  0  0  0  0  0  0  0  0  0  0
  -19.8496  -43.9668   -8.1612 C   0  0  0  0  0  0  0  0  0  0  0  0
  -18.5961  -43.4179   -8.0844 C   0  0  0  0  0  0  0  0  0  0  0  0
  -18.1869  -42.2924   -8.8470 C   0  0  0  0  0  0  0  0  0  0  0  0
  -19.0775  -41.6954   -9.7254 C   0  0  0  0  0  0  0  0  0  0  0  0
  -16.7999  -41.9548   -8.4937 C   0  0  0  0  0  0  0  0  0  0  0  0
  -15.9923  -42.9872   -8.4084 O   0  0  0  0  0  0  0  0  0  0  0  0
  -16.1702  -40.7114   -8.2236 N   0  0  0  0  0  0  0  0  0  0  0  0
  -19.9501  -38.8262   -7.8922 C   0  0  0  0  0  0  0  0  0  0  0  0
  1  2  1  0
  2  3  1  0
  2  4  1  0
  4  5  2  0
  5  6  1  0
  6  7  2  0
  7  8  1  0
  8  9  2  0
  8 10  1  0
 10 11  1  0
 10 12  1  0
 10 13  1  0
 13 14  1  0
 14 15  1  0
 15 16  1  6
 15 17  1  0
 17 18  1  1
 18 19  1  0
 19 20  1  0
 20 21  2  0
 21 22  1  0
 22 23  2  0
 23 24  1  0
 24 25  1  0
 25 26  1  0
 26 27  1  0
 27 28  1  0
 28 29  1  0
 29 30  1  0
 30 31  2  0
 31 32  1  0
 32 33  2  0
 33 34  1  0
 33 35  1  0
 35 36  2  0
 35 37  1  0
 23 38  1  0
  9  4  1  0
 34 29  2  0
 37 17  1  0
 38 19  2  0
M  END
$$$$
