
     RDKit          3D

 38 41  0  0  0  0  0  0  0  0999 V2000
  -14.1633  -34.3939  -12.4973 C   0  0  0  0  0  0  0  0  0  0  0  0
  -15.4014  -35.2867  -12.3581 C   0  0  0  0  0  0  0  0  0  0  0  0
  -16.1292  -34.8169  -11.1160 C   0  0  0  0  0  0  0  0  0  0  0  0
  -14.9980  -36.7117  -12.1956 C   0  0  0  0  0  0  0  0  0  0  0  0
  -15.4195  -37.6060  -13.1582 C   0  0  0  0  0  0  0  0  0  0  0  0
  -15.0597  -38.9103  -13.0213 C   0  0  0  0  0  0  0  0  0  0  0  0
  -14.2815  -39.3346  -11.9317 C   0  0  0  0  0  0  0  0  0  0  0  0
  -13.8619  -38.4515  -10.9764 C   0  0  0  0  0  0  0  0  0  0  0  0
  -14.2314  -37.1163  -11.1185 C   0  0  0  0  0  0  0  0  0  0  0  0
  -13.0405  -38.9364   -9.8524 C   0  0  0  0  0  0  0  0  0  0  0  0
  -12.5974  -40.3484  -10.1413 C   0  0  0  0  0  0  0  0  0  0  0  0
  -11.7737  -38.0927   -9.8516 C   0  0  0  0  0  0  0  0  0  0  0  0
  -13.7199  -38.8991   -8.6012 N   0  0  0  0  0  0  0  0  0  0  0  0
  -14.9430  -38.1477   -8.7132 C   0  0  0  0  0  0  0  0  0  0  0  0
  -15.8469  -38.3725   -7.5082 C   0  0  1  0  0  0  0  0  0  0  0  0
  -16.4251  -37.1435   -7.2002 O   0  0  0  0  0  0  0  0  0  0  0  0
  -17.0181  -39.2938   -7.9063 C   0  0  2  0  0  0  0  0  0  0  0  0
  -17.8043  -39.5479   -6.6951 C   0  0  0  0  0  0  0  0  0  0  0  0
  -19.2768  -39.7001   -6.7254 C   0  0  0  0  0  0  0  0  0  0  0  0
  -19.6356  -40.8061   -5.9107 C   0  0  0  0  0  0  0  0  0  0  0  0
  -20.9164  -41.2368   -5.7163 C   0  0  0  0  0  0  0  0  0  0  0  0
  -21.8658  -40.5089   -6.3808 C   0  0  0  0  0  0  0  0  0  0  0  0
  -21.5692  -39.3980   -7.2066 C   0  0  0  0  0  0  0  0  0  0  0  0
  -22.8336  -38.8561   -7.7679 C   0  0  0  0  0  0  0  0  0  0  0  0
  -23.9980  -39.8119   -7.7964 C   0  0  0  0  0  0  0  0  0  0  0  0
  -23.8830  -41.0305   -8.6058 C   0  0  0  0  0  0  0  0  0  0  0  0
  -22.7975  -41.0814   -9.6343 C   0  0  0  0  0  0  0  0  0  0  0  0
  -21.9975  -42.3137   -9.5507 N   0  0  0  0  0  0  0  0  0  0  0  0
  -20.6670  -42.5135   -9.0747 C   0  0  0  0  0  0  0  0  0  0  0  0
  -20.6658  -43.6354   -8.1984 C   0  0  0  0  0  0  0  0  0  0  0  0
  -19.5542  -44.0905   -7.5521 C   0  0  0  0  0  0  0  0  0  0  0  0
  -18.4040  -43.3877   -7.8002 C   0  0  0  0  0  0  0  0  0  0  0  0
  -18.3457  -42.2624   -8.6640 C   0  0  0  0  0  0  0  0  0  0  0  0
  -19.4943  -41.8276   -9.3066 C   0  0  0  0  0  0  0  0  0  0  0  0
  -16.9720  -41.7378   -8.6730 C   0  0  0  0  0  0  0  0  0  0  0  0
  -16.0381  -42.6564   -8.7688 O   0  0  0  0  0  0  0  0  0  0  0  0
  -16.4664  -40.4134   -8.5938 N   0  0  0  0  0  0  0  0  0  0  0  0
  -20.2682  -38.9947   -7.3751 C   0  0  0  0  0  0  0  0  0  0  0  0
  1  2  1  0
  2  3  1  0
  2  4  1  0
  4  5  2  0
  5  6  1  0
  6  7  2  0
  7  8  1  0
  8  9  2  0
  8 10  1  0
 10 11  1  0
 10 12  1  0
 10 13  1  0
 13 14  1  0
 14 15  1  0
 15 16  1  6
 15 17  1  0
 17 18  1  1
 18 19  1  0
 19 20  1  0
 20 21  2  0
 21 22  1  0
 22 23  2  0
 23 24  1  0
 24 25  1  0
 25 26  1  0
 26 27  1  0
 27 28  1  0
 28 29  1  0
 29 30  1  0
 30 31  2  0
 31 32  1  0
 32 33  2  0
 33 34  1  0
 33 35  1  0
 35 36  2  0
 35 37  1  0
 23 38  1  0
  9  4  1  0
 34 29  2  0
 37 17  1  0
 38 19  2  0
M  END
$$$$
