
     RDKit          3D

 38 41  0  0  0  0  0  0  0  0999 V2000
  -15.7028  -38.7714  -15.1332 C   0  0  0  0  0  0  0  0  0  0  0  0
  -16.7881  -38.7342  -14.0515 C   0  0  0  0  0  0  0  0  0  0  0  0
  -18.0404  -38.2084  -14.7210 C   0  0  0  0  0  0  0  0  0  0  0  0
  -16.3874  -37.8195  -12.9457 C   0  0  0  0  0  0  0  0  0  0  0  0
  -17.1207  -36.6624  -12.7800 C   0  0  0  0  0  0  0  0  0  0  0  0
  -16.7648  -35.8177  -11.7753 C   0  0  0  0  0  0  0  0  0  0  0  0
  -15.6823  -36.1147  -10.9309 C   0  0  0  0  0  0  0  0  0  0  0  0
  -14.9539  -37.2602  -11.0920 C   0  0  0  0  0  0  0  0  0  0  0  0
  -15.3201  -38.1238  -12.1214 C   0  0  0  0  0  0  0  0  0  0  0  0
  -13.8297  -37.5380  -10.1797 C   0  0  0  0  0  0  0  0  0  0  0  0
  -12.9617  -38.6130  -10.7834 C   0  0  0  0  0  0  0  0  0  0  0  0
  -12.9768  -36.2775  -10.1538 C   0  0  0  0  0  0  0  0  0  0  0  0
  -14.2464  -37.9397   -8.8784 N   0  0  0  0  0  0  0  0  0  0  0  0
  -15.6737  -38.1258   -8.8406 C   0  0  0  0  0  0  0  0  0  0  0  0
  -16.0735  -39.1542   -7.7906 C   0  0  1  0  0  0  0  0  0  0  0  0
  -15.6759  -38.6481   -6.5554 O   0  0  0  0  0  0  0  0  0  0  0  0
  -17.6113  -39.2521   -7.7233 C   0  0  2  0  0  0  0  0  0  0  0  0
  -17.9539  -40.6742   -7.6241 C   0  0  0  0  0  0  0  0  0  0  0  0
  -19.1090  -41.1562   -6.8332 C   0  0  0  0  0  0  0  0  0  0  0  0
  -19.8052  -42.1314   -7.5947 C   0  0  0  0  0  0  0  0  0  0  0  0
  -20.9284  -42.7819   -7.1717 C   0  0  0  0  0  0  0  0  0  0  0  0
  -21.3558  -42.4208   -5.9228 C   0  0  0  0  0  0  0  0  0  0  0  0
  -20.7044  -41.4557   -5.1176 C   0  0  0  0  0  0  0  0  0  0  0  0
  -21.4409  -41.3130   -3.8352 C   0  0  0  0  0  0  0  0  0  0  0  0
  -22.8803  -41.7579   -3.8558 C   0  0  0  0  0  0  0  0  0  0  0  0
  -23.8157  -41.0594   -4.7449 C   0  0  0  0  0  0  0  0  0  0  0  0
  -23.3941  -39.7321   -5.2921 C   0  0  0  0  0  0  0  0  0  0  0  0
  -23.5711  -39.6403   -6.7501 N   0  0  0  0  0  0  0  0  0  0  0  0
  -22.5993  -39.6529   -7.7952 C   0  0  0  0  0  0  0  0  0  0  0  0
  -23.0294  -40.5654   -8.7995 C   0  0  0  0  0  0  0  0  0  0  0  0
  -22.3208  -40.8325   -9.9340 C   0  0  0  0  0  0  0  0  0  0  0  0
  -21.1367  -40.1536  -10.0578 C   0  0  0  0  0  0  0  0  0  0  0  0
  -20.6580  -39.2324   -9.0893 C   0  0  0  0  0  0  0  0  0  0  0  0
  -21.4046  -38.9830   -7.9484 C   0  0  0  0  0  0  0  0  0  0  0  0
  -19.3517  -38.7167   -9.5253 C   0  0  0  0  0  0  0  0  0  0  0  0
  -19.2923  -38.3858  -10.7950 O   0  0  0  0  0  0  0  0  0  0  0  0
  -18.1351  -38.5121   -8.8227 N   0  0  0  0  0  0  0  0  0  0  0  0
  -19.5759  -40.8249   -5.5782 C   0  0  0  0  0  0  0  0  0  0  0  0
  1  2  1  0
  2  3  1  0
  2  4  1  0
  4  5  2  0
  5  6  1  0
  6  7  2  0
  7  8  1  0
  8  9  2  0
  8 10  1  0
 10 11  1  0
 10 12  1  0
 10 13  1  0
 13 14  1  0
 14 15  1  0
 15 16  1  1
 15 17  1  0
 17 18  1  6
 18 19  1  0
 19 20  1  0
 20 21  2  0
 21 22  1  0
 22 23  2  0
 23 24  1  0
 24 25  1  0
 25 26  1  0
 26 27  1  0
 27 28  1  0
 28 29  1  0
 29 30  1  0
 30 31  2  0
 31 32  1  0
 32 33  2  0
 33 34  1  0
 33 35  1  0
 35 36  2  0
 35 37  1  0
 23 38  1  0
  9  4  1  0
 34 29  2  0
 37 17  1  0
 38 19  2  0
M  END
$$$$
