
     RDKit          3D

 38 41  0  0  0  0  0  0  0  0999 V2000
  -14.5112  -34.2503  -11.1034 C   0  0  0  0  0  0  0  0  0  0  0  0
  -15.3045  -35.4232  -11.6901 C   0  0  0  0  0  0  0  0  0  0  0  0
  -16.4280  -35.7087  -10.7157 C   0  0  0  0  0  0  0  0  0  0  0  0
  -14.4340  -36.6253  -11.8198 C   0  0  0  0  0  0  0  0  0  0  0  0
  -13.9188  -36.9060  -13.0688 C   0  0  0  0  0  0  0  0  0  0  0  0
  -13.1238  -38.0013  -13.2016 C   0  0  0  0  0  0  0  0  0  0  0  0
  -12.8354  -38.8228  -12.0994 C   0  0  0  0  0  0  0  0  0  0  0  0
  -13.3436  -38.5476  -10.8607 C   0  0  0  0  0  0  0  0  0  0  0  0
  -14.1575  -37.4255  -10.7268 C   0  0  0  0  0  0  0  0  0  0  0  0
  -13.0108  -39.4312   -9.7286 C   0  0  0  0  0  0  0  0  0  0  0  0
  -12.4722  -40.7337  -10.2641 C   0  0  0  0  0  0  0  0  0  0  0  0
  -11.8526  -38.7701   -8.9947 C   0  0  0  0  0  0  0  0  0  0  0  0
  -14.1191  -39.6920   -8.8730 N   0  0  0  0  0  0  0  0  0  0  0  0
  -14.7314  -38.4594   -8.4502 C   0  0  0  0  0  0  0  0  0  0  0  0
  -15.7286  -38.6911   -7.3225 C   0  0  1  0  0  0  0  0  0  0  0  0
  -16.0392  -37.4411   -6.7927 O   0  0  0  0  0  0  0  0  0  0  0  0
  -17.0493  -39.2347   -7.9050 C   0  0  2  0  0  0  0  0  0  0  0  0
  -17.5634  -40.2331   -6.9624 C   0  0  0  0  0  0  0  0  0  0  0  0
  -19.0123  -40.4224   -6.7229 C   0  0  0  0  0  0  0  0  0  0  0  0
  -19.2912  -41.8143   -6.7053 C   0  0  0  0  0  0  0  0  0  0  0  0
  -20.5328  -42.3492   -6.5148 C   0  0  0  0  0  0  0  0  0  0  0  0
  -21.5263  -41.4252   -6.3362 C   0  0  0  0  0  0  0  0  0  0  0  0
  -21.3096  -40.0263   -6.3441 C   0  0  0  0  0  0  0  0  0  0  0  0
  -22.6042  -39.3308   -6.1263 C   0  0  0  0  0  0  0  0  0  0  0  0
  -23.8384  -40.1305   -6.4543 C   0  0  0  0  0  0  0  0  0  0  0  0
  -24.0376  -40.5730   -7.8393 C   0  0  0  0  0  0  0  0  0  0  0  0
  -23.2242  -39.9082   -8.9047 C   0  0  0  0  0  0  0  0  0  0  0  0
  -22.5595  -40.8745   -9.7934 N   0  0  0  0  0  0  0  0  0  0  0  0
  -21.1842  -41.2457   -9.8807 C   0  0  0  0  0  0  0  0  0  0  0  0
  -21.1023  -42.6665   -9.9136 C   0  0  0  0  0  0  0  0  0  0  0  0
  -19.9272  -43.3562   -9.9773 C   0  0  0  0  0  0  0  0  0  0  0  0
  -18.7959  -42.5833  -10.0091 C   0  0  0  0  0  0  0  0  0  0  0  0
  -18.8170  -41.1640   -9.9791 C   0  0  0  0  0  0  0  0  0  0  0  0
  -20.0292  -40.4947   -9.9161 C   0  0  0  0  0  0  0  0  0  0  0  0
  -17.4337  -40.6653   -9.9950 C   0  0  0  0  0  0  0  0  0  0  0  0
  -16.6471  -41.2670  -10.8578 O   0  0  0  0  0  0  0  0  0  0  0  0
  -16.7876  -39.6491   -9.2430 N   0  0  0  0  0  0  0  0  0  0  0  0
  -20.0455  -39.5277   -6.5369 C   0  0  0  0  0  0  0  0  0  0  0  0
  1  2  1  0
  2  3  1  0
  2  4  1  0
  4  5  2  0
  5  6  1  0
  6  7  2  0
  7  8  1  0
  8  9  2  0
  8 10  1  0
 10 11  1  0
 10 12  1  0
 10 13  1  0
 13 14  1  0
 14 15  1  0
 15 16  1  6
 15 17  1  0
 17 18  1  1
 18 19  1  0
 19 20  1  0
 20 21  2  0
 21 22  1  0
 22 23  2  0
 23 24  1  0
 24 25  1  0
 25 26  1  0
 26 27  1  0
 27 28  1  0
 28 29  1  0
 29 30  1  0
 30 31  2  0
 31 32  1  0
 32 33  2  0
 33 34  1  0
 33 35  1  0
 35 36  2  0
 35 37  1  0
 23 38  1  0
  9  4  1  0
 34 29  2  0
 37 17  1  0
 38 19  2  0
M  END
$$$$
