
     RDKit          3D

 38 41  0  0  0  0  0  0  0  0999 V2000
  -21.3141  -43.1755   -8.0676 C   0  0  0  0  0  0  0  0  0  0  0  0
  -22.3406  -42.0792   -7.7611 C   0  0  0  0  0  0  0  0  0  0  0  0
  -23.2252  -41.9681   -8.9852 C   0  0  0  0  0  0  0  0  0  0  0  0
  -21.6544  -40.7794   -7.5173 C   0  0  0  0  0  0  0  0  0  0  0  0
  -21.5436  -40.3540   -6.2093 C   0  0  0  0  0  0  0  0  0  0  0  0
  -20.9208  -39.1684   -5.9725 C   0  0  0  0  0  0  0  0  0  0  0  0
  -20.4053  -38.3994   -7.0289 C   0  0  0  0  0  0  0  0  0  0  0  0
  -20.5129  -38.8178   -8.3257 C   0  0  0  0  0  0  0  0  0  0  0  0
  -21.1510  -40.0322   -8.5660 C   0  0  0  0  0  0  0  0  0  0  0  0
  -19.9519  -37.9845   -9.4046 C   0  0  0  0  0  0  0  0  0  0  0  0
  -20.2027  -38.6611  -10.7286 C   0  0  0  0  0  0  0  0  0  0  0  0
  -20.7731  -36.7031   -9.4279 C   0  0  0  0  0  0  0  0  0  0  0  0
  -18.5577  -37.7345   -9.2562 N   0  0  0  0  0  0  0  0  0  0  0  0
  -18.1047  -38.1572   -7.9565 C   0  0  0  0  0  0  0  0  0  0  0  0
  -16.5841  -38.2059   -7.8854 C   0  0  1  0  0  0  0  0  0  0  0  0
  -16.2375  -38.1006   -6.5406 O   0  0  0  0  0  0  0  0  0  0  0  0
  -16.0907  -39.5969   -8.3333 C   0  0  2  0  0  0  0  0  0  0  0  0
  -15.6594  -39.4780   -9.7295 C   0  0  0  0  0  0  0  0  0  0  0  0
  -14.5166  -40.2471  -10.2726 C   0  0  0  0  0  0  0  0  0  0  0  0
  -14.8833  -40.7703  -11.5404 C   0  0  0  0  0  0  0  0  0  0  0  0
  -14.0687  -41.5376  -12.3224 C   0  0  0  0  0  0  0  0  0  0  0  0
  -12.8327  -41.7791  -11.7868 C   0  0  0  0  0  0  0  0  0  0  0  0
  -12.4109  -41.2854  -10.5289 C   0  0  0  0  0  0  0  0  0  0  0  0
  -11.0225  -41.7441  -10.2655 C   0  0  0  0  0  0  0  0  0  0  0  0
  -10.5789  -42.9599  -11.0369 C   0  0  0  0  0  0  0  0  0  0  0  0
  -11.2911  -44.2245  -10.8195 C   0  0  0  0  0  0  0  0  0  0  0  0
  -12.1519  -44.3363   -9.6008 C   0  0  0  0  0  0  0  0  0  0  0  0
  -13.5020  -44.8353   -9.9067 N   0  0  0  0  0  0  0  0  0  0  0  0
  -14.7511  -44.1455   -9.9339 C   0  0  0  0  0  0  0  0  0  0  0  0
  -15.4300  -44.4902  -11.1367 C   0  0  0  0  0  0  0  0  0  0  0  0
  -16.6493  -43.9900  -11.4883 C   0  0  0  0  0  0  0  0  0  0  0  0
  -17.2016  -43.1112  -10.5932 C   0  0  0  0  0  0  0  0  0  0  0  0
  -16.5711  -42.7313   -9.3792 C   0  0  0  0  0  0  0  0  0  0  0  0
  -15.3325  -43.2604   -9.0519 C   0  0  0  0  0  0  0  0  0  0  0  0
  -17.4238  -41.7565   -8.6828 C   0  0  0  0  0  0  0  0  0  0  0  0
  -18.7002  -42.0655   -8.6617 O   0  0  0  0  0  0  0  0  0  0  0  0
  -17.1198  -40.5341   -8.0278 N   0  0  0  0  0  0  0  0  0  0  0  0
  -13.2592  -40.5153   -9.7732 C   0  0  0  0  0  0  0  0  0  0  0  0
  1  2  1  0
  2  3  1  0
  2  4  1  0
  4  5  2  0
  5  6  1  0
  6  7  2  0
  7  8  1  0
  8  9  2  0
  8 10  1  0
 10 11  1  0
 10 12  1  0
 10 13  1  0
 13 14  1  0
 14 15  1  0
 15 16  1  1
 15 17  1  0
 17 18  1  6
 18 19  1  0
 19 20  1  0
 20 21  2  0
 21 22  1  0
 22 23  2  0
 23 24  1  0
 24 25  1  0
 25 26  1  0
 26 27  1  0
 27 28  1  0
 28 29  1  0
 29 30  1  0
 30 31  2  0
 31 32  1  0
 32 33  2  0
 33 34  1  0
 33 35  1  0
 35 36  2  0
 35 37  1  0
 23 38  1  0
  9  4  1  0
 34 29  2  0
 37 17  1  0
 38 19  2  0
M  END
$$$$
