
     RDKit          3D

 38 41  0  0  0  0  0  0  0  0999 V2000
  -11.5775  -37.0885  -10.2588 C   0  0  0  0  0  0  0  0  0  0  0  0
  -12.1246  -36.3287  -11.4724 C   0  0  0  0  0  0  0  0  0  0  0  0
  -12.2120  -34.8738  -11.0614 C   0  0  0  0  0  0  0  0  0  0  0  0
  -13.4801  -36.8318  -11.8317 C   0  0  0  0  0  0  0  0  0  0  0  0
  -14.2428  -36.0553  -12.6798 C   0  0  0  0  0  0  0  0  0  0  0  0
  -15.4828  -36.5020  -13.0148 C   0  0  0  0  0  0  0  0  0  0  0  0
  -15.9728  -37.7186  -12.5121 C   0  0  0  0  0  0  0  0  0  0  0  0
  -15.2200  -38.4906  -11.6720 C   0  0  0  0  0  0  0  0  0  0  0  0
  -13.9504  -38.0313  -11.3302 C   0  0  0  0  0  0  0  0  0  0  0  0
  -15.7686  -39.7644  -11.1724 C   0  0  0  0  0  0  0  0  0  0  0  0
  -17.0647  -40.0544  -11.8860 C   0  0  0  0  0  0  0  0  0  0  0  0
  -14.7975  -40.8512  -11.6113 C   0  0  0  0  0  0  0  0  0  0  0  0
  -15.9904  -39.7688   -9.7655 N   0  0  0  0  0  0  0  0  0  0  0  0
  -15.7789  -38.4543   -9.2171 C   0  0  0  0  0  0  0  0  0  0  0  0
  -16.4571  -38.3006   -7.8621 C   0  0  1  0  0  0  0  0  0  0  0  0
  -17.0829  -37.0564   -7.8607 O   0  0  0  0  0  0  0  0  0  0  0  0
  -17.5926  -39.3364   -7.7328 C   0  0  2  0  0  0  0  0  0  0  0  0
  -17.9697  -39.3957   -6.3172 C   0  0  0  0  0  0  0  0  0  0  0  0
  -19.3659  -39.6224   -5.8794 C   0  0  0  0  0  0  0  0  0  0  0  0
  -19.3619  -40.5713   -4.8233 C   0  0  0  0  0  0  0  0  0  0  0  0
  -20.4828  -41.0195   -4.1857 C   0  0  0  0  0  0  0  0  0  0  0  0
  -21.6517  -40.4769   -4.6462 C   0  0  0  0  0  0  0  0  0  0  0  0
  -21.7186  -39.5284   -5.6950 C   0  0  0  0  0  0  0  0  0  0  0  0
  -23.1391  -39.1642   -5.9335 C   0  0  0  0  0  0  0  0  0  0  0  0
  -24.1591  -40.1638   -5.4532 C   0  0  0  0  0  0  0  0  0  0  0  0
  -24.1562  -41.5060   -6.0464 C   0  0  0  0  0  0  0  0  0  0  0  0
  -23.4106  -41.6968   -7.3295 C   0  0  0  0  0  0  0  0  0  0  0  0
  -22.4985  -42.8508   -7.2865 N   0  0  0  0  0  0  0  0  0  0  0  0
  -21.0743  -42.8924   -7.2046 C   0  0  0  0  0  0  0  0  0  0  0  0
  -20.7081  -43.8276   -6.1958 C   0  0  0  0  0  0  0  0  0  0  0  0
  -19.4177  -44.0981   -5.8461 C   0  0  0  0  0  0  0  0  0  0  0  0
  -18.4645  -43.3995   -6.5401 C   0  0  0  0  0  0  0  0  0  0  0  0
  -18.7707  -42.4556   -7.5556 C   0  0  0  0  0  0  0  0  0  0  0  0
  -20.0932  -42.2061   -7.8873 C   0  0  0  0  0  0  0  0  0  0  0  0
  -17.5180  -41.8758   -8.0623 C   0  0  0  0  0  0  0  0  0  0  0  0
  -16.5616  -42.7494   -8.2799 O   0  0  0  0  0  0  0  0  0  0  0  0
  -17.1490  -40.5372   -8.3586 N   0  0  0  0  0  0  0  0  0  0  0  0
  -20.5683  -39.1012   -6.3098 C   0  0  0  0  0  0  0  0  0  0  0  0
  1  2  1  0
  2  3  1  0
  2  4  1  0
  4  5  2  0
  5  6  1  0
  6  7  2  0
  7  8  1  0
  8  9  2  0
  8 10  1  0
 10 11  1  0
 10 12  1  0
 10 13  1  0
 13 14  1  0
 14 15  1  0
 15 16  1  6
 15 17  1  0
 17 18  1  1
 18 19  1  0
 19 20  1  0
 20 21  2  0
 21 22  1  0
 22 23  2  0
 23 24  1  0
 24 25  1  0
 25 26  1  0
 26 27  1  0
 27 28  1  0
 28 29  1  0
 29 30  1  0
 30 31  2  0
 31 32  1  0
 32 33  2  0
 33 34  1  0
 33 35  1  0
 35 36  2  0
 35 37  1  0
 23 38  1  0
  9  4  1  0
 34 29  2  0
 37 17  1  0
 38 19  2  0
M  END
$$$$
