
     RDKit          3D

 38 41  0  0  0  0  0  0  0  0999 V2000
  -19.3443  -37.2404  -11.7406 C   0  0  0  0  0  0  0  0  0  0  0  0
  -20.8486  -37.0308  -11.5349 C   0  0  0  0  0  0  0  0  0  0  0  0
  -21.0939  -35.5420  -11.6632 C   0  0  0  0  0  0  0  0  0  0  0  0
  -21.2561  -37.4923  -10.1782 C   0  0  0  0  0  0  0  0  0  0  0  0
  -22.5280  -37.1690   -9.7516 C   0  0  0  0  0  0  0  0  0  0  0  0
  -22.9124  -37.5827   -8.5144 C   0  0  0  0  0  0  0  0  0  0  0  0
  -22.0401  -38.3178   -7.6948 C   0  0  0  0  0  0  0  0  0  0  0  0
  -20.7797  -38.6401   -8.1142 C   0  0  0  0  0  0  0  0  0  0  0  0
  -20.3879  -38.2155   -9.3815 C   0  0  0  0  0  0  0  0  0  0  0  0
  -19.8979  -39.4191   -7.2262 C   0  0  0  0  0  0  0  0  0  0  0  0
  -19.8275  -38.7376   -5.8830 C   0  0  0  0  0  0  0  0  0  0  0  0
  -20.5988  -40.7484   -6.9843 C   0  0  0  0  0  0  0  0  0  0  0  0
  -18.5813  -39.5845   -7.7437 N   0  0  0  0  0  0  0  0  0  0  0  0
  -17.7418  -40.2524   -6.7834 C   0  0  0  0  0  0  0  0  0  0  0  0
  -16.3208  -39.7048   -6.8099 C   0  0  1  0  0  0  0  0  0  0  0  0
  -15.6013  -40.3969   -5.8388 O   0  0  0  0  0  0  0  0  0  0  0  0
  -15.6545  -40.0633   -8.1540 C   0  0  2  0  0  0  0  0  0  0  0  0
  -14.2865  -39.5372   -8.1167 C   0  0  0  0  0  0  0  0  0  0  0  0
  -13.1528  -40.2348   -8.7650 C   0  0  0  0  0  0  0  0  0  0  0  0
  -12.3691  -39.2774   -9.4613 C   0  0  0  0  0  0  0  0  0  0  0  0
  -11.2468  -39.5753  -10.1791 C   0  0  0  0  0  0  0  0  0  0  0  0
  -10.9140  -40.9027  -10.1853 C   0  0  0  0  0  0  0  0  0  0  0  0
  -11.6559  -41.9023   -9.5112 C   0  0  0  0  0  0  0  0  0  0  0  0
  -11.0130  -43.2226   -9.7368 C   0  0  0  0  0  0  0  0  0  0  0  0
  -10.1222  -43.3166  -10.9484 C   0  0  0  0  0  0  0  0  0  0  0  0
  -10.7200  -43.1150  -12.2734 C   0  0  0  0  0  0  0  0  0  0  0  0
  -12.2099  -43.1986  -12.3832 C   0  0  0  0  0  0  0  0  0  0  0  0
  -12.7887  -42.0506  -13.0992 N   0  0  0  0  0  0  0  0  0  0  0  0
  -13.5353  -40.9406  -12.6020 C   0  0  0  0  0  0  0  0  0  0  0  0
  -12.9952  -39.7479  -13.1608 C   0  0  0  0  0  0  0  0  0  0  0  0
  -13.4653  -38.4989  -12.8789 C   0  0  0  0  0  0  0  0  0  0  0  0
  -14.5178  -38.4538  -12.0022 C   0  0  0  0  0  0  0  0  0  0  0  0
  -15.0967  -39.6093  -11.4146 C   0  0  0  0  0  0  0  0  0  0  0  0
  -14.5953  -40.8639  -11.7246 C   0  0  0  0  0  0  0  0  0  0  0  0
  -16.1761  -39.1938  -10.5066 C   0  0  0  0  0  0  0  0  0  0  0  0
  -16.9703  -38.2669  -10.9918 O   0  0  0  0  0  0  0  0  0  0  0  0
  -16.5181  -39.6106   -9.1932 N   0  0  0  0  0  0  0  0  0  0  0  0
  -12.7781  -41.5619   -8.7980 C   0  0  0  0  0  0  0  0  0  0  0  0
  1  2  1  0
  2  3  1  0
  2  4  1  0
  4  5  2  0
  5  6  1  0
  6  7  2  0
  7  8  1  0
  8  9  2  0
  8 10  1  0
 10 11  1  0
 10 12  1  0
 10 13  1  0
 13 14  1  0
 14 15  1  0
 15 16  1  1
 15 17  1  0
 17 18  1  6
 18 19  1  0
 19 20  1  0
 20 21  2  0
 21 22  1  0
 22 23  2  0
 23 24  1  0
 24 25  1  0
 25 26  1  0
 26 27  1  0
 27 28  1  0
 28 29  1  0
 29 30  1  0
 30 31  2  0
 31 32  1  0
 32 33  2  0
 33 34  1  0
 33 35  1  0
 35 36  2  0
 35 37  1  0
 23 38  1  0
  9  4  1  0
 34 29  2  0
 37 17  1  0
 38 19  2  0
M  END
$$$$
