
     RDKit          3D

 38 41  0  0  0  0  0  0  0  0999 V2000
  -21.5446  -37.6052   -7.9622 C   0  0  0  0  0  0  0  0  0  0  0  0
  -21.5982  -37.0727   -9.3985 C   0  0  0  0  0  0  0  0  0  0  0  0
  -22.8322  -37.6792  -10.0330 C   0  0  0  0  0  0  0  0  0  0  0  0
  -20.3854  -37.4947  -10.1540 C   0  0  0  0  0  0  0  0  0  0  0  0
  -20.5768  -38.2383  -11.3005 C   0  0  0  0  0  0  0  0  0  0  0  0
  -19.4782  -38.6315  -11.9991 C   0  0  0  0  0  0  0  0  0  0  0  0
  -18.1863  -38.2904  -11.5659 C   0  0  0  0  0  0  0  0  0  0  0  0
  -17.9929  -37.5537  -10.4309 C   0  0  0  0  0  0  0  0  0  0  0  0
  -19.1193  -37.1520   -9.7170 C   0  0  0  0  0  0  0  0  0  0  0  0
  -16.6209  -37.2110  -10.0148 C   0  0  0  0  0  0  0  0  0  0  0  0
  -15.9769  -36.3721  -11.0895 C   0  0  0  0  0  0  0  0  0  0  0  0
  -16.7551  -36.3034   -8.8003 C   0  0  0  0  0  0  0  0  0  0  0  0
  -15.8097  -38.3523   -9.7541 N   0  0  0  0  0  0  0  0  0  0  0  0
  -15.8641  -38.7019   -8.3584 C   0  0  0  0  0  0  0  0  0  0  0  0
  -15.4249  -40.1419   -8.1276 C   0  0  1  0  0  0  0  0  0  0  0  0
  -14.7459  -40.1688   -6.9118 O   0  0  0  0  0  0  0  0  0  0  0  0
  -16.6668  -41.0348   -7.9291 C   0  0  2  0  0  0  0  0  0  0  0  0
  -16.4650  -42.2467   -8.7291 C   0  0  0  0  0  0  0  0  0  0  0  0
  -16.9515  -43.5745   -8.2901 C   0  0  0  0  0  0  0  0  0  0  0  0
  -17.5591  -44.2238   -9.3967 C   0  0  0  0  0  0  0  0  0  0  0  0
  -18.1231  -45.4661   -9.3469 C   0  0  0  0  0  0  0  0  0  0  0  0
  -18.0636  -46.0664   -8.1185 C   0  0  0  0  0  0  0  0  0  0  0  0
  -17.4718  -45.4691   -6.9795 C   0  0  0  0  0  0  0  0  0  0  0  0
  -17.5907  -46.3967   -5.8250 C   0  0  0  0  0  0  0  0  0  0  0  0
  -18.6773  -47.4351   -5.9308 C   0  0  0  0  0  0  0  0  0  0  0  0
  -20.0709  -46.9831   -6.0156 C   0  0  0  0  0  0  0  0  0  0  0  0
  -20.3679  -45.5701   -5.6235 C   0  0  0  0  0  0  0  0  0  0  0  0
  -21.1717  -44.8611   -6.6318 N   0  0  0  0  0  0  0  0  0  0  0  0
  -20.7930  -43.8421   -7.5565 C   0  0  0  0  0  0  0  0  0  0  0  0
  -21.2994  -44.1887   -8.8410 C   0  0  0  0  0  0  0  0  0  0  0  0
  -21.1015  -43.4363   -9.9614 C   0  0  0  0  0  0  0  0  0  0  0  0
  -20.3668  -42.2941   -9.7772 C   0  0  0  0  0  0  0  0  0  0  0  0
  -19.8374  -41.8985   -8.5206 C   0  0  0  0  0  0  0  0  0  0  0  0
  -20.0591  -42.6860   -7.4016 C   0  0  0  0  0  0  0  0  0  0  0  0
  -19.0815  -40.6490   -8.6927 C   0  0  0  0  0  0  0  0  0  0  0  0
  -19.6800  -39.7479   -9.4377 O   0  0  0  0  0  0  0  0  0  0  0  0
  -17.8151  -40.2362   -8.2011 N   0  0  0  0  0  0  0  0  0  0  0  0
  -16.9133  -44.2188   -7.0711 C   0  0  0  0  0  0  0  0  0  0  0  0
  1  2  1  0
  2  3  1  0
  2  4  1  0
  4  5  2  0
  5  6  1  0
  6  7  2  0
  7  8  1  0
  8  9  2  0
  8 10  1  0
 10 11  1  0
 10 12  1  0
 10 13  1  0
 13 14  1  0
 14 15  1  0
 15 16  1  1
 15 17  1  0
 17 18  1  6
 18 19  1  0
 19 20  1  0
 20 21  2  0
 21 22  1  0
 22 23  2  0
 23 24  1  0
 24 25  1  0
 25 26  1  0
 26 27  1  0
 27 28  1  0
 28 29  1  0
 29 30  1  0
 30 31  2  0
 31 32  1  0
 32 33  2  0
 33 34  1  0
 33 35  1  0
 35 36  2  0
 35 37  1  0
 23 38  1  0
  9  4  1  0
 34 29  2  0
 37 17  1  0
 38 19  2  0
M  END
$$$$
