
     RDKit          3D

 38 41  0  0  0  0  0  0  0  0999 V2000
  -11.4111  -34.8199  -12.9418 C   0  0  0  0  0  0  0  0  0  0  0  0
  -12.1090  -35.6315  -14.0389 C   0  0  0  0  0  0  0  0  0  0  0  0
  -13.2352  -34.7642  -14.5608 C   0  0  0  0  0  0  0  0  0  0  0  0
  -12.6660  -36.8935  -13.4760 C   0  0  0  0  0  0  0  0  0  0  0  0
  -12.0800  -38.0790  -13.8701 C   0  0  0  0  0  0  0  0  0  0  0  0
  -12.5796  -39.2387  -13.3650 C   0  0  0  0  0  0  0  0  0  0  0  0
  -13.6606  -39.2298  -12.4682 C   0  0  0  0  0  0  0  0  0  0  0  0
  -14.2433  -38.0573  -12.0754 C   0  0  0  0  0  0  0  0  0  0  0  0
  -13.7302  -36.8709  -12.5937 C   0  0  0  0  0  0  0  0  0  0  0  0
  -15.3712  -38.0912  -11.1268 C   0  0  0  0  0  0  0  0  0  0  0  0
  -15.8073  -36.6784  -10.8317 C   0  0  0  0  0  0  0  0  0  0  0  0
  -16.5328  -38.7417  -11.8647 C   0  0  0  0  0  0  0  0  0  0  0  0
  -15.0610  -38.7567   -9.9064 N   0  0  0  0  0  0  0  0  0  0  0  0
  -15.7684  -38.1519   -8.8078 C   0  0  0  0  0  0  0  0  0  0  0  0
  -16.1528  -39.1850   -7.7568 C   0  0  1  0  0  0  0  0  0  0  0  0
  -15.9465  -38.5940   -6.5127 O   0  0  0  0  0  0  0  0  0  0  0  0
  -17.6676  -39.4641   -7.8374 C   0  0  2  0  0  0  0  0  0  0  0  0
  -17.8879  -40.8240   -7.3355 C   0  0  0  0  0  0  0  0  0  0  0  0
  -19.0987  -41.1981   -6.5698 C   0  0  0  0  0  0  0  0  0  0  0  0
  -19.5796  -42.4407   -7.0599 C   0  0  0  0  0  0  0  0  0  0  0  0
  -20.6883  -43.0798   -6.5843 C   0  0  0  0  0  0  0  0  0  0  0  0
  -21.3294  -42.4225   -5.5694 C   0  0  0  0  0  0  0  0  0  0  0  0
  -20.8980  -41.1824   -5.0401 C   0  0  0  0  0  0  0  0  0  0  0  0
  -21.8282  -40.7631   -3.9601 C   0  0  0  0  0  0  0  0  0  0  0  0
  -23.2008  -41.3831   -4.0032 C   0  0  0  0  0  0  0  0  0  0  0  0
  -24.0533  -41.1148   -5.1671 C   0  0  0  0  0  0  0  0  0  0  0  0
  -23.6795  -39.9679   -6.0523 C   0  0  0  0  0  0  0  0  0  0  0  0
  -23.6441  -40.3410   -7.4754 N   0  0  0  0  0  0  0  0  0  0  0  0
  -22.5298  -40.5348   -8.3459 C   0  0  0  0  0  0  0  0  0  0  0  0
  -22.7184  -41.7551   -9.0542 C   0  0  0  0  0  0  0  0  0  0  0  0
  -21.8263  -42.2514   -9.9589 C   0  0  0  0  0  0  0  0  0  0  0  0
  -20.7051  -41.4879  -10.1545 C   0  0  0  0  0  0  0  0  0  0  0  0
  -20.4642  -40.2636   -9.4772 C   0  0  0  0  0  0  0  0  0  0  0  0
  -21.3930  -39.7872   -8.5652 C   0  0  0  0  0  0  0  0  0  0  0  0
  -19.1609  -39.7313   -9.9017 C   0  0  0  0  0  0  0  0  0  0  0  0
  -18.9431  -39.7904  -11.1957 O   0  0  0  0  0  0  0  0  0  0  0  0
  -18.0873  -39.1643   -9.1657 N   0  0  0  0  0  0  0  0  0  0  0  0
  -19.7767  -40.5725   -5.5444 C   0  0  0  0  0  0  0  0  0  0  0  0
  1  2  1  0
  2  3  1  0
  2  4  1  0
  4  5  2  0
  5  6  1  0
  6  7  2  0
  7  8  1  0
  8  9  2  0
  8 10  1  0
 10 11  1  0
 10 12  1  0
 10 13  1  0
 13 14  1  0
 14 15  1  0
 15 16  1  1
 15 17  1  0
 17 18  1  6
 18 19  1  0
 19 20  1  0
 20 21  2  0
 21 22  1  0
 22 23  2  0
 23 24  1  0
 24 25  1  0
 25 26  1  0
 26 27  1  0
 27 28  1  0
 28 29  1  0
 29 30  1  0
 30 31  2  0
 31 32  1  0
 32 33  2  0
 33 34  1  0
 33 35  1  0
 35 36  2  0
 35 37  1  0
 23 38  1  0
  9  4  1  0
 34 29  2  0
 37 17  1  0
 38 19  2  0
M  END
$$$$
