
     RDKit          3D

 38 41  0  0  0  0  0  0  0  0999 V2000
  -12.6890  -34.8204  -11.0126 C   0  0  0  0  0  0  0  0  0  0  0  0
  -13.7389  -35.4058  -11.9636 C   0  0  0  0  0  0  0  0  0  0  0  0
  -15.0836  -34.9156  -11.4689 C   0  0  0  0  0  0  0  0  0  0  0  0
  -13.7014  -36.8947  -11.9249 C   0  0  0  0  0  0  0  0  0  0  0  0
  -13.6768  -37.5621  -13.1324 C   0  0  0  0  0  0  0  0  0  0  0  0
  -13.6440  -38.9215  -13.1116 C   0  0  0  0  0  0  0  0  0  0  0  0
  -13.6354  -39.6256  -11.8962 C   0  0  0  0  0  0  0  0  0  0  0  0
  -13.6594  -38.9678  -10.6982 C   0  0  0  0  0  0  0  0  0  0  0  0
  -13.6929  -37.5757  -10.7217 C   0  0  0  0  0  0  0  0  0  0  0  0
  -13.6420  -39.7441   -9.4452 C   0  0  0  0  0  0  0  0  0  0  0  0
  -14.0548  -41.1638   -9.7413 C   0  0  0  0  0  0  0  0  0  0  0  0
  -12.1868  -39.8152   -9.0047 C   0  0  0  0  0  0  0  0  0  0  0  0
  -14.4901  -39.2042   -8.4363 N   0  0  0  0  0  0  0  0  0  0  0  0
  -15.8083  -38.9611   -8.9620 C   0  0  0  0  0  0  0  0  0  0  0  0
  -16.8173  -38.7219   -7.8465 C   0  0  1  0  0  0  0  0  0  0  0  0
  -17.3731  -37.4638   -8.0654 O   0  0  0  0  0  0  0  0  0  0  0  0
  -17.9846  -39.7208   -7.9836 C   0  0  2  0  0  0  0  0  0  0  0  0
  -18.9264  -39.4430   -6.8948 C   0  0  0  0  0  0  0  0  0  0  0  0
  -20.3907  -39.5882   -7.0592 C   0  0  0  0  0  0  0  0  0  0  0  0
  -20.9120  -40.2518   -5.9175 C   0  0  0  0  0  0  0  0  0  0  0  0
  -22.2306  -40.5570   -5.7386 C   0  0  0  0  0  0  0  0  0  0  0  0
  -23.0464  -40.1692   -6.7666 C   0  0  0  0  0  0  0  0  0  0  0  0
  -22.5850  -39.5056   -7.9289 C   0  0  0  0  0  0  0  0  0  0  0  0
  -23.7366  -39.2425   -8.8300 C   0  0  0  0  0  0  0  0  0  0  0  0
  -24.9443  -40.1184   -8.6190 C   0  0  0  0  0  0  0  0  0  0  0  0
  -24.8051  -41.5641   -8.8289 C   0  0  0  0  0  0  0  0  0  0  0  0
  -23.6074  -42.0438   -9.5866 C   0  0  0  0  0  0  0  0  0  0  0  0
  -22.8993  -43.1318   -8.8936 N   0  0  0  0  0  0  0  0  0  0  0  0
  -21.6512  -43.1200   -8.2016 C   0  0  0  0  0  0  0  0  0  0  0  0
  -21.8243  -43.7736   -6.9489 C   0  0  0  0  0  0  0  0  0  0  0  0
  -20.8292  -43.9217   -6.0279 C   0  0  0  0  0  0  0  0  0  0  0  0
  -19.6171  -43.3912   -6.3854 C   0  0  0  0  0  0  0  0  0  0  0  0
  -19.3863  -42.7294   -7.6201 C   0  0  0  0  0  0  0  0  0  0  0  0
  -20.4198  -42.5980   -8.5344 C   0  0  0  0  0  0  0  0  0  0  0  0
  -17.9927  -42.2618   -7.6582 C   0  0  0  0  0  0  0  0  0  0  0  0
  -17.1111  -43.1402   -7.2381 O   0  0  0  0  0  0  0  0  0  0  0  0
  -17.4217  -41.0273   -8.0652 N   0  0  0  0  0  0  0  0  0  0  0  0
  -21.2512  -39.2146   -8.0704 C   0  0  0  0  0  0  0  0  0  0  0  0
  1  2  1  0
  2  3  1  0
  2  4  1  0
  4  5  2  0
  5  6  1  0
  6  7  2  0
  7  8  1  0
  8  9  2  0
  8 10  1  0
 10 11  1  0
 10 12  1  0
 10 13  1  0
 13 14  1  0
 14 15  1  0
 15 16  1  6
 15 17  1  0
 17 18  1  1
 18 19  1  0
 19 20  1  0
 20 21  2  0
 21 22  1  0
 22 23  2  0
 23 24  1  0
 24 25  1  0
 25 26  1  0
 26 27  1  0
 27 28  1  0
 28 29  1  0
 29 30  1  0
 30 31  2  0
 31 32  1  0
 32 33  2  0
 33 34  1  0
 33 35  1  0
 35 36  2  0
 35 37  1  0
 23 38  1  0
  9  4  1  0
 34 29  2  0
 37 17  1  0
 38 19  2  0
M  END
$$$$
