
     RDKit          3D

 38 41  0  0  0  0  0  0  0  0999 V2000
  -10.6996  -35.9439  -14.3096 C   0  0  0  0  0  0  0  0  0  0  0  0
  -11.1280  -36.7658  -13.0888 C   0  0  0  0  0  0  0  0  0  0  0  0
  -10.7990  -38.2089  -13.4089 C   0  0  0  0  0  0  0  0  0  0  0  0
  -12.5926  -36.6240  -12.8557 C   0  0  0  0  0  0  0  0  0  0  0  0
  -13.3123  -35.8769  -13.7657 C   0  0  0  0  0  0  0  0  0  0  0  0
  -14.6500  -35.7380  -13.5640 C   0  0  0  0  0  0  0  0  0  0  0  0
  -15.2807  -36.3377  -12.4616 C   0  0  0  0  0  0  0  0  0  0  0  0
  -14.5711  -37.0787  -11.5583 C   0  0  0  0  0  0  0  0  0  0  0  0
  -13.2013  -37.2198  -11.7667 C   0  0  0  0  0  0  0  0  0  0  0  0
  -15.2723  -37.6975  -10.4188 C   0  0  0  0  0  0  0  0  0  0  0  0
  -14.3500  -38.6875   -9.7536 C   0  0  0  0  0  0  0  0  0  0  0  0
  -15.4990  -36.5884   -9.4012 C   0  0  0  0  0  0  0  0  0  0  0  0
  -16.4821  -38.3512  -10.7896 N   0  0  0  0  0  0  0  0  0  0  0  0
  -17.6021  -37.7730  -10.0935 C   0  0  0  0  0  0  0  0  0  0  0  0
  -17.5993  -38.1560   -8.6194 C   0  0  1  0  0  0  0  0  0  0  0  0
  -18.2554  -37.1362   -7.9343 O   0  0  0  0  0  0  0  0  0  0  0  0
  -18.4627  -39.4172   -8.4122 C   0  0  2  0  0  0  0  0  0  0  0  0
  -18.4021  -39.7580   -6.9874 C   0  0  0  0  0  0  0  0  0  0  0  0
  -19.5562  -40.3371   -6.2629 C   0  0  0  0  0  0  0  0  0  0  0  0
  -19.0925  -41.4049   -5.4502 C   0  0  0  0  0  0  0  0  0  0  0  0
  -19.8929  -42.1681   -4.6499 C   0  0  0  0  0  0  0  0  0  0  0  0
  -21.2177  -41.8263   -4.6826 C   0  0  0  0  0  0  0  0  0  0  0  0
  -21.7386  -40.7732   -5.4724 C   0  0  0  0  0  0  0  0  0  0  0  0
  -23.2075  -40.6892   -5.2659 C   0  0  0  0  0  0  0  0  0  0  0  0
  -23.8669  -41.9413   -4.7485 C   0  0  0  0  0  0  0  0  0  0  0  0
  -23.8131  -43.1529   -5.5749 C   0  0  0  0  0  0  0  0  0  0  0  0
  -23.4466  -42.9944   -7.0168 C   0  0  0  0  0  0  0  0  0  0  0  0
  -22.3832  -43.9218   -7.4346 N   0  0  0  0  0  0  0  0  0  0  0  0
  -21.0090  -43.6707   -7.7269 C   0  0  0  0  0  0  0  0  0  0  0  0
  -20.2194  -44.6415   -7.0483 C   0  0  0  0  0  0  0  0  0  0  0  0
  -18.8568  -44.6786   -7.0979 C   0  0  0  0  0  0  0  0  0  0  0  0
  -18.2721  -43.7009   -7.8599 C   0  0  0  0  0  0  0  0  0  0  0  0
  -19.0085  -42.7081   -8.5583 C   0  0  0  0  0  0  0  0  0  0  0  0
  -20.3928  -42.7007   -8.4876 C   0  0  0  0  0  0  0  0  0  0  0  0
  -18.0677  -41.8084   -9.2423 C   0  0  0  0  0  0  0  0  0  0  0  0
  -17.0837  -42.4180   -9.8630 O   0  0  0  0  0  0  0  0  0  0  0  0
  -18.0256  -40.3936   -9.3535 N   0  0  0  0  0  0  0  0  0  0  0  0
  -20.9003  -40.0274   -6.2627 C   0  0  0  0  0  0  0  0  0  0  0  0
  1  2  1  0
  2  3  1  0
  2  4  1  0
  4  5  2  0
  5  6  1  0
  6  7  2  0
  7  8  1  0
  8  9  2  0
  8 10  1  0
 10 11  1  0
 10 12  1  0
 10 13  1  0
 13 14  1  0
 14 15  1  0
 15 16  1  1
 15 17  1  0
 17 18  1  1
 18 19  1  0
 19 20  1  0
 20 21  2  0
 21 22  1  0
 22 23  2  0
 23 24  1  0
 24 25  1  0
 25 26  1  0
 26 27  1  0
 27 28  1  0
 28 29  1  0
 29 30  1  0
 30 31  2  0
 31 32  1  0
 32 33  2  0
 33 34  1  0
 33 35  1  0
 35 36  2  0
 35 37  1  0
 23 38  1  0
  9  4  1  0
 34 29  2  0
 37 17  1  0
 38 19  2  0
M  END
$$$$
