
     RDKit          3D

 38 41  0  0  0  0  0  0  0  0999 V2000
  -23.7626  -43.6749   -5.3862 C   0  0  0  0  0  0  0  0  0  0  0  0
  -22.4101  -43.3123   -6.0096 C   0  0  0  0  0  0  0  0  0  0  0  0
  -21.4579  -44.4319   -5.6449 C   0  0  0  0  0  0  0  0  0  0  0  0
  -21.9097  -42.0249   -5.4511 C   0  0  0  0  0  0  0  0  0  0  0  0
  -21.8638  -41.9024   -4.0775 C   0  0  0  0  0  0  0  0  0  0  0  0
  -21.4106  -40.7318   -3.5542 C   0  0  0  0  0  0  0  0  0  0  0  0
  -21.0010  -39.6782   -4.3880 C   0  0  0  0  0  0  0  0  0  0  0  0
  -21.0448  -39.7962   -5.7491 C   0  0  0  0  0  0  0  0  0  0  0  0
  -21.5092  -40.9957   -6.2829 C   0  0  0  0  0  0  0  0  0  0  0  0
  -20.5990  -38.6693   -6.5885 C   0  0  0  0  0  0  0  0  0  0  0  0
  -19.9976  -39.2121   -7.8602 C   0  0  0  0  0  0  0  0  0  0  0  0
  -21.8573  -37.9220   -7.0069 C   0  0  0  0  0  0  0  0  0  0  0  0
  -19.6541  -37.8235   -5.9402 N   0  0  0  0  0  0  0  0  0  0  0  0
  -18.3171  -38.3240   -6.1272 C   0  0  0  0  0  0  0  0  0  0  0  0
  -17.8234  -38.0769   -7.5467 C   0  0  1  0  0  0  0  0  0  0  0  0
  -16.8526  -37.0812   -7.4708 O   0  0  0  0  0  0  0  0  0  0  0  0
  -17.0910  -39.3318   -8.0641 C   0  0  2  0  0  0  0  0  0  0  0  0
  -16.9486  -39.1861   -9.5161 C   0  0  0  0  0  0  0  0  0  0  0  0
  -15.7641  -39.6881  -10.2490 C   0  0  0  0  0  0  0  0  0  0  0  0
  -16.2050  -40.3485  -11.4259 C   0  0  0  0  0  0  0  0  0  0  0  0
  -15.3753  -40.9393  -12.3350 C   0  0  0  0  0  0  0  0  0  0  0  0
  -14.0445  -40.8516  -12.0281 C   0  0  0  0  0  0  0  0  0  0  0  0
  -13.5455  -40.2072  -10.8706 C   0  0  0  0  0  0  0  0  0  0  0  0
  -12.0633  -40.3080  -10.8569 C   0  0  0  0  0  0  0  0  0  0  0  0
  -11.4767  -41.4216  -11.6852 C   0  0  0  0  0  0  0  0  0  0  0  0
  -11.8112  -42.8063  -11.3328 C   0  0  0  0  0  0  0  0  0  0  0  0
  -12.3958  -43.0565   -9.9784 C   0  0  0  0  0  0  0  0  0  0  0  0
  -13.6157  -43.8777  -10.0326 N   0  0  0  0  0  0  0  0  0  0  0  0
  -14.9805  -43.5074   -9.8409 C   0  0  0  0  0  0  0  0  0  0  0  0
  -15.7518  -44.0656  -10.8992 C   0  0  0  0  0  0  0  0  0  0  0  0
  -17.0979  -43.8888  -11.0303 C   0  0  0  0  0  0  0  0  0  0  0  0
  -17.6849  -43.1216  -10.0581 C   0  0  0  0  0  0  0  0  0  0  0  0
  -16.9666  -42.5403   -8.9802 C   0  0  0  0  0  0  0  0  0  0  0  0
  -15.5991  -42.7416   -8.8762 C   0  0  0  0  0  0  0  0  0  0  0  0
  -17.8979  -41.7617   -8.1503 C   0  0  0  0  0  0  0  0  0  0  0  0
  -19.0373  -42.3642   -7.8976 O   0  0  0  0  0  0  0  0  0  0  0  0
  -17.7924  -40.4698   -7.5709 N   0  0  0  0  0  0  0  0  0  0  0  0
  -14.4125  -39.6231   -9.9814 C   0  0  0  0  0  0  0  0  0  0  0  0
  1  2  1  0
  2  3  1  0
  2  4  1  0
  4  5  2  0
  5  6  1  0
  6  7  2  0
  7  8  1  0
  8  9  2  0
  8 10  1  0
 10 11  1  0
 10 12  1  0
 10 13  1  0
 13 14  1  0
 14 15  1  0
 15 16  1  1
 15 17  1  0
 17 18  1  6
 18 19  1  0
 19 20  1  0
 20 21  2  0
 21 22  1  0
 22 23  2  0
 23 24  1  0
 24 25  1  0
 25 26  1  0
 26 27  1  0
 27 28  1  0
 28 29  1  0
 29 30  1  0
 30 31  2  0
 31 32  1  0
 32 33  2  0
 33 34  1  0
 33 35  1  0
 35 36  2  0
 35 37  1  0
 23 38  1  0
  9  4  1  0
 34 29  2  0
 37 17  1  0
 38 19  2  0
M  END
$$$$
