
     RDKit          3D

 38 41  0  0  0  0  0  0  0  0999 V2000
  -10.8834  -42.9855   -9.9288 C   0  0  0  0  0  0  0  0  0  0  0  0
  -11.1814  -42.3813  -11.3055 C   0  0  0  0  0  0  0  0  0  0  0  0
  -10.1349  -41.3118  -11.5381 C   0  0  0  0  0  0  0  0  0  0  0  0
  -12.5390  -41.7676  -11.3200 C   0  0  0  0  0  0  0  0  0  0  0  0
  -13.5635  -42.5027  -11.8804 C   0  0  0  0  0  0  0  0  0  0  0  0
  -14.8076  -41.9538  -11.9017 C   0  0  0  0  0  0  0  0  0  0  0  0
  -15.0427  -40.6758  -11.3685 C   0  0  0  0  0  0  0  0  0  0  0  0
  -14.0303  -39.9449  -10.8123 C   0  0  0  0  0  0  0  0  0  0  0  0
  -12.7571  -40.5088  -10.7915 C   0  0  0  0  0  0  0  0  0  0  0  0
  -14.3207  -38.6104  -10.2573 C   0  0  0  0  0  0  0  0  0  0  0  0
  -13.0394  -37.8188  -10.1860 C   0  0  0  0  0  0  0  0  0  0  0  0
  -15.1942  -37.9005  -11.2819 C   0  0  0  0  0  0  0  0  0  0  0  0
  -14.9227  -38.6558   -8.9673 N   0  0  0  0  0  0  0  0  0  0  0  0
  -16.3225  -38.3295   -9.0518 C   0  0  0  0  0  0  0  0  0  0  0  0
  -17.0066  -38.4565   -7.6970 C   0  0  1  0  0  0  0  0  0  0  0  0
  -17.6035  -37.2274   -7.4274 O   0  0  0  0  0  0  0  0  0  0  0  0
  -18.1668  -39.4679   -7.7975 C   0  0  2  0  0  0  0  0  0  0  0  0
  -18.6137  -39.7561   -6.4312 C   0  0  0  0  0  0  0  0  0  0  0  0
  -20.0337  -40.0158   -6.1016 C   0  0  0  0  0  0  0  0  0  0  0  0
  -20.0995  -41.1297   -5.2239 C   0  0  0  0  0  0  0  0  0  0  0  0
  -21.2586  -41.6488   -4.7231 C   0  0  0  0  0  0  0  0  0  0  0  0
  -22.3930  -41.0045   -5.1363 C   0  0  0  0  0  0  0  0  0  0  0  0
  -22.3904  -39.8904   -6.0098 C   0  0  0  0  0  0  0  0  0  0  0  0
  -23.7903  -39.4525   -6.2461 C   0  0  0  0  0  0  0  0  0  0  0  0
  -24.8515  -40.4910   -5.9897 C   0  0  0  0  0  0  0  0  0  0  0  0
  -24.8454  -41.7128   -6.8025 C   0  0  0  0  0  0  0  0  0  0  0  0
  -24.0416  -41.7034   -8.0646 C   0  0  0  0  0  0  0  0  0  0  0  0
  -23.1550  -42.8724   -8.1782 N   0  0  0  0  0  0  0  0  0  0  0  0
  -21.7376  -42.9660   -8.0408 C   0  0  0  0  0  0  0  0  0  0  0  0
  -21.4391  -44.0683   -7.1909 C   0  0  0  0  0  0  0  0  0  0  0  0
  -20.1728  -44.4292   -6.8350 C   0  0  0  0  0  0  0  0  0  0  0  0
  -19.1736  -43.6492   -7.3561 C   0  0  0  0  0  0  0  0  0  0  0  0
  -19.4117  -42.5388   -8.2083 C   0  0  0  0  0  0  0  0  0  0  0  0
  -20.7114  -42.2008   -8.5516 C   0  0  0  0  0  0  0  0  0  0  0  0
  -18.1248  -41.9158   -8.5518 C   0  0  0  0  0  0  0  0  0  0  0  0
  -17.1759  -42.7656   -8.8722 O   0  0  0  0  0  0  0  0  0  0  0  0
  -17.7162  -40.5569   -8.5985 N   0  0  0  0  0  0  0  0  0  0  0  0
  -21.2034  -39.3966   -6.4903 C   0  0  0  0  0  0  0  0  0  0  0  0
  1  2  1  0
  2  3  1  0
  2  4  1  0
  4  5  2  0
  5  6  1  0
  6  7  2  0
  7  8  1  0
  8  9  2  0
  8 10  1  0
 10 11  1  0
 10 12  1  0
 10 13  1  0
 13 14  1  0
 14 15  1  0
 15 16  1  6
 15 17  1  0
 17 18  1  1
 18 19  1  0
 19 20  1  0
 20 21  2  0
 21 22  1  0
 22 23  2  0
 23 24  1  0
 24 25  1  0
 25 26  1  0
 26 27  1  0
 27 28  1  0
 28 29  1  0
 29 30  1  0
 30 31  2  0
 31 32  1  0
 32 33  2  0
 33 34  1  0
 33 35  1  0
 35 36  2  0
 35 37  1  0
 23 38  1  0
  9  4  1  0
 34 29  2  0
 37 17  1  0
 38 19  2  0
M  END
$$$$
