
     RDKit          3D

 38 41  0  0  0  0  0  0  0  0999 V2000
  -11.8346  -33.7846  -11.8408 C   0  0  0  0  0  0  0  0  0  0  0  0
  -12.1411  -34.7606  -10.6994 C   0  0  0  0  0  0  0  0  0  0  0  0
  -10.8174  -35.0628  -10.0289 C   0  0  0  0  0  0  0  0  0  0  0  0
  -12.7311  -36.0187  -11.2367 C   0  0  0  0  0  0  0  0  0  0  0  0
  -12.2328  -36.4953  -12.4319 C   0  0  0  0  0  0  0  0  0  0  0  0
  -12.7636  -37.6421  -12.9346 C   0  0  0  0  0  0  0  0  0  0  0  0
  -13.7891  -38.3216  -12.2567 C   0  0  0  0  0  0  0  0  0  0  0  0
  -14.2849  -37.8525  -11.0724 C   0  0  0  0  0  0  0  0  0  0  0  0
  -13.7400  -36.6780  -10.5593 C   0  0  0  0  0  0  0  0  0  0  0  0
  -15.3566  -38.5995  -10.3892 C   0  0  0  0  0  0  0  0  0  0  0  0
  -16.6847  -37.9689  -10.7234 C   0  0  0  0  0  0  0  0  0  0  0  0
  -15.3817  -39.9853  -11.0183 C   0  0  0  0  0  0  0  0  0  0  0  0
  -15.1965  -38.6470   -8.9748 N   0  0  0  0  0  0  0  0  0  0  0  0
  -16.2689  -37.9425   -8.3215 C   0  0  0  0  0  0  0  0  0  0  0  0
  -16.6934  -38.6419   -7.0369 C   0  0  1  0  0  0  0  0  0  0  0  0
  -17.1719  -37.6559   -6.1775 O   0  0  0  0  0  0  0  0  0  0  0  0
  -17.8975  -39.5621   -7.3239 C   0  0  2  0  0  0  0  0  0  0  0  0
  -18.3814  -40.0625   -6.0335 C   0  0  0  0  0  0  0  0  0  0  0  0
  -19.8175  -40.3058   -5.7676 C   0  0  0  0  0  0  0  0  0  0  0  0
  -19.9506  -41.5514   -5.0995 C   0  0  0  0  0  0  0  0  0  0  0  0
  -21.1412  -42.0927   -4.7082 C   0  0  0  0  0  0  0  0  0  0  0  0
  -22.2369  -41.3313   -5.0123 C   0  0  0  0  0  0  0  0  0  0  0  0
  -22.1670  -40.0831   -5.6767 C   0  0  0  0  0  0  0  0  0  0  0  0
  -23.5406  -39.5427   -5.8453 C   0  0  0  0  0  0  0  0  0  0  0  0
  -24.6534  -40.5567   -5.7848 C   0  0  0  0  0  0  0  0  0  0  0  0
  -24.6899  -41.6164   -6.7993 C   0  0  0  0  0  0  0  0  0  0  0  0
  -23.8646  -41.4259   -8.0327 C   0  0  0  0  0  0  0  0  0  0  0  0
  -23.0316  -42.5990   -8.3416 N   0  0  0  0  0  0  0  0  0  0  0  0
  -21.6227  -42.7845   -8.2098 C   0  0  0  0  0  0  0  0  0  0  0  0
  -21.3910  -44.0317   -7.5639 C   0  0  0  0  0  0  0  0  0  0  0  0
  -20.1493  -44.5109   -7.2652 C   0  0  0  0  0  0  0  0  0  0  0  0
  -19.1058  -43.7017   -7.6322 C   0  0  0  0  0  0  0  0  0  0  0  0
  -19.2768  -42.4492   -8.2785 C   0  0  0  0  0  0  0  0  0  0  0  0
  -20.5531  -41.9931   -8.5690 C   0  0  0  0  0  0  0  0  0  0  0  0
  -17.9565  -41.8395   -8.4956 C   0  0  0  0  0  0  0  0  0  0  0  0
  -17.0427  -42.6656   -8.9514 O   0  0  0  0  0  0  0  0  0  0  0  0
  -17.4842  -40.5150   -8.2994 N   0  0  0  0  0  0  0  0  0  0  0  0
  -20.9500  -39.5717   -6.0523 C   0  0  0  0  0  0  0  0  0  0  0  0
  1  2  1  0
  2  3  1  0
  2  4  1  0
  4  5  2  0
  5  6  1  0
  6  7  2  0
  7  8  1  0
  8  9  2  0
  8 10  1  0
 10 11  1  0
 10 12  1  0
 10 13  1  0
 13 14  1  0
 14 15  1  0
 15 16  1  1
 15 17  1  0
 17 18  1  1
 18 19  1  0
 19 20  1  0
 20 21  2  0
 21 22  1  0
 22 23  2  0
 23 24  1  0
 24 25  1  0
 25 26  1  0
 26 27  1  0
 27 28  1  0
 28 29  1  0
 29 30  1  0
 30 31  2  0
 31 32  1  0
 32 33  2  0
 33 34  1  0
 33 35  1  0
 35 36  2  0
 35 37  1  0
 23 38  1  0
  9  4  1  0
 34 29  2  0
 37 17  1  0
 38 19  2  0
M  END
$$$$
