
     RDKit          3D

 38 41  0  0  0  0  0  0  0  0999 V2000
  -10.5390  -37.3708  -10.4643 C   0  0  0  0  0  0  0  0  0  0  0  0
  -11.2780  -37.1152  -11.7826 C   0  0  0  0  0  0  0  0  0  0  0  0
  -11.4401  -35.6139  -11.8972 C   0  0  0  0  0  0  0  0  0  0  0  0
  -12.6183  -37.7653  -11.7607 C   0  0  0  0  0  0  0  0  0  0  0  0
  -12.7018  -39.0664  -12.2125 C   0  0  0  0  0  0  0  0  0  0  0  0
  -13.9197  -39.6715  -12.1994 C   0  0  0  0  0  0  0  0  0  0  0  0
  -15.0594  -38.9916  -11.7392 C   0  0  0  0  0  0  0  0  0  0  0  0
  -14.9804  -37.7028  -11.2906 C   0  0  0  0  0  0  0  0  0  0  0  0
  -13.7323  -37.0851  -11.3048 C   0  0  0  0  0  0  0  0  0  0  0  0
  -16.1991  -37.0275  -10.8092 C   0  0  0  0  0  0  0  0  0  0  0  0
  -16.0801  -35.5487  -11.0788 C   0  0  0  0  0  0  0  0  0  0  0  0
  -17.3392  -37.5221  -11.6881 C   0  0  0  0  0  0  0  0  0  0  0  0
  -16.4497  -37.2384   -9.4232 N   0  0  0  0  0  0  0  0  0  0  0  0
  -15.4793  -38.1451   -8.8671 C   0  0  0  0  0  0  0  0  0  0  0  0
  -15.9745  -39.5849   -8.9089 C   0  0  1  0  0  0  0  0  0  0  0  0
  -15.1081  -40.3348   -8.1173 O   0  0  0  0  0  0  0  0  0  0  0  0
  -17.3512  -39.6774   -8.2196 C   0  0  2  0  0  0  0  0  0  0  0  0
  -18.1190  -40.7140   -8.9164 C   0  0  0  0  0  0  0  0  0  0  0  0
  -19.0691  -41.6036   -8.2103 C   0  0  0  0  0  0  0  0  0  0  0  0
  -20.2579  -41.7004   -8.9804 C   0  0  0  0  0  0  0  0  0  0  0  0
  -21.3505  -42.4362   -8.6219 C   0  0  0  0  0  0  0  0  0  0  0  0
  -21.2223  -43.0972   -7.4305 C   0  0  0  0  0  0  0  0  0  0  0  0
  -20.0633  -43.0386   -6.6197 C   0  0  0  0  0  0  0  0  0  0  0  0
  -20.2749  -43.8683   -5.4056 C   0  0  0  0  0  0  0  0  0  0  0  0
  -21.7119  -44.1346   -5.0388 C   0  0  0  0  0  0  0  0  0  0  0  0
  -22.5698  -42.9938   -4.6982 C   0  0  0  0  0  0  0  0  0  0  0  0
  -21.9017  -41.6953   -4.3721 C   0  0  0  0  0  0  0  0  0  0  0  0
  -22.4720  -40.5633   -5.1196 N   0  0  0  0  0  0  0  0  0  0  0  0
  -21.9341  -39.8220   -6.2141 C   0  0  0  0  0  0  0  0  0  0  0  0
  -22.9395  -39.7027   -7.2148 C   0  0  0  0  0  0  0  0  0  0  0  0
  -22.7508  -39.0654   -8.4060 C   0  0  0  0  0  0  0  0  0  0  0  0
  -21.5029  -38.5301   -8.5921 C   0  0  0  0  0  0  0  0  0  0  0  0
  -20.4624  -38.6181   -7.6301 C   0  0  0  0  0  0  0  0  0  0  0  0
  -20.6890  -39.2716   -6.4288 C   0  0  0  0  0  0  0  0  0  0  0  0
  -19.2583  -37.9677   -8.1680 C   0  0  0  0  0  0  0  0  0  0  0  0
  -19.4784  -36.8141   -8.7562 O   0  0  0  0  0  0  0  0  0  0  0  0
  -17.8940  -38.3608   -8.1708 N   0  0  0  0  0  0  0  0  0  0  0  0
  -18.9843  -42.2888   -7.0163 C   0  0  0  0  0  0  0  0  0  0  0  0
  1  2  1  0
  2  3  1  0
  2  4  1  0
  4  5  2  0
  5  6  1  0
  6  7  2  0
  7  8  1  0
  8  9  2  0
  8 10  1  0
 10 11  1  0
 10 12  1  0
 10 13  1  0
 13 14  1  0
 14 15  1  0
 15 16  1  1
 15 17  1  0
 17 18  1  6
 18 19  1  0
 19 20  1  0
 20 21  2  0
 21 22  1  0
 22 23  2  0
 23 24  1  0
 24 25  1  0
 25 26  1  0
 26 27  1  0
 27 28  1  0
 28 29  1  0
 29 30  1  0
 30 31  2  0
 31 32  1  0
 32 33  2  0
 33 34  1  0
 33 35  1  0
 35 36  2  0
 35 37  1  0
 23 38  1  0
  9  4  1  0
 34 29  2  0
 37 17  1  0
 38 19  2  0
M  END
$$$$
