
     RDKit          3D

 38 41  0  0  0  0  0  0  0  0999 V2000
  -23.1687  -37.5897   -6.2266 C   0  0  0  0  0  0  0  0  0  0  0  0
  -22.8069  -39.0222   -6.6344 C   0  0  0  0  0  0  0  0  0  0  0  0
  -22.2704  -39.6979   -5.3900 C   0  0  0  0  0  0  0  0  0  0  0  0
  -21.7580  -39.0113   -7.6924 C   0  0  0  0  0  0  0  0  0  0  0  0
  -22.1547  -39.2888   -8.9846 C   0  0  0  0  0  0  0  0  0  0  0  0
  -21.2071  -39.2837   -9.9600 C   0  0  0  0  0  0  0  0  0  0  0  0
  -19.8636  -39.0040   -9.6607 C   0  0  0  0  0  0  0  0  0  0  0  0
  -19.4670  -38.7284   -8.3819 C   0  0  0  0  0  0  0  0  0  0  0  0
  -20.4390  -38.7340   -7.3845 C   0  0  0  0  0  0  0  0  0  0  0  0
  -18.0483  -38.4329   -8.1113 C   0  0  0  0  0  0  0  0  0  0  0  0
  -17.2415  -38.7203   -9.3523 C   0  0  0  0  0  0  0  0  0  0  0  0
  -17.9575  -36.9294   -7.8925 C   0  0  0  0  0  0  0  0  0  0  0  0
  -17.5171  -39.1749   -7.0178 N   0  0  0  0  0  0  0  0  0  0  0  0
  -16.1131  -39.4270   -7.2135 C   0  0  0  0  0  0  0  0  0  0  0  0
  -15.8802  -40.4614   -8.3069 C   0  0  1  0  0  0  0  0  0  0  0  0
  -14.5727  -40.9183   -8.1610 O   0  0  0  0  0  0  0  0  0  0  0  0
  -16.7792  -41.6893   -8.0556 C   0  0  2  0  0  0  0  0  0  0  0  0
  -17.2405  -42.1669   -9.3628 C   0  0  0  0  0  0  0  0  0  0  0  0
  -17.4458  -43.6044   -9.6523 C   0  0  0  0  0  0  0  0  0  0  0  0
  -18.6733  -43.7562  -10.3493 C   0  0  0  0  0  0  0  0  0  0  0  0
  -19.1791  -44.9532  -10.7676 C   0  0  0  0  0  0  0  0  0  0  0  0
  -18.4001  -46.0357  -10.4609 C   0  0  0  0  0  0  0  0  0  0  0  0
  -17.1685  -45.9470   -9.7684 C   0  0  0  0  0  0  0  0  0  0  0  0
  -16.6011  -47.3104   -9.6056 C   0  0  0  0  0  0  0  0  0  0  0  0
  -17.5884  -48.4445   -9.7025 C   0  0  0  0  0  0  0  0  0  0  0  0
  -18.6688  -48.5180   -8.7121 C   0  0  0  0  0  0  0  0  0  0  0  0
  -18.5237  -47.7051   -7.4644 C   0  0  0  0  0  0  0  0  0  0  0  0
  -19.7216  -46.9025   -7.1707 N   0  0  0  0  0  0  0  0  0  0  0  0
  -19.9357  -45.4964   -7.2885 C   0  0  0  0  0  0  0  0  0  0  0  0
  -21.1735  -45.2838   -7.9587 C   0  0  0  0  0  0  0  0  0  0  0  0
  -21.6738  -44.0492   -8.2519 C   0  0  0  0  0  0  0  0  0  0  0  0
  -20.8964  -42.9930   -7.8539 C   0  0  0  0  0  0  0  0  0  0  0  0
  -19.6547  -43.1448   -7.1824 C   0  0  0  0  0  0  0  0  0  0  0  0
  -19.1764  -44.4144   -6.8983 C   0  0  0  0  0  0  0  0  0  0  0  0
  -19.0796  -41.8142   -6.9351 C   0  0  0  0  0  0  0  0  0  0  0  0
  -19.9357  -40.9251   -6.4859 O   0  0  0  0  0  0  0  0  0  0  0  0
  -17.7621  -41.3101   -7.0961 N   0  0  0  0  0  0  0  0  0  0  0  0
  -16.6928  -44.7241   -9.3661 C   0  0  0  0  0  0  0  0  0  0  0  0
  1  2  1  0
  2  3  1  0
  2  4  1  0
  4  5  2  0
  5  6  1  0
  6  7  2  0
  7  8  1  0
  8  9  2  0
  8 10  1  0
 10 11  1  0
 10 12  1  0
 10 13  1  0
 13 14  1  0
 14 15  1  0
 15 16  1  1
 15 17  1  0
 17 18  1  6
 18 19  1  0
 19 20  1  0
 20 21  2  0
 21 22  1  0
 22 23  2  0
 23 24  1  0
 24 25  1  0
 25 26  1  0
 26 27  1  0
 27 28  1  0
 28 29  1  0
 29 30  1  0
 30 31  2  0
 31 32  1  0
 32 33  2  0
 33 34  1  0
 33 35  1  0
 35 36  2  0
 35 37  1  0
 23 38  1  0
  9  4  1  0
 34 29  2  0
 37 17  1  0
 38 19  2  0
M  END
$$$$
