
     RDKit          3D

 38 41  0  0  0  0  0  0  0  0999 V2000
  -23.4519  -41.7398   -3.7168 C   0  0  0  0  0  0  0  0  0  0  0  0
  -22.1795  -40.8855   -3.7310 C   0  0  0  0  0  0  0  0  0  0  0  0
  -22.2142  -40.0467   -2.4707 C   0  0  0  0  0  0  0  0  0  0  0  0
  -22.1648  -39.9963   -4.9264 C   0  0  0  0  0  0  0  0  0  0  0  0
  -23.2175  -39.1173   -5.0784 C   0  0  0  0  0  0  0  0  0  0  0  0
  -23.2174  -38.3008   -6.1660 C   0  0  0  0  0  0  0  0  0  0  0  0
  -22.1759  -38.3509   -7.1071 C   0  0  0  0  0  0  0  0  0  0  0  0
  -21.1313  -39.2202   -6.9595 C   0  0  0  0  0  0  0  0  0  0  0  0
  -21.1333  -40.0553   -5.8451 C   0  0  0  0  0  0  0  0  0  0  0  0
  -20.0545  -39.2361   -7.9662 C   0  0  0  0  0  0  0  0  0  0  0  0
  -20.5615  -39.9086   -9.2169 C   0  0  0  0  0  0  0  0  0  0  0  0
  -19.8007  -37.7841   -8.3459 C   0  0  0  0  0  0  0  0  0  0  0  0
  -18.8744  -39.8956   -7.5181 N   0  0  0  0  0  0  0  0  0  0  0  0
  -18.0124  -38.9728   -6.8262 C   0  0  0  0  0  0  0  0  0  0  0  0
  -17.0061  -38.3333   -7.7739 C   0  0  1  0  0  0  0  0  0  0  0  0
  -16.0466  -37.7058   -6.9832 O   0  0  0  0  0  0  0  0  0  0  0  0
  -16.2516  -39.4352   -8.5457 C   0  0  2  0  0  0  0  0  0  0  0  0
  -15.8932  -38.8827   -9.8557 C   0  0  0  0  0  0  0  0  0  0  0  0
  -14.6331  -39.2393  -10.5466 C   0  0  0  0  0  0  0  0  0  0  0  0
  -14.9207  -39.4900  -11.9141 C   0  0  0  0  0  0  0  0  0  0  0  0
  -13.9888  -39.8520  -12.8438 C   0  0  0  0  0  0  0  0  0  0  0  0
  -12.7149  -39.9620  -12.3560 C   0  0  0  0  0  0  0  0  0  0  0  0
  -12.3677  -39.7254  -11.0041 C   0  0  0  0  0  0  0  0  0  0  0  0
  -10.9080  -39.9411  -10.8305 C   0  0  0  0  0  0  0  0  0  0  0  0
  -10.2472  -40.8060  -11.8724 C   0  0  0  0  0  0  0  0  0  0  0  0
  -10.6793  -42.2027  -11.9986 C   0  0  0  0  0  0  0  0  0  0  0  0
  -11.4644  -42.7917  -10.8692 C   0  0  0  0  0  0  0  0  0  0  0  0
  -12.6920  -43.4632  -11.3245 N   0  0  0  0  0  0  0  0  0  0  0  0
  -14.0560  -43.0598  -11.2079 C   0  0  0  0  0  0  0  0  0  0  0  0
  -14.6838  -43.2221  -12.4752 C   0  0  0  0  0  0  0  0  0  0  0  0
  -15.9890  -42.9102  -12.7194 C   0  0  0  0  0  0  0  0  0  0  0  0
  -16.6838  -42.4176  -11.6457 C   0  0  0  0  0  0  0  0  0  0  0  0
  -16.1104  -42.2349  -10.3598 C   0  0  0  0  0  0  0  0  0  0  0  0
  -14.7810  -42.5639  -10.1458 C   0  0  0  0  0  0  0  0  0  0  0  0
  -17.1244  -41.6628   -9.4615 C   0  0  0  0  0  0  0  0  0  0  0  0
  -18.3095  -42.2220   -9.5506 O   0  0  0  0  0  0  0  0  0  0  0  0
  -17.0583  -40.6093   -8.5120 N   0  0  0  0  0  0  0  0  0  0  0  0
  -13.3338  -39.3611  -10.1000 C   0  0  0  0  0  0  0  0  0  0  0  0
  1  2  1  0
  2  3  1  0
  2  4  1  0
  4  5  2  0
  5  6  1  0
  6  7  2  0
  7  8  1  0
  8  9  2  0
  8 10  1  0
 10 11  1  0
 10 12  1  0
 10 13  1  0
 13 14  1  0
 14 15  1  0
 15 16  1  1
 15 17  1  0
 17 18  1  6
 18 19  1  0
 19 20  1  0
 20 21  2  0
 21 22  1  0
 22 23  2  0
 23 24  1  0
 24 25  1  0
 25 26  1  0
 26 27  1  0
 27 28  1  0
 28 29  1  0
 29 30  1  0
 30 31  2  0
 31 32  1  0
 32 33  2  0
 33 34  1  0
 33 35  1  0
 35 36  2  0
 35 37  1  0
 23 38  1  0
  9  4  1  0
 34 29  2  0
 37 17  1  0
 38 19  2  0
M  END
$$$$
