
     RDKit          3D

 34 35  0  0  0  0  0  0  0  0999 V2000
  -24.6377  -43.7407   -6.4456 C   0  0  0  0  0  0  0  0  0  0  0  0
  -23.4061  -42.9963   -6.0497 C   0  0  0  0  0  0  0  0  0  0  0  0
  -23.2187  -41.6984   -6.7809 C   0  0  0  0  0  0  0  0  0  0  0  0
  -22.0781  -40.9702   -6.1458 C   0  0  0  0  0  0  0  0  0  0  0  0
  -20.7472  -41.0644   -6.4918 C   0  0  0  0  0  0  0  0  0  0  0  0
  -20.0569  -40.2341   -5.6575 C   0  0  0  0  0  0  0  0  0  0  0  0
  -18.5798  -39.9673   -5.6134 C   0  0  0  0  0  0  0  0  0  0  0  0
  -18.0094  -40.2450   -6.9175 N   0  0  0  0  0  0  0  0  0  0  0  0
  -16.5910  -40.0635   -6.9106 C   0  0  0  0  0  0  0  0  0  0  0  0
  -16.1399  -38.9090   -7.7167 C   0  0  1  0  0  0  0  0  0  0  0  0
  -15.4618  -37.9850   -6.9213 O   0  0  0  0  0  0  0  0  0  0  0  0
  -15.4606  -39.1940   -9.0080 C   0  0  2  0  0  0  0  0  0  0  0  0
  -14.8392  -38.0893   -9.7498 C   0  0  0  0  0  0  0  0  0  0  0  0
  -15.5069  -36.7878   -9.8738 C   0  0  2  0  0  0  0  0  0  0  0  0
  -16.6954  -36.7165  -10.7976 C   0  0  0  0  0  0  0  0  0  0  0  0
  -14.4575  -35.8597  -10.5361 C   0  0  0  0  0  0  0  0  0  0  0  0
  -13.8615  -36.5491  -11.7440 C   0  0  0  0  0  0  0  0  0  0  0  0
  -13.2723  -35.5653  -12.7302 C   0  0  0  0  0  0  0  0  0  0  0  0
  -13.4133  -36.1759  -14.1257 C   0  0  0  0  0  0  0  0  0  0  0  0
  -12.1299  -36.7302  -14.6484 C   0  0  0  0  0  0  0  0  0  0  0  0
  -12.0786  -38.2452  -14.6632 C   0  0  0  0  0  0  0  0  0  0  0  0
  -12.2535  -38.8219  -13.4326 O   0  0  0  0  0  0  0  0  0  0  0  0
  -12.7669  -40.1138  -13.5110 C   0  0  0  0  0  0  0  0  0  0  0  0
  -12.9659  -40.6861  -12.1659 C   0  0  0  0  0  0  0  0  0  0  0  0
  -11.9464  -40.8391  -11.4443 O   0  0  0  0  0  0  0  0  0  0  0  0
  -14.2199  -41.0691  -11.6441 N   0  0  0  0  0  0  0  0  0  0  0  0
  -14.3213  -42.0519  -10.5839 C   0  0  0  0  0  0  0  0  0  0  0  0
  -15.4228  -40.4721  -12.1760 C   0  0  1  0  0  0  0  0  0  0  0  0
  -15.9337  -41.4708  -13.2282 C   0  0  0  0  0  0  0  0  0  0  0  0
  -16.4681  -40.2056  -11.1575 C   0  0  0  0  0  0  0  0  0  0  0  0
  -17.6536  -40.0828  -11.6482 O   0  0  0  0  0  0  0  0  0  0  0  0
  -16.3187  -40.0768   -9.7711 N   0  0  0  0  0  0  0  0  0  0  0  0
  -20.9664  -39.6659   -4.8403 N   0  0  0  0  0  0  0  0  0  0  0  0
  -22.1730  -40.0973   -5.1225 N   0  0  0  0  0  0  0  0  0  0  0  0
  1  2  1  0
  2  3  1  0
  3  4  1  0
  4  5  2  0
  5  6  1  0
  6  7  1  0
  7  8  1  0
  8  9  1  0
  9 10  1  0
 10 11  1  1
 10 12  1  0
 12 13  1  6
 13 14  1  0
 14 15  1  6
 14 16  1  0
 16 17  1  0
 17 18  1  0
 18 19  1  0
 19 20  1  0
 20 21  1  0
 21 22  1  0
 22 23  1  0
 23 24  1  0
 24 25  2  0
 24 26  1  0
 26 27  1  0
 26 28  1  0
 28 29  1  6
 28 30  1  0
 30 31  2  0
 30 32  1  0
  6 33  2  0
 33 34  1  0
 32 12  1  0
 34  4  1  0
M  END
$$$$
