
     RDKit          3D

 34 35  0  0  0  0  0  0  0  0999 V2000
  -12.3379  -41.1227  -15.7488 C   0  0  0  0  0  0  0  0  0  0  0  0
  -12.0669  -40.8395  -14.3086 C   0  0  0  0  0  0  0  0  0  0  0  0
  -12.9566  -41.5932  -13.3628 C   0  0  0  0  0  0  0  0  0  0  0  0
  -12.9635  -40.8668  -12.0563 C   0  0  0  0  0  0  0  0  0  0  0  0
  -13.1569  -41.4199  -10.8086 C   0  0  0  0  0  0  0  0  0  0  0  0
  -13.0852  -40.4012   -9.9036 C   0  0  0  0  0  0  0  0  0  0  0  0
  -13.2272  -40.4635   -8.4100 C   0  0  0  0  0  0  0  0  0  0  0  0
  -14.6216  -40.6804   -8.0757 N   0  0  0  0  0  0  0  0  0  0  0  0
  -15.4492  -39.6459   -8.6140 C   0  0  0  0  0  0  0  0  0  0  0  0
  -16.6936  -39.4264   -7.8462 C   0  0  1  0  0  0  0  0  0  0  0  0
  -17.0815  -38.0876   -7.9050 O   0  0  0  0  0  0  0  0  0  0  0  0
  -17.8133  -40.3801   -8.0621 C   0  0  2  0  0  0  0  0  0  0  0  0
  -19.1688  -39.8570   -8.2766 C   0  0  0  0  0  0  0  0  0  0  0  0
  -19.6841  -38.7353   -7.4821 C   0  0  2  0  0  0  0  0  0  0  0  0
  -20.0413  -39.0237   -6.0467 C   0  0  0  0  0  0  0  0  0  0  0  0
  -21.0368  -38.3648   -8.1409 C   0  0  0  0  0  0  0  0  0  0  0  0
  -21.8600  -39.6174   -8.3478 C   0  0  0  0  0  0  0  0  0  0  0  0
  -23.3382  -39.3175   -8.4598 C   0  0  0  0  0  0  0  0  0  0  0  0
  -24.0939  -40.5269   -7.9063 C   0  0  0  0  0  0  0  0  0  0  0  0
  -24.6783  -41.3854   -8.9780 C   0  0  0  0  0  0  0  0  0  0  0  0
  -23.9531  -42.7027   -9.1705 C   0  0  0  0  0  0  0  0  0  0  0  0
  -22.6273  -42.5688   -9.4894 O   0  0  0  0  0  0  0  0  0  0  0  0
  -21.8677  -43.6727   -9.1108 C   0  0  0  0  0  0  0  0  0  0  0  0
  -20.4448  -43.4755   -9.4464 C   0  0  0  0  0  0  0  0  0  0  0  0
  -20.1488  -43.3426  -10.6622 O   0  0  0  0  0  0  0  0  0  0  0  0
  -19.4042  -43.4275   -8.4942 N   0  0  0  0  0  0  0  0  0  0  0  0
  -18.0370  -43.7354   -8.8630 C   0  0  0  0  0  0  0  0  0  0  0  0
  -19.7070  -43.0661   -7.1290 C   0  0  1  0  0  0  0  0  0  0  0  0
  -19.8683  -44.4038   -6.3873 C   0  0  0  0  0  0  0  0  0  0  0  0
  -18.6679  -42.2302   -6.4791 C   0  0  0  0  0  0  0  0  0  0  0  0
  -18.7076  -42.2584   -5.1911 O   0  0  0  0  0  0  0  0  0  0  0  0
  -17.6822  -41.4411   -7.0848 N   0  0  0  0  0  0  0  0  0  0  0  0
  -12.8543  -39.2752  -10.6084 N   0  0  0  0  0  0  0  0  0  0  0  0
  -12.7801  -39.5413  -11.8911 N   0  0  0  0  0  0  0  0  0  0  0  0
  1  2  1  0
  2  3  1  0
  3  4  1  0
  4  5  2  0
  5  6  1  0
  6  7  1  0
  7  8  1  0
  8  9  1  0
  9 10  1  0
 10 11  1  6
 10 12  1  0
 12 13  1  1
 13 14  1  0
 14 15  1  1
 14 16  1  0
 16 17  1  0
 17 18  1  0
 18 19  1  0
 19 20  1  0
 20 21  1  0
 21 22  1  0
 22 23  1  0
 23 24  1  0
 24 25  2  0
 24 26  1  0
 26 27  1  0
 26 28  1  0
 28 29  1  1
 28 30  1  0
 30 31  2  0
 30 32  1  0
  6 33  2  0
 33 34  1  0
 32 12  1  0
 34  4  1  0
M  END
$$$$
