
     RDKit          3D

 34 35  0  0  0  0  0  0  0  0999 V2000
  -13.8998  -36.4978  -15.4771 C   0  0  0  0  0  0  0  0  0  0  0  0
  -13.7110  -37.1548  -14.1503 C   0  0  0  0  0  0  0  0  0  0  0  0
  -12.6367  -36.5283  -13.3089 C   0  0  0  0  0  0  0  0  0  0  0  0
  -12.5902  -37.2538  -12.0028 C   0  0  0  0  0  0  0  0  0  0  0  0
  -12.9979  -38.5491  -11.7662 C   0  0  0  0  0  0  0  0  0  0  0  0
  -12.7794  -38.8023  -10.4433 C   0  0  0  0  0  0  0  0  0  0  0  0
  -13.0502  -40.0630   -9.6737 C   0  0  0  0  0  0  0  0  0  0  0  0
  -13.7695  -39.7309   -8.4590 N   0  0  0  0  0  0  0  0  0  0  0  0
  -14.8738  -40.6158   -8.2537 C   0  0  0  0  0  0  0  0  0  0  0  0
  -16.1902  -39.9730   -8.4542 C   0  0  1  0  0  0  0  0  0  0  0  0
  -16.2533  -39.3537   -9.7027 O   0  0  0  0  0  0  0  0  0  0  0  0
  -17.4021  -40.7674   -8.1222 C   0  0  2  0  0  0  0  0  0  0  0  0
  -18.7184  -40.1172   -8.1632 C   0  0  0  0  0  0  0  0  0  0  0  0
  -18.9127  -38.7625   -7.6323 C   0  0  2  0  0  0  0  0  0  0  0  0
  -18.9034  -38.6099   -6.1330 C   0  0  0  0  0  0  0  0  0  0  0  0
  -20.3555  -38.3736   -8.0426 C   0  0  0  0  0  0  0  0  0  0  0  0
  -21.3046  -39.4960   -7.6834 C   0  0  0  0  0  0  0  0  0  0  0  0
  -22.7304  -39.0132   -7.5364 C   0  0  0  0  0  0  0  0  0  0  0  0
  -23.4117  -39.9070   -6.4985 C   0  0  0  0  0  0  0  0  0  0  0  0
  -24.3257  -40.9148   -7.1119 C   0  0  0  0  0  0  0  0  0  0  0  0
  -23.7877  -42.3317   -7.0747 C   0  0  0  0  0  0  0  0  0  0  0  0
  -22.5856  -42.4895   -7.7131 O   0  0  0  0  0  0  0  0  0  0  0  0
  -21.8472  -43.5597   -7.2150 C   0  0  0  0  0  0  0  0  0  0  0  0
  -20.5509  -43.6764   -7.9094 C   0  0  0  0  0  0  0  0  0  0  0  0
  -20.5744  -43.9108   -9.1455 O   0  0  0  0  0  0  0  0  0  0  0  0
  -19.2967  -43.5422   -7.2764 N   0  0  0  0  0  0  0  0  0  0  0  0
  -18.1044  -44.1405   -7.8426 C   0  0  0  0  0  0  0  0  0  0  0  0
  -19.1998  -42.7965   -6.0433 C   0  0  1  0  0  0  0  0  0  0  0  0
  -19.2707  -43.8546   -4.9293 C   0  0  0  0  0  0  0  0  0  0  0  0
  -17.9612  -41.9894   -5.9193 C   0  0  0  0  0  0  0  0  0  0  0  0
  -17.6638  -41.6755   -4.7051 O   0  0  0  0  0  0  0  0  0  0  0  0
  -17.1073  -41.5451   -6.9364 N   0  0  0  0  0  0  0  0  0  0  0  0
  -12.2544  -37.6773   -9.9172 N   0  0  0  0  0  0  0  0  0  0  0  0
  -12.1376  -36.7491  -10.8373 N   0  0  0  0  0  0  0  0  0  0  0  0
  1  2  1  0
  2  3  1  0
  3  4  1  0
  4  5  2  0
  5  6  1  0
  6  7  1  0
  7  8  1  0
  8  9  1  0
  9 10  1  0
 10 11  1  6
 10 12  1  0
 12 13  1  1
 13 14  1  0
 14 15  1  1
 14 16  1  0
 16 17  1  0
 17 18  1  0
 18 19  1  0
 19 20  1  0
 20 21  1  0
 21 22  1  0
 22 23  1  0
 23 24  1  0
 24 25  2  0
 24 26  1  0
 26 27  1  0
 26 28  1  0
 28 29  1  1
 28 30  1  0
 30 31  2  0
 30 32  1  0
  6 33  2  0
 33 34  1  0
 32 12  1  0
 34  4  1  0
M  END
$$$$
