
     RDKit          3D

 34 35  0  0  0  0  0  0  0  0999 V2000
  -24.0257  -37.6474   -5.5950 C   0  0  0  0  0  0  0  0  0  0  0  0
  -22.9454  -38.6402   -5.3209 C   0  0  0  0  0  0  0  0  0  0  0  0
  -22.4685  -39.3726   -6.5417 C   0  0  0  0  0  0  0  0  0  0  0  0
  -21.4393  -40.3677   -6.1115 C   0  0  0  0  0  0  0  0  0  0  0  0
  -20.1127  -40.3927   -6.4847 C   0  0  0  0  0  0  0  0  0  0  0  0
  -19.5421  -41.4651   -5.8631 C   0  0  0  0  0  0  0  0  0  0  0  0
  -18.1193  -41.9403   -5.9330 C   0  0  0  0  0  0  0  0  0  0  0  0
  -17.3445  -41.0007   -6.7203 N   0  0  0  0  0  0  0  0  0  0  0  0
  -18.1552  -39.9129   -7.1722 C   0  0  0  0  0  0  0  0  0  0  0  0
  -18.0229  -39.6397   -8.6193 C   0  0  1  0  0  0  0  0  0  0  0  0
  -19.0088  -38.7502   -9.0471 O   0  0  0  0  0  0  0  0  0  0  0  0
  -16.6671  -39.3197   -9.1385 C   0  0  2  0  0  0  0  0  0  0  0  0
  -16.4193  -37.9975   -9.7279 C   0  0  0  0  0  0  0  0  0  0  0  0
  -17.3999  -37.3687  -10.6213 C   0  0  2  0  0  0  0  0  0  0  0  0
  -17.5260  -37.9442  -12.0084 C   0  0  0  0  0  0  0  0  0  0  0  0
  -16.8670  -35.9326  -10.8551 C   0  0  0  0  0  0  0  0  0  0  0  0
  -15.4005  -35.9897  -11.2230 C   0  0  0  0  0  0  0  0  0  0  0  0
  -14.9525  -34.7575  -11.9773 C   0  0  0  0  0  0  0  0  0  0  0  0
  -13.8270  -35.1831  -12.9219 C   0  0  0  0  0  0  0  0  0  0  0  0
  -12.4755  -34.7839  -12.4302 C   0  0  0  0  0  0  0  0  0  0  0  0
  -11.6456  -35.9423  -11.9130 C   0  0  0  0  0  0  0  0  0  0  0  0
  -12.2259  -36.6263  -10.8772 O   0  0  0  0  0  0  0  0  0  0  0  0
  -11.7933  -37.9472  -10.7942 C   0  0  0  0  0  0  0  0  0  0  0  0
  -12.4623  -38.6539   -9.6856 C   0  0  0  0  0  0  0  0  0  0  0  0
  -12.2613  -38.2255   -8.5196 O   0  0  0  0  0  0  0  0  0  0  0  0
  -13.3070  -39.7722   -9.8522 N   0  0  0  0  0  0  0  0  0  0  0  0
  -13.5251  -40.7135   -8.7722 C   0  0  0  0  0  0  0  0  0  0  0  0
  -13.9648  -39.9824  -11.1208 C   0  0  1  0  0  0  0  0  0  0  0  0
  -13.0651  -40.9731  -11.8787 C   0  0  0  0  0  0  0  0  0  0  0  0
  -15.3457  -40.5127  -11.0065 C   0  0  0  0  0  0  0  0  0  0  0  0
  -15.7721  -41.0895  -12.0774 O   0  0  0  0  0  0  0  0  0  0  0  0
  -16.2091  -40.4600   -9.9052 N   0  0  0  0  0  0  0  0  0  0  0  0
  -20.5160  -42.0550   -5.1410 N   0  0  0  0  0  0  0  0  0  0  0  0
  -21.6496  -41.4095   -5.2818 N   0  0  0  0  0  0  0  0  0  0  0  0
  1  2  1  0
  2  3  1  0
  3  4  1  0
  4  5  2  0
  5  6  1  0
  6  7  1  0
  7  8  1  0
  8  9  1  0
  9 10  1  0
 10 11  1  1
 10 12  1  0
 12 13  1  6
 13 14  1  0
 14 15  1  6
 14 16  1  0
 16 17  1  0
 17 18  1  0
 18 19  1  0
 19 20  1  0
 20 21  1  0
 21 22  1  0
 22 23  1  0
 23 24  1  0
 24 25  2  0
 24 26  1  0
 26 27  1  0
 26 28  1  0
 28 29  1  6
 28 30  1  0
 30 31  2  0
 30 32  1  0
  6 33  2  0
 33 34  1  0
 32 12  1  0
 34  4  1  0
M  END
$$$$
