
     RDKit          3D

 34 35  0  0  0  0  0  0  0  0999 V2000
  -13.0387  -34.1516  -11.6687 C   0  0  0  0  0  0  0  0  0  0  0  0
  -12.9326  -34.6473  -13.0725 C   0  0  0  0  0  0  0  0  0  0  0  0
  -13.9904  -35.6449  -13.4468 C   0  0  0  0  0  0  0  0  0  0  0  0
  -13.6133  -36.9638  -12.8527 C   0  0  0  0  0  0  0  0  0  0  0  0
  -14.0578  -37.4843  -11.6563 C   0  0  0  0  0  0  0  0  0  0  0  0
  -13.4633  -38.7032  -11.5045 C   0  0  0  0  0  0  0  0  0  0  0  0
  -13.6081  -39.6817  -10.3747 C   0  0  0  0  0  0  0  0  0  0  0  0
  -14.5430  -39.1479   -9.4030 N   0  0  0  0  0  0  0  0  0  0  0  0
  -15.8939  -39.4355   -9.7732 C   0  0  0  0  0  0  0  0  0  0  0  0
  -16.8654  -39.2118   -8.6811 C   0  0  1  0  0  0  0  0  0  0  0  0
  -17.4817  -37.9674   -8.8146 O   0  0  0  0  0  0  0  0  0  0  0  0
  -17.8120  -40.3136   -8.3650 C   0  0  2  0  0  0  0  0  0  0  0  0
  -19.1728  -39.9840   -7.9218 C   0  0  0  0  0  0  0  0  0  0  0  0
  -19.4175  -38.8967   -6.9664 C   0  0  2  0  0  0  0  0  0  0  0  0
  -19.0302  -39.1493   -5.5321 C   0  0  0  0  0  0  0  0  0  0  0  0
  -20.9587  -38.7423   -6.9199 C   0  0  0  0  0  0  0  0  0  0  0  0
  -21.5989  -40.1010   -6.7365 C   0  0  0  0  0  0  0  0  0  0  0  0
  -22.9888  -40.0026   -6.1481 C   0  0  0  0  0  0  0  0  0  0  0  0
  -23.2265  -41.2676   -5.3214 C   0  0  0  0  0  0  0  0  0  0  0  0
  -24.1107  -42.2529   -6.0106 C   0  0  0  0  0  0  0  0  0  0  0  0
  -23.3776  -43.4732   -6.5319 C   0  0  0  0  0  0  0  0  0  0  0  0
  -22.3806  -43.1857   -7.4267 O   0  0  0  0  0  0  0  0  0  0  0  0
  -21.3850  -44.1587   -7.4552 C   0  0  0  0  0  0  0  0  0  0  0  0
  -20.3194  -43.7969   -8.4091 C   0  0  0  0  0  0  0  0  0  0  0  0
  -20.6375  -43.6940   -9.6222 O   0  0  0  0  0  0  0  0  0  0  0  0
  -18.9760  -43.5613   -8.0463 N   0  0  0  0  0  0  0  0  0  0  0  0
  -17.9034  -43.7085   -9.0095 C   0  0  0  0  0  0  0  0  0  0  0  0
  -18.6649  -43.1674   -6.6919 C   0  0  1  0  0  0  0  0  0  0  0  0
  -18.2768  -44.4716   -5.9751 C   0  0  0  0  0  0  0  0  0  0  0  0
  -17.5728  -42.1687   -6.5874 C   0  0  0  0  0  0  0  0  0  0  0  0
  -17.0116  -42.1306   -5.4277 O   0  0  0  0  0  0  0  0  0  0  0  0
  -17.0982  -41.2928   -7.5716 N   0  0  0  0  0  0  0  0  0  0  0  0
  -12.6869  -38.8911  -12.5907 N   0  0  0  0  0  0  0  0  0  0  0  0
  -12.7690  -37.8614  -13.3998 N   0  0  0  0  0  0  0  0  0  0  0  0
  1  2  1  0
  2  3  1  0
  3  4  1  0
  4  5  2  0
  5  6  1  0
  6  7  1  0
  7  8  1  0
  8  9  1  0
  9 10  1  0
 10 11  1  6
 10 12  1  0
 12 13  1  1
 13 14  1  0
 14 15  1  1
 14 16  1  0
 16 17  1  0
 17 18  1  0
 18 19  1  0
 19 20  1  0
 20 21  1  0
 21 22  1  0
 22 23  1  0
 23 24  1  0
 24 25  2  0
 24 26  1  0
 26 27  1  0
 26 28  1  0
 28 29  1  1
 28 30  1  0
 30 31  2  0
 30 32  1  0
  6 33  2  0
 33 34  1  0
 32 12  1  0
 34  4  1  0
M  END
$$$$
