
     RDKit          3D

 34 35  0  0  0  0  0  0  0  0999 V2000
  -14.1753  -43.1538  -12.9593 C   0  0  0  0  0  0  0  0  0  0  0  0
  -13.4815  -42.0194  -13.6372 C   0  0  0  0  0  0  0  0  0  0  0  0
  -13.9350  -40.6651  -13.1742 C   0  0  0  0  0  0  0  0  0  0  0  0
  -13.3196  -40.4034  -11.8372 C   0  0  0  0  0  0  0  0  0  0  0  0
  -13.8646  -39.6606  -10.8120 C   0  0  0  0  0  0  0  0  0  0  0  0
  -12.9696  -39.6824   -9.7822 C   0  0  0  0  0  0  0  0  0  0  0  0
  -13.0771  -39.0300   -8.4339 C   0  0  0  0  0  0  0  0  0  0  0  0
  -14.4303  -38.5417   -8.2508 N   0  0  0  0  0  0  0  0  0  0  0  0
  -15.2949  -39.5788   -7.7801 C   0  0  0  0  0  0  0  0  0  0  0  0
  -16.7304  -39.2353   -7.8674 C   0  0  1  0  0  0  0  0  0  0  0  0
  -16.9626  -38.3423   -8.9138 O   0  0  0  0  0  0  0  0  0  0  0  0
  -17.7104  -40.3517   -7.8096 C   0  0  2  0  0  0  0  0  0  0  0  0
  -19.1462  -40.0485   -7.8684 C   0  0  0  0  0  0  0  0  0  0  0  0
  -19.7140  -38.9164   -7.1260 C   0  0  2  0  0  0  0  0  0  0  0  0
  -19.8251  -39.0686   -5.6309 C   0  0  0  0  0  0  0  0  0  0  0  0
  -21.1841  -38.8184   -7.6060 C   0  0  0  0  0  0  0  0  0  0  0  0
  -21.8269  -40.1872   -7.5534 C   0  0  0  0  0  0  0  0  0  0  0  0
  -23.3350  -40.1071   -7.4695 C   0  0  0  0  0  0  0  0  0  0  0  0
  -23.8153  -41.3289   -6.6843 C   0  0  0  0  0  0  0  0  0  0  0  0
  -24.4018  -42.3863   -7.5592 C   0  0  0  0  0  0  0  0  0  0  0  0
  -23.5171  -43.6066   -7.7215 C   0  0  0  0  0  0  0  0  0  0  0  0
  -22.2828  -43.3350   -8.2509 O   0  0  0  0  0  0  0  0  0  0  0  0
  -21.3196  -44.2694   -7.8794 C   0  0  0  0  0  0  0  0  0  0  0  0
  -20.0022  -43.9245   -8.4466 C   0  0  0  0  0  0  0  0  0  0  0  0
  -19.8975  -43.9059   -9.7004 O   0  0  0  0  0  0  0  0  0  0  0  0
  -18.8617  -43.6167   -7.6743 N   0  0  0  0  0  0  0  0  0  0  0  0
  -17.5263  -43.7799   -8.2130 C   0  0  0  0  0  0  0  0  0  0  0  0
  -19.0281  -43.1316   -6.3241 C   0  0  1  0  0  0  0  0  0  0  0  0
  -18.8815  -44.3752   -5.4312 C   0  0  0  0  0  0  0  0  0  0  0  0
  -18.0502  -42.0876   -5.9308 C   0  0  0  0  0  0  0  0  0  0  0  0
  -17.9102  -41.9593   -4.6560 O   0  0  0  0  0  0  0  0  0  0  0  0
  -17.2877  -41.2542   -6.7586 N   0  0  0  0  0  0  0  0  0  0  0  0
  -11.9224  -40.4233  -10.1974 N   0  0  0  0  0  0  0  0  0  0  0  0
  -12.1207  -40.8573  -11.4197 N   0  0  0  0  0  0  0  0  0  0  0  0
  1  2  1  0
  2  3  1  0
  3  4  1  0
  4  5  2  0
  5  6  1  0
  6  7  1  0
  7  8  1  0
  8  9  1  0
  9 10  1  0
 10 11  1  6
 10 12  1  0
 12 13  1  1
 13 14  1  0
 14 15  1  1
 14 16  1  0
 16 17  1  0
 17 18  1  0
 18 19  1  0
 19 20  1  0
 20 21  1  0
 21 22  1  0
 22 23  1  0
 23 24  1  0
 24 25  2  0
 24 26  1  0
 26 27  1  0
 26 28  1  0
 28 29  1  1
 28 30  1  0
 30 31  2  0
 30 32  1  0
  6 33  2  0
 33 34  1  0
 32 12  1  0
 34  4  1  0
M  END
$$$$
