
     RDKit          3D

 34 35  0  0  0  0  0  0  0  0999 V2000
  -11.9651  -40.8436   -6.8002 C   0  0  0  0  0  0  0  0  0  0  0  0
  -12.3709  -39.9366   -7.9139 C   0  0  0  0  0  0  0  0  0  0  0  0
  -12.6563  -40.6485   -9.2047 C   0  0  0  0  0  0  0  0  0  0  0  0
  -13.2608  -39.6633  -10.1525 C   0  0  0  0  0  0  0  0  0  0  0  0
  -14.4860  -39.0446  -10.0254 C   0  0  0  0  0  0  0  0  0  0  0  0
  -14.6373  -38.2295  -11.1091 C   0  0  0  0  0  0  0  0  0  0  0  0
  -15.7925  -37.3341  -11.4537 C   0  0  0  0  0  0  0  0  0  0  0  0
  -16.5805  -37.0974  -10.2594 N   0  0  0  0  0  0  0  0  0  0  0  0
  -17.0374  -38.3267   -9.6895 C   0  0  0  0  0  0  0  0  0  0  0  0
  -18.4887  -38.5525   -9.8597 C   0  0  1  0  0  0  0  0  0  0  0  0
  -18.8684  -38.3517  -11.1870 O   0  0  0  0  0  0  0  0  0  0  0  0
  -19.0705  -39.7790   -9.2536 C   0  0  2  0  0  0  0  0  0  0  0  0
  -20.1452  -39.6474   -8.2613 C   0  0  0  0  0  0  0  0  0  0  0  0
  -20.0935  -38.6151   -7.2188 C   0  0  2  0  0  0  0  0  0  0  0  0
  -19.1082  -38.8265   -6.0982 C   0  0  0  0  0  0  0  0  0  0  0  0
  -21.4765  -38.6779   -6.5227 C   0  0  0  0  0  0  0  0  0  0  0  0
  -21.8079  -40.1145   -6.1824 C   0  0  0  0  0  0  0  0  0  0  0  0
  -22.8191  -40.2174   -5.0623 C   0  0  0  0  0  0  0  0  0  0  0  0
  -22.5285  -41.5120   -4.3008 C   0  0  0  0  0  0  0  0  0  0  0  0
  -23.4936  -42.6036   -4.6238 C   0  0  0  0  0  0  0  0  0  0  0  0
  -22.9069  -43.7040   -5.4858 C   0  0  0  0  0  0  0  0  0  0  0  0
  -22.4252  -43.2706   -6.6931 O   0  0  0  0  0  0  0  0  0  0  0  0
  -21.4246  -44.0948   -7.2014 C   0  0  0  0  0  0  0  0  0  0  0  0
  -20.9154  -43.5776   -8.4857 C   0  0  0  0  0  0  0  0  0  0  0  0
  -21.7267  -43.5072   -9.4451 O   0  0  0  0  0  0  0  0  0  0  0  0
  -19.5845  -43.1607   -8.7017 N   0  0  0  0  0  0  0  0  0  0  0  0
  -19.0108  -43.1464  -10.0323 C   0  0  0  0  0  0  0  0  0  0  0  0
  -18.7804  -42.7416   -7.5774 C   0  0  1  0  0  0  0  0  0  0  0  0
  -17.9695  -43.9865   -7.1794 C   0  0  0  0  0  0  0  0  0  0  0  0
  -17.8775  -41.6014   -7.8701 C   0  0  0  0  0  0  0  0  0  0  0  0
  -16.8877  -41.4977   -7.0510 O   0  0  0  0  0  0  0  0  0  0  0  0
  -17.9745  -40.6574   -8.8999 N   0  0  0  0  0  0  0  0  0  0  0  0
  -13.5226  -38.3690  -11.8548 N   0  0  0  0  0  0  0  0  0  0  0  0
  -12.6965  -39.2204  -11.2941 N   0  0  0  0  0  0  0  0  0  0  0  0
  1  2  1  0
  2  3  1  0
  3  4  1  0
  4  5  2  0
  5  6  1  0
  6  7  1  0
  7  8  1  0
  8  9  1  0
  9 10  1  0
 10 11  1  6
 10 12  1  0
 12 13  1  1
 13 14  1  0
 14 15  1  1
 14 16  1  0
 16 17  1  0
 17 18  1  0
 18 19  1  0
 19 20  1  0
 20 21  1  0
 21 22  1  0
 22 23  1  0
 23 24  1  0
 24 25  2  0
 24 26  1  0
 26 27  1  0
 26 28  1  0
 28 29  1  6
 28 30  1  0
 30 31  2  0
 30 32  1  0
  6 33  2  0
 33 34  1  0
 32 12  1  0
 34  4  1  0
M  END
$$$$
