
     RDKit          3D

 34 35  0  0  0  0  0  0  0  0999 V2000
  -13.0110  -35.0435  -13.6918 C   0  0  0  0  0  0  0  0  0  0  0  0
  -13.4568  -36.3362  -13.0935 C   0  0  0  0  0  0  0  0  0  0  0  0
  -12.4818  -36.9204  -12.1124 C   0  0  0  0  0  0  0  0  0  0  0  0
  -12.9780  -38.2741  -11.7176 C   0  0  0  0  0  0  0  0  0  0  0  0
  -13.4581  -38.6456  -10.4801 C   0  0  0  0  0  0  0  0  0  0  0  0
  -13.7985  -39.9645  -10.5622 C   0  0  0  0  0  0  0  0  0  0  0  0
  -14.3699  -40.8525   -9.4945 C   0  0  0  0  0  0  0  0  0  0  0  0
  -14.4240  -40.1169   -8.2458 N   0  0  0  0  0  0  0  0  0  0  0  0
  -15.5433  -39.2273   -8.2180 C   0  0  0  0  0  0  0  0  0  0  0  0
  -16.5261  -39.5485   -7.1611 C   0  0  1  0  0  0  0  0  0  0  0  0
  -16.9050  -38.3966   -6.4713 O   0  0  0  0  0  0  0  0  0  0  0  0
  -17.6691  -40.4256   -7.5272 C   0  0  2  0  0  0  0  0  0  0  0  0
  -19.0320  -39.8795   -7.4902 C   0  0  0  0  0  0  0  0  0  0  0  0
  -19.4709  -39.0078   -6.3936 C   0  0  2  0  0  0  0  0  0  0  0  0
  -19.7156  -39.6624   -5.0584 C   0  0  0  0  0  0  0  0  0  0  0  0
  -20.8679  -38.4937   -6.8240 C   0  0  0  0  0  0  0  0  0  0  0  0
  -21.7176  -39.6587   -7.2825 C   0  0  0  0  0  0  0  0  0  0  0  0
  -23.1969  -39.3560   -7.1950 C   0  0  0  0  0  0  0  0  0  0  0  0
  -23.9185  -40.6756   -6.9158 C   0  0  0  0  0  0  0  0  0  0  0  0
  -24.5952  -41.2332   -8.1236 C   0  0  0  0  0  0  0  0  0  0  0  0
  -23.9011  -42.4475   -8.7081 C   0  0  0  0  0  0  0  0  0  0  0  0
  -22.6035  -42.2212   -9.0858 O   0  0  0  0  0  0  0  0  0  0  0  0
  -21.8276  -43.3772   -9.0681 C   0  0  0  0  0  0  0  0  0  0  0  0
  -20.4340  -43.0844   -9.4531 C   0  0  0  0  0  0  0  0  0  0  0  0
  -20.2343  -42.6376  -10.6124 O   0  0  0  0  0  0  0  0  0  0  0  0
  -19.3205  -43.2737   -8.6070 N   0  0  0  0  0  0  0  0  0  0  0  0
  -17.9901  -43.4606   -9.1505 C   0  0  0  0  0  0  0  0  0  0  0  0
  -19.5099  -43.2820   -7.1751 C   0  0  1  0  0  0  0  0  0  0  0  0
  -19.6253  -44.7679   -6.7953 C   0  0  0  0  0  0  0  0  0  0  0  0
  -18.4138  -42.6320   -6.4154 C   0  0  0  0  0  0  0  0  0  0  0  0
  -18.3512  -42.9937   -5.1799 O   0  0  0  0  0  0  0  0  0  0  0  0
  -17.4715  -41.7023   -6.8722 N   0  0  0  0  0  0  0  0  0  0  0  0
  -13.5229  -40.3559  -11.8226 N   0  0  0  0  0  0  0  0  0  0  0  0
  -13.0339  -39.3570  -12.5190 N   0  0  0  0  0  0  0  0  0  0  0  0
  1  2  1  0
  2  3  1  0
  3  4  1  0
  4  5  2  0
  5  6  1  0
  6  7  1  0
  7  8  1  0
  8  9  1  0
  9 10  1  0
 10 11  1  6
 10 12  1  0
 12 13  1  1
 13 14  1  0
 14 15  1  1
 14 16  1  0
 16 17  1  0
 17 18  1  0
 18 19  1  0
 19 20  1  0
 20 21  1  0
 21 22  1  0
 22 23  1  0
 23 24  1  0
 24 25  2  0
 24 26  1  0
 26 27  1  0
 26 28  1  0
 28 29  1  1
 28 30  1  0
 30 31  2  0
 30 32  1  0
  6 33  2  0
 33 34  1  0
 32 12  1  0
 34  4  1  0
M  END
$$$$
