
     RDKit          3D

 34 35  0  0  0  0  0  0  0  0999 V2000
  -22.5858  -40.8531   -2.5082 C   0  0  0  0  0  0  0  0  0  0  0  0
  -21.8878  -40.8892   -3.8270 C   0  0  0  0  0  0  0  0  0  0  0  0
  -22.4806  -39.9683   -4.8541 C   0  0  0  0  0  0  0  0  0  0  0  0
  -21.8188  -40.2498   -6.1646 C   0  0  0  0  0  0  0  0  0  0  0  0
  -20.4633  -40.2724   -6.4136 C   0  0  0  0  0  0  0  0  0  0  0  0
  -20.3040  -40.5685   -7.7361 C   0  0  0  0  0  0  0  0  0  0  0  0
  -19.0294  -40.7136   -8.5165 C   0  0  0  0  0  0  0  0  0  0  0  0
  -17.9078  -40.7056   -7.5971 N   0  0  0  0  0  0  0  0  0  0  0  0
  -17.6797  -39.3954   -7.0714 C   0  0  0  0  0  0  0  0  0  0  0  0
  -16.3571  -38.8387   -7.4278 C   0  0  1  0  0  0  0  0  0  0  0  0
  -15.5399  -38.7447   -6.3010 O   0  0  0  0  0  0  0  0  0  0  0  0
  -15.6684  -39.4070   -8.6164 C   0  0  2  0  0  0  0  0  0  0  0  0
  -14.6807  -38.5884   -9.3316 C   0  0  0  0  0  0  0  0  0  0  0  0
  -14.9217  -37.1642   -9.5932 C   0  0  2  0  0  0  0  0  0  0  0  0
  -15.9407  -36.8283  -10.6515 C   0  0  0  0  0  0  0  0  0  0  0  0
  -13.5867  -36.6307  -10.1713 C   0  0  0  0  0  0  0  0  0  0  0  0
  -13.1040  -37.5546  -11.2680 C   0  0  0  0  0  0  0  0  0  0  0  0
  -12.1585  -36.8616  -12.2237 C   0  0  0  0  0  0  0  0  0  0  0  0
  -12.3352  -37.5139  -13.5961 C   0  0  0  0  0  0  0  0  0  0  0  0
  -11.2261  -38.4519  -13.9392 C   0  0  0  0  0  0  0  0  0  0  0  0
  -11.6203  -39.9144  -13.8771 C   0  0  0  0  0  0  0  0  0  0  0  0
  -12.0762  -40.3182  -12.6497 O   0  0  0  0  0  0  0  0  0  0  0  0
  -12.9358  -41.4110  -12.7269 C   0  0  0  0  0  0  0  0  0  0  0  0
  -13.4245  -41.7946  -11.3889 C   0  0  0  0  0  0  0  0  0  0  0  0
  -12.5706  -42.1760  -10.5470 O   0  0  0  0  0  0  0  0  0  0  0  0
  -14.7806  -41.7601  -10.9994 N   0  0  0  0  0  0  0  0  0  0  0  0
  -15.2690  -42.5861   -9.9135 C   0  0  0  0  0  0  0  0  0  0  0  0
  -15.6972  -40.8873  -11.6952 C   0  0  1  0  0  0  0  0  0  0  0  0
  -16.3731  -41.7773  -12.7519 C   0  0  0  0  0  0  0  0  0  0  0  0
  -16.7128  -40.2533  -10.8191 C   0  0  0  0  0  0  0  0  0  0  0  0
  -17.7562  -39.8351  -11.4497 O   0  0  0  0  0  0  0  0  0  0  0  0
  -16.6686  -40.0641   -9.4322 N   0  0  0  0  0  0  0  0  0  0  0  0
  -21.5420  -40.7161   -8.2497 N   0  0  0  0  0  0  0  0  0  0  0  0
  -22.4511  -40.5284   -7.3224 N   0  0  0  0  0  0  0  0  0  0  0  0
  1  2  1  0
  2  3  1  0
  3  4  1  0
  4  5  2  0
  5  6  1  0
  6  7  1  0
  7  8  1  0
  8  9  1  0
  9 10  1  0
 10 11  1  1
 10 12  1  0
 12 13  1  6
 13 14  1  0
 14 15  1  6
 14 16  1  0
 16 17  1  0
 17 18  1  0
 18 19  1  0
 19 20  1  0
 20 21  1  0
 21 22  1  0
 22 23  1  0
 23 24  1  0
 24 25  2  0
 24 26  1  0
 26 27  1  0
 26 28  1  0
 28 29  1  6
 28 30  1  0
 30 31  2  0
 30 32  1  0
  6 33  2  0
 33 34  1  0
 32 12  1  0
 34  4  1  0
M  END
$$$$
