
     RDKit          3D

 34 35  0  0  0  0  0  0  0  0999 V2000
  -18.7834  -33.4552  -12.0872 C   0  0  0  0  0  0  0  0  0  0  0  0
  -18.1236  -34.6120  -12.7612 C   0  0  0  0  0  0  0  0  0  0  0  0
  -18.9623  -35.8569  -12.7920 C   0  0  0  0  0  0  0  0  0  0  0  0
  -18.9483  -36.4581  -11.4234 C   0  0  0  0  0  0  0  0  0  0  0  0
  -18.3700  -35.9193  -10.2941 C   0  0  0  0  0  0  0  0  0  0  0  0
  -18.5932  -36.7961   -9.2728 C   0  0  0  0  0  0  0  0  0  0  0  0
  -18.1724  -36.6866   -7.8355 C   0  0  0  0  0  0  0  0  0  0  0  0
  -18.7550  -37.7835   -7.0867 N   0  0  0  0  0  0  0  0  0  0  0  0
  -17.7476  -38.6887   -6.6278 C   0  0  0  0  0  0  0  0  0  0  0  0
  -16.7736  -39.0672   -7.6738 C   0  0  1  0  0  0  0  0  0  0  0  0
  -15.5016  -38.5859   -7.3630 O   0  0  0  0  0  0  0  0  0  0  0  0
  -16.7778  -40.4787   -8.1404 C   0  0  2  0  0  0  0  0  0  0  0  0
  -15.7596  -40.9182   -9.1033 C   0  0  0  0  0  0  0  0  0  0  0  0
  -15.3750  -40.0728  -10.2401 C   0  0  2  0  0  0  0  0  0  0  0  0
  -16.3667  -39.9555  -11.3688 C   0  0  0  0  0  0  0  0  0  0  0  0
  -14.1584  -40.7888  -10.8792 C   0  0  0  0  0  0  0  0  0  0  0  0
  -14.4761  -42.2558  -11.0700 C   0  0  0  0  0  0  0  0  0  0  0  0
  -13.6168  -42.8918  -12.1399 C   0  0  0  0  0  0  0  0  0  0  0  0
  -14.4402  -44.0083  -12.7846 C   0  0  0  0  0  0  0  0  0  0  0  0
  -14.0314  -45.3686  -12.3265 C   0  0  0  0  0  0  0  0  0  0  0  0
  -15.0239  -46.0212  -11.3846 C   0  0  0  0  0  0  0  0  0  0  0  0
  -15.2625  -45.3049  -10.2411 O   0  0  0  0  0  0  0  0  0  0  0  0
  -16.5145  -45.5683   -9.6916 C   0  0  0  0  0  0  0  0  0  0  0  0
  -16.7414  -44.7572   -8.4804 C   0  0  0  0  0  0  0  0  0  0  0  0
  -15.9688  -44.9433   -7.5048 O   0  0  0  0  0  0  0  0  0  0  0  0
  -17.7642  -43.7934   -8.3509 N   0  0  0  0  0  0  0  0  0  0  0  0
  -18.2639  -43.4024   -7.0481 C   0  0  0  0  0  0  0  0  0  0  0  0
  -18.3227  -43.1869   -9.5368 C   0  0  1  0  0  0  0  0  0  0  0  0
  -19.5916  -44.0005   -9.8426 C   0  0  0  0  0  0  0  0  0  0  0  0
  -18.6486  -41.7476   -9.3849 C   0  0  0  0  0  0  0  0  0  0  0  0
  -19.5068  -41.3148  -10.2436 O   0  0  0  0  0  0  0  0  0  0  0  0
  -18.1475  -40.8368   -8.4466 N   0  0  0  0  0  0  0  0  0  0  0  0
  -19.2882  -37.8269   -9.7948 N   0  0  0  0  0  0  0  0  0  0  0  0
  -19.5049  -37.6355  -11.0747 N   0  0  0  0  0  0  0  0  0  0  0  0
  1  2  1  0
  2  3  1  0
  3  4  1  0
  4  5  2  0
  5  6  1  0
  6  7  1  0
  7  8  1  0
  8  9  1  0
  9 10  1  0
 10 11  1  1
 10 12  1  0
 12 13  1  6
 13 14  1  0
 14 15  1  6
 14 16  1  0
 16 17  1  0
 17 18  1  0
 18 19  1  0
 19 20  1  0
 20 21  1  0
 21 22  1  0
 22 23  1  0
 23 24  1  0
 24 25  2  0
 24 26  1  0
 26 27  1  0
 26 28  1  0
 28 29  1  1
 28 30  1  0
 30 31  2  0
 30 32  1  0
  6 33  2  0
 33 34  1  0
 32 12  1  0
 34  4  1  0
M  END
$$$$
