
     RDKit          3D

 34 35  0  0  0  0  0  0  0  0999 V2000
  -22.8003  -43.2438   -3.9814 C   0  0  0  0  0  0  0  0  0  0  0  0
  -22.1175  -42.1630   -4.7517 C   0  0  0  0  0  0  0  0  0  0  0  0
  -22.5298  -42.0904   -6.1936 C   0  0  0  0  0  0  0  0  0  0  0  0
  -21.7266  -41.0144   -6.8507 C   0  0  0  0  0  0  0  0  0  0  0  0
  -20.8907  -40.1139   -6.2259 C   0  0  0  0  0  0  0  0  0  0  0  0
  -20.3634  -39.3155   -7.1988 C   0  0  0  0  0  0  0  0  0  0  0  0
  -19.3961  -38.1762   -7.0532 C   0  0  0  0  0  0  0  0  0  0  0  0
  -18.3286  -38.5733   -6.1555 N   0  0  0  0  0  0  0  0  0  0  0  0
  -17.4342  -39.4911   -6.7899 C   0  0  0  0  0  0  0  0  0  0  0  0
  -16.3152  -38.8316   -7.4965 C   0  0  1  0  0  0  0  0  0  0  0  0
  -15.3970  -38.3062   -6.5871 O   0  0  0  0  0  0  0  0  0  0  0  0
  -15.6826  -39.5676   -8.6226 C   0  0  2  0  0  0  0  0  0  0  0  0
  -14.5717  -38.9430   -9.3526 C   0  0  0  0  0  0  0  0  0  0  0  0
  -14.6036  -37.5197   -9.7107 C   0  0  2  0  0  0  0  0  0  0  0  0
  -15.5377  -37.1172  -10.8227 C   0  0  0  0  0  0  0  0  0  0  0  0
  -13.1925  -37.2158  -10.2741 C   0  0  0  0  0  0  0  0  0  0  0  0
  -12.8161  -38.2686  -11.2936 C   0  0  0  0  0  0  0  0  0  0  0  0
  -11.7583  -37.7782  -12.2571 C   0  0  0  0  0  0  0  0  0  0  0  0
  -11.9893  -38.4897  -13.5914 C   0  0  0  0  0  0  0  0  0  0  0  0
  -11.0144  -39.5928  -13.8366 C   0  0  0  0  0  0  0  0  0  0  0  0
  -11.6114  -40.9793  -13.6973 C   0  0  0  0  0  0  0  0  0  0  0  0
  -12.1511  -41.2336  -12.4638 O   0  0  0  0  0  0  0  0  0  0  0  0
  -13.1532  -42.1995  -12.5026 C   0  0  0  0  0  0  0  0  0  0  0  0
  -13.7254  -42.4219  -11.1612 C   0  0  0  0  0  0  0  0  0  0  0  0
  -12.9554  -42.8610  -10.2680 O   0  0  0  0  0  0  0  0  0  0  0  0
  -15.0727  -42.1743  -10.8221 N   0  0  0  0  0  0  0  0  0  0  0  0
  -15.7001  -42.8506   -9.7046 C   0  0  0  0  0  0  0  0  0  0  0  0
  -15.8395  -41.2312  -11.6024 C   0  0  1  0  0  0  0  0  0  0  0  0
  -16.6061  -42.0874  -12.6245 C   0  0  0  0  0  0  0  0  0  0  0  0
  -16.7783  -40.4058  -10.8034 C   0  0  0  0  0  0  0  0  0  0  0  0
  -17.7360  -39.8902  -11.4948 O   0  0  0  0  0  0  0  0  0  0  0  0
  -16.7438  -40.1327   -9.4303 N   0  0  0  0  0  0  0  0  0  0  0  0
  -20.8809  -39.7411   -8.3689 N   0  0  0  0  0  0  0  0  0  0  0  0
  -21.6938  -40.7522   -8.1728 N   0  0  0  0  0  0  0  0  0  0  0  0
  1  2  1  0
  2  3  1  0
  3  4  1  0
  4  5  2  0
  5  6  1  0
  6  7  1  0
  7  8  1  0
  8  9  1  0
  9 10  1  0
 10 11  1  1
 10 12  1  0
 12 13  1  6
 13 14  1  0
 14 15  1  6
 14 16  1  0
 16 17  1  0
 17 18  1  0
 18 19  1  0
 19 20  1  0
 20 21  1  0
 21 22  1  0
 22 23  1  0
 23 24  1  0
 24 25  2  0
 24 26  1  0
 26 27  1  0
 26 28  1  0
 28 29  1  6
 28 30  1  0
 30 31  2  0
 30 32  1  0
  6 33  2  0
 33 34  1  0
 32 12  1  0
 34  4  1  0
M  END
$$$$
