
     RDKit          3D

 34 35  0  0  0  0  0  0  0  0999 V2000
   -9.1796  -39.6636  -13.7169 C   0  0  0  0  0  0  0  0  0  0  0  0
  -10.2148  -38.7395  -13.1673 C   0  0  0  0  0  0  0  0  0  0  0  0
  -11.2297  -39.4154  -12.2912 C   0  0  0  0  0  0  0  0  0  0  0  0
  -12.2698  -38.4061  -11.9248 C   0  0  0  0  0  0  0  0  0  0  0  0
  -13.3396  -38.5979  -11.0771 C   0  0  0  0  0  0  0  0  0  0  0  0
  -14.0289  -37.4212  -11.0297 C   0  0  0  0  0  0  0  0  0  0  0  0
  -15.2729  -37.0951  -10.2545 C   0  0  0  0  0  0  0  0  0  0  0  0
  -15.2247  -37.7745   -8.9742 N   0  0  0  0  0  0  0  0  0  0  0  0
  -16.3058  -37.3669   -8.1316 C   0  0  0  0  0  0  0  0  0  0  0  0
  -16.8719  -38.4684   -7.3237 C   0  0  1  0  0  0  0  0  0  0  0  0
  -16.7576  -38.1917   -5.9611 O   0  0  0  0  0  0  0  0  0  0  0  0
  -18.2067  -38.9933   -7.7142 C   0  0  2  0  0  0  0  0  0  0  0  0
  -19.1056  -39.5105   -6.6742 C   0  0  0  0  0  0  0  0  0  0  0  0
  -18.5984  -40.3482   -5.5806 C   0  0  2  0  0  0  0  0  0  0  0  0
  -18.2139  -41.7634   -5.9277 C   0  0  0  0  0  0  0  0  0  0  0  0
  -19.7955  -40.5093   -4.6100 C   0  0  0  0  0  0  0  0  0  0  0  0
  -21.0301  -40.9068   -5.3892 C   0  0  0  0  0  0  0  0  0  0  0  0
  -22.0567  -41.5975   -4.5193 C   0  0  0  0  0  0  0  0  0  0  0  0
  -22.8174  -42.5854   -5.4056 C   0  0  0  0  0  0  0  0  0  0  0  0
  -24.1755  -42.0967   -5.7853 C   0  0  0  0  0  0  0  0  0  0  0  0
  -24.2868  -41.6620   -7.2334 C   0  0  0  0  0  0  0  0  0  0  0  0
  -23.4238  -40.6565   -7.5824 O   0  0  0  0  0  0  0  0  0  0  0  0
  -23.1166  -40.6572   -8.9405 C   0  0  0  0  0  0  0  0  0  0  0  0
  -22.1649  -39.5786   -9.2678 C   0  0  0  0  0  0  0  0  0  0  0  0
  -22.5413  -38.3940   -9.0721 O   0  0  0  0  0  0  0  0  0  0  0  0
  -20.8686  -39.7934   -9.7828 N   0  0  0  0  0  0  0  0  0  0  0  0
  -20.1840  -38.7652  -10.5405 C   0  0  0  0  0  0  0  0  0  0  0  0
  -20.2133  -41.0596   -9.5514 C   0  0  1  0  0  0  0  0  0  0  0  0
  -20.4878  -41.8894  -10.8169 C   0  0  0  0  0  0  0  0  0  0  0  0
  -18.7545  -40.9505   -9.3043 C   0  0  0  0  0  0  0  0  0  0  0  0
  -18.1073  -42.0445   -9.5170 O   0  0  0  0  0  0  0  0  0  0  0  0
  -18.0255  -39.8322   -8.8810 N   0  0  0  0  0  0  0  0  0  0  0  0
  -13.3748  -36.5589  -11.8338 N   0  0  0  0  0  0  0  0  0  0  0  0
  -12.3259  -37.1353  -12.3717 N   0  0  0  0  0  0  0  0  0  0  0  0
  1  2  1  0
  2  3  1  0
  3  4  1  0
  4  5  2  0
  5  6  1  0
  6  7  1  0
  7  8  1  0
  8  9  1  0
  9 10  1  0
 10 11  1  1
 10 12  1  0
 12 13  1  1
 13 14  1  0
 14 15  1  6
 14 16  1  0
 16 17  1  0
 17 18  1  0
 18 19  1  0
 19 20  1  0
 20 21  1  0
 21 22  1  0
 22 23  1  0
 23 24  1  0
 24 25  2  0
 24 26  1  0
 26 27  1  0
 26 28  1  0
 28 29  1  6
 28 30  1  0
 30 31  2  0
 30 32  1  0
  6 33  2  0
 33 34  1  0
 32 12  1  0
 34  4  1  0
M  END
$$$$
