
     RDKit          3D

 34 35  0  0  0  0  0  0  0  0999 V2000
  -19.1753  -32.8288  -11.5913 C   0  0  0  0  0  0  0  0  0  0  0  0
  -18.6068  -33.6201  -10.4606 C   0  0  0  0  0  0  0  0  0  0  0  0
  -19.6443  -34.2651   -9.5878 C   0  0  0  0  0  0  0  0  0  0  0  0
  -19.6882  -35.7218   -9.9208 C   0  0  0  0  0  0  0  0  0  0  0  0
  -19.6565  -36.7711   -9.0276 C   0  0  0  0  0  0  0  0  0  0  0  0
  -19.7165  -37.9214   -9.7591 C   0  0  0  0  0  0  0  0  0  0  0  0
  -19.7136  -39.3420   -9.2724 C   0  0  0  0  0  0  0  0  0  0  0  0
  -18.9691  -39.4154   -8.0300 N   0  0  0  0  0  0  0  0  0  0  0  0
  -17.9091  -38.4558   -8.0051 C   0  0  0  0  0  0  0  0  0  0  0  0
  -16.7358  -38.8516   -8.8131 C   0  0  1  0  0  0  0  0  0  0  0  0
  -15.6488  -38.0182   -8.5481 O   0  0  0  0  0  0  0  0  0  0  0  0
  -16.3827  -40.2951   -8.8534 C   0  0  2  0  0  0  0  0  0  0  0  0
  -15.0070  -40.6872   -9.1861 C   0  0  0  0  0  0  0  0  0  0  0  0
  -14.2648  -40.0154  -10.2598 C   0  0  2  0  0  0  0  0  0  0  0  0
  -14.6781  -40.3299  -11.6745 C   0  0  0  0  0  0  0  0  0  0  0  0
  -12.8208  -40.5681  -10.1563 C   0  0  0  0  0  0  0  0  0  0  0  0
  -12.8614  -42.0777  -10.0622 C   0  0  0  0  0  0  0  0  0  0  0  0
  -11.5601  -42.7124  -10.4996 C   0  0  0  0  0  0  0  0  0  0  0  0
  -11.8958  -44.0804  -11.0964 C   0  0  0  0  0  0  0  0  0  0  0  0
  -11.5779  -45.2093  -10.1735 C   0  0  0  0  0  0  0  0  0  0  0  0
  -12.8014  -45.8623   -9.5611 C   0  0  0  0  0  0  0  0  0  0  0  0
  -13.5876  -45.0056   -8.8362 O   0  0  0  0  0  0  0  0  0  0  0  0
  -14.9168  -45.4160   -8.7741 C   0  0  0  0  0  0  0  0  0  0  0  0
  -15.7322  -44.4530   -8.0100 C   0  0  0  0  0  0  0  0  0  0  0  0
  -15.4414  -44.2801   -6.7980 O   0  0  0  0  0  0  0  0  0  0  0  0
  -16.8098  -43.7201   -8.5517 N   0  0  0  0  0  0  0  0  0  0  0  0
  -17.8629  -43.1995   -7.7032 C   0  0  0  0  0  0  0  0  0  0  0  0
  -16.8644  -43.4856   -9.9759 C   0  0  1  0  0  0  0  0  0  0  0  0
  -17.7788  -44.5918  -10.5288 C   0  0  0  0  0  0  0  0  0  0  0  0
  -17.3803  -42.1458  -10.3497 C   0  0  0  0  0  0  0  0  0  0  0  0
  -17.8253  -42.0777  -11.5574 O   0  0  0  0  0  0  0  0  0  0  0  0
  -17.4371  -40.9862   -9.5665 N   0  0  0  0  0  0  0  0  0  0  0  0
  -19.7820  -37.5516  -11.0540 N   0  0  0  0  0  0  0  0  0  0  0  0
  -19.7658  -36.2440  -11.1614 N   0  0  0  0  0  0  0  0  0  0  0  0
  1  2  1  0
  2  3  1  0
  3  4  1  0
  4  5  2  0
  5  6  1  0
  6  7  1  0
  7  8  1  0
  8  9  1  0
  9 10  1  0
 10 11  1  1
 10 12  1  0
 12 13  1  6
 13 14  1  0
 14 15  1  6
 14 16  1  0
 16 17  1  0
 17 18  1  0
 18 19  1  0
 19 20  1  0
 20 21  1  0
 21 22  1  0
 22 23  1  0
 23 24  1  0
 24 25  2  0
 24 26  1  0
 26 27  1  0
 26 28  1  0
 28 29  1  6
 28 30  1  0
 30 31  2  0
 30 32  1  0
  6 33  2  0
 33 34  1  0
 32 12  1  0
 34  4  1  0
M  END
$$$$
