
     RDKit          3D

 34 35  0  0  0  0  0  0  0  0999 V2000
  -25.3972  -41.5239   -5.7348 C   0  0  0  0  0  0  0  0  0  0  0  0
  -23.9687  -41.2347   -5.4132 C   0  0  0  0  0  0  0  0  0  0  0  0
  -23.1655  -40.7573   -6.5884 C   0  0  0  0  0  0  0  0  0  0  0  0
  -21.7775  -40.4694   -6.1137 C   0  0  0  0  0  0  0  0  0  0  0  0
  -20.6030  -40.8436   -6.7305 C   0  0  0  0  0  0  0  0  0  0  0  0
  -19.5791  -40.3765   -5.9588 C   0  0  0  0  0  0  0  0  0  0  0  0
  -18.1004  -40.5125   -6.1823 C   0  0  0  0  0  0  0  0  0  0  0  0
  -17.8498  -40.6842   -7.6004 N   0  0  0  0  0  0  0  0  0  0  0  0
  -16.4489  -40.7853   -7.8692 C   0  0  0  0  0  0  0  0  0  0  0  0
  -15.8306  -39.5028   -8.2683 C   0  0  1  0  0  0  0  0  0  0  0  0
  -15.3973  -38.7928   -7.1484 O   0  0  0  0  0  0  0  0  0  0  0  0
  -14.8384  -39.5317   -9.3749 C   0  0  2  0  0  0  0  0  0  0  0  0
  -14.4220  -38.2681   -9.9971 C   0  0  0  0  0  0  0  0  0  0  0  0
  -15.3971  -37.2130  -10.2986 C   0  0  2  0  0  0  0  0  0  0  0  0
  -16.3288  -37.4566  -11.4577 C   0  0  0  0  0  0  0  0  0  0  0  0
  -14.5472  -35.9970  -10.7461 C   0  0  0  0  0  0  0  0  0  0  0  0
  -13.5327  -36.4398  -11.7777 C   0  0  0  0  0  0  0  0  0  0  0  0
  -13.0590  -35.2924  -12.6419 C   0  0  0  0  0  0  0  0  0  0  0  0
  -12.7146  -35.8670  -14.0172 C   0  0  0  0  0  0  0  0  0  0  0  0
  -11.2448  -36.0056  -14.2360 C   0  0  0  0  0  0  0  0  0  0  0  0
  -10.7526  -37.4389  -14.1964 C   0  0  0  0  0  0  0  0  0  0  0  0
  -11.0107  -38.0855  -13.0162 O   0  0  0  0  0  0  0  0  0  0  0  0
  -11.0966  -39.4671  -13.1662 C   0  0  0  0  0  0  0  0  0  0  0  0
  -11.4029  -40.1205  -11.8796 C   0  0  0  0  0  0  0  0  0  0  0  0
  -10.5619  -39.9969  -10.9518 O   0  0  0  0  0  0  0  0  0  0  0  0
  -12.5723  -40.8697  -11.6286 N   0  0  0  0  0  0  0  0  0  0  0  0
  -12.6072  -41.8771  -10.5875 C   0  0  0  0  0  0  0  0  0  0  0  0
  -13.7541  -40.6288  -12.4232 C   0  0  1  0  0  0  0  0  0  0  0  0
  -13.7150  -41.6942  -13.5317 C   0  0  0  0  0  0  0  0  0  0  0  0
  -15.0241  -40.7141  -11.6611 C   0  0  0  0  0  0  0  0  0  0  0  0
  -16.0605  -40.9232  -12.3982 O   0  0  0  0  0  0  0  0  0  0  0  0
  -15.2185  -40.5975  -10.2791 N   0  0  0  0  0  0  0  0  0  0  0  0
  -20.1441  -39.7419   -4.9119 N   0  0  0  0  0  0  0  0  0  0  0  0
  -21.4527  -39.7914   -4.9945 N   0  0  0  0  0  0  0  0  0  0  0  0
  1  2  1  0
  2  3  1  0
  3  4  1  0
  4  5  2  0
  5  6  1  0
  6  7  1  0
  7  8  1  0
  8  9  1  0
  9 10  1  0
 10 11  1  1
 10 12  1  0
 12 13  1  6
 13 14  1  0
 14 15  1  6
 14 16  1  0
 16 17  1  0
 17 18  1  0
 18 19  1  0
 19 20  1  0
 20 21  1  0
 21 22  1  0
 22 23  1  0
 23 24  1  0
 24 25  2  0
 24 26  1  0
 26 27  1  0
 26 28  1  0
 28 29  1  6
 28 30  1  0
 30 31  2  0
 30 32  1  0
  6 33  2  0
 33 34  1  0
 32 12  1  0
 34  4  1  0
M  END
$$$$
