
     RDKit          3D

 34 35  0  0  0  0  0  0  0  0999 V2000
  -25.0030  -42.8525   -8.6588 C   0  0  0  0  0  0  0  0  0  0  0  0
  -24.2134  -42.1310   -7.6178 C   0  0  0  0  0  0  0  0  0  0  0  0
  -22.7979  -41.8374   -8.0231 C   0  0  0  0  0  0  0  0  0  0  0  0
  -22.1324  -41.1203   -6.8929 C   0  0  0  0  0  0  0  0  0  0  0  0
  -21.1788  -40.1303   -6.9945 C   0  0  0  0  0  0  0  0  0  0  0  0
  -20.8487  -39.7603   -5.7232 C   0  0  0  0  0  0  0  0  0  0  0  0
  -19.8599  -38.7221   -5.2768 C   0  0  0  0  0  0  0  0  0  0  0  0
  -19.2044  -38.1605   -6.4422 N   0  0  0  0  0  0  0  0  0  0  0  0
  -18.2332  -39.0648   -6.9750 C   0  0  0  0  0  0  0  0  0  0  0  0
  -16.9607  -38.4109   -7.3487 C   0  0  1  0  0  0  0  0  0  0  0  0
  -16.2011  -38.1223   -6.2147 O   0  0  0  0  0  0  0  0  0  0  0  0
  -16.1731  -39.0181   -8.4536 C   0  0  2  0  0  0  0  0  0  0  0  0
  -15.3409  -38.1531   -9.2998 C   0  0  0  0  0  0  0  0  0  0  0  0
  -15.8288  -36.8484   -9.7633 C   0  0  2  0  0  0  0  0  0  0  0  0
  -16.8831  -36.8581  -10.8401 C   0  0  0  0  0  0  0  0  0  0  0  0
  -14.6052  -36.1791  -10.4386 C   0  0  0  0  0  0  0  0  0  0  0  0
  -13.9579  -37.1552  -11.3965 C   0  0  0  0  0  0  0  0  0  0  0  0
  -13.1431  -36.4552  -12.4613 C   0  0  0  0  0  0  0  0  0  0  0  0
  -13.1907  -37.3243  -13.7194 C   0  0  0  0  0  0  0  0  0  0  0  0
  -11.9303  -38.0920  -13.9417 C   0  0  0  0  0  0  0  0  0  0  0  0
  -12.0592  -39.5756  -13.6580 C   0  0  0  0  0  0  0  0  0  0  0  0
  -12.4456  -39.8674  -12.3762 O   0  0  0  0  0  0  0  0  0  0  0  0
  -13.0971  -41.0940  -12.2757 C   0  0  0  0  0  0  0  0  0  0  0  0
  -13.5201  -41.3556  -10.8870 C   0  0  0  0  0  0  0  0  0  0  0  0
  -12.6185  -41.4514  -10.0144 O   0  0  0  0  0  0  0  0  0  0  0  0
  -14.8637  -41.5038  -10.4813 N   0  0  0  0  0  0  0  0  0  0  0  0
  -15.2061  -42.2332   -9.2768 C   0  0  0  0  0  0  0  0  0  0  0  0
  -15.9154  -40.9193  -11.2804 C   0  0  1  0  0  0  0  0  0  0  0  0
  -16.4145  -42.0610  -12.1819 C   0  0  0  0  0  0  0  0  0  0  0  0
  -17.0340  -40.3520  -10.4880 C   0  0  0  0  0  0  0  0  0  0  0  0
  -18.1301  -40.2226  -11.1535 O   0  0  0  0  0  0  0  0  0  0  0  0
  -17.0346  -39.9549   -9.1450 N   0  0  0  0  0  0  0  0  0  0  0  0
  -21.5948  -40.5190   -4.8951 N   0  0  0  0  0  0  0  0  0  0  0  0
  -22.3626  -41.3322   -5.5813 N   0  0  0  0  0  0  0  0  0  0  0  0
  1  2  1  0
  2  3  1  0
  3  4  1  0
  4  5  2  0
  5  6  1  0
  6  7  1  0
  7  8  1  0
  8  9  1  0
  9 10  1  0
 10 11  1  1
 10 12  1  0
 12 13  1  6
 13 14  1  0
 14 15  1  6
 14 16  1  0
 16 17  1  0
 17 18  1  0
 18 19  1  0
 19 20  1  0
 20 21  1  0
 21 22  1  0
 22 23  1  0
 23 24  1  0
 24 25  2  0
 24 26  1  0
 26 27  1  0
 26 28  1  0
 28 29  1  6
 28 30  1  0
 30 31  2  0
 30 32  1  0
  6 33  2  0
 33 34  1  0
 32 12  1  0
 34  4  1  0
M  END
$$$$
