
     RDKit          3D

 34 35  0  0  0  0  0  0  0  0999 V2000
  -14.2231  -34.9459  -14.5469 C   0  0  0  0  0  0  0  0  0  0  0  0
  -14.3006  -36.1563  -13.6770 C   0  0  0  0  0  0  0  0  0  0  0  0
  -14.3587  -35.8472  -12.2089 C   0  0  0  0  0  0  0  0  0  0  0  0
  -14.1571  -37.1246  -11.4590 C   0  0  0  0  0  0  0  0  0  0  0  0
  -15.0271  -38.1923  -11.4039 C   0  0  0  0  0  0  0  0  0  0  0  0
  -14.4485  -39.1397  -10.6105 C   0  0  0  0  0  0  0  0  0  0  0  0
  -14.9791  -40.4909  -10.2263 C   0  0  0  0  0  0  0  0  0  0  0  0
  -14.7520  -40.7035   -8.8098 N   0  0  0  0  0  0  0  0  0  0  0  0
  -15.4105  -39.7055   -8.0253 C   0  0  0  0  0  0  0  0  0  0  0  0
  -16.8113  -39.4643   -8.4323 C   0  0  1  0  0  0  0  0  0  0  0  0
  -16.8731  -39.0181   -9.7526 O   0  0  0  0  0  0  0  0  0  0  0  0
  -17.8122  -40.5160   -8.1125 C   0  0  2  0  0  0  0  0  0  0  0  0
  -19.2274  -40.1439   -7.9872 C   0  0  0  0  0  0  0  0  0  0  0  0
  -19.6307  -38.9164   -7.2903 C   0  0  2  0  0  0  0  0  0  0  0  0
  -19.5156  -38.9163   -5.7877 C   0  0  0  0  0  0  0  0  0  0  0  0
  -21.1525  -38.7875   -7.5526 C   0  0  0  0  0  0  0  0  0  0  0  0
  -21.8307  -40.1085   -7.2620 C   0  0  0  0  0  0  0  0  0  0  0  0
  -23.3037  -39.9404   -6.9624 C   0  0  0  0  0  0  0  0  0  0  0  0
  -23.7031  -41.0527   -5.9911 C   0  0  0  0  0  0  0  0  0  0  0  0
  -24.4570  -42.1575   -6.6533 C   0  0  0  0  0  0  0  0  0  0  0  0
  -23.6547  -43.4331   -6.8180 C   0  0  0  0  0  0  0  0  0  0  0  0
  -22.5074  -43.2804   -7.5514 O   0  0  0  0  0  0  0  0  0  0  0  0
  -21.5344  -44.2242   -7.2329 C   0  0  0  0  0  0  0  0  0  0  0  0
  -20.3081  -44.0067   -8.0235 C   0  0  0  0  0  0  0  0  0  0  0  0
  -20.3974  -44.1159   -9.2739 O   0  0  0  0  0  0  0  0  0  0  0  0
  -19.0514  -43.6865   -7.4669 N   0  0  0  0  0  0  0  0  0  0  0  0
  -17.8222  -43.9721   -8.1792 C   0  0  0  0  0  0  0  0  0  0  0  0
  -18.9892  -43.0641   -6.1649 C   0  0  1  0  0  0  0  0  0  0  0  0
  -18.7537  -44.2210   -5.1792 C   0  0  0  0  0  0  0  0  0  0  0  0
  -17.9236  -42.0403   -6.0333 C   0  0  0  0  0  0  0  0  0  0  0  0
  -17.5839  -41.7963   -4.8142 O   0  0  0  0  0  0  0  0  0  0  0  0
  -17.2669  -41.3332   -7.0482 N   0  0  0  0  0  0  0  0  0  0  0  0
  -13.2639  -38.6357  -10.2099 N   0  0  0  0  0  0  0  0  0  0  0  0
  -13.0806  -37.4363  -10.7095 N   0  0  0  0  0  0  0  0  0  0  0  0
  1  2  1  0
  2  3  1  0
  3  4  1  0
  4  5  2  0
  5  6  1  0
  6  7  1  0
  7  8  1  0
  8  9  1  0
  9 10  1  0
 10 11  1  6
 10 12  1  0
 12 13  1  1
 13 14  1  0
 14 15  1  1
 14 16  1  0
 16 17  1  0
 17 18  1  0
 18 19  1  0
 19 20  1  0
 20 21  1  0
 21 22  1  0
 22 23  1  0
 23 24  1  0
 24 25  2  0
 24 26  1  0
 26 27  1  0
 26 28  1  0
 28 29  1  1
 28 30  1  0
 30 31  2  0
 30 32  1  0
  6 33  2  0
 33 34  1  0
 32 12  1  0
 34  4  1  0
M  END
$$$$
