
     RDKit          3D

 34 35  0  0  0  0  0  0  0  0999 V2000
  -13.0124  -36.4722  -15.2696 C   0  0  0  0  0  0  0  0  0  0  0  0
  -13.0684  -37.0340  -13.8879 C   0  0  0  0  0  0  0  0  0  0  0  0
  -13.6836  -36.1075  -12.8793 C   0  0  0  0  0  0  0  0  0  0  0  0
  -13.7730  -36.8353  -11.5767 C   0  0  0  0  0  0  0  0  0  0  0  0
  -13.5524  -38.1800  -11.3689 C   0  0  0  0  0  0  0  0  0  0  0  0
  -13.7415  -38.4158  -10.0382 C   0  0  0  0  0  0  0  0  0  0  0  0
  -13.6249  -39.7131   -9.2911 C   0  0  0  0  0  0  0  0  0  0  0  0
  -14.8502  -40.4697   -9.4622 N   0  0  0  0  0  0  0  0  0  0  0  0
  -15.9888  -39.7107   -9.0470 C   0  0  0  0  0  0  0  0  0  0  0  0
  -17.2579  -40.1743   -9.6475 C   0  0  1  0  0  0  0  0  0  0  0  0
  -17.0140  -40.9643  -10.7713 O   0  0  0  0  0  0  0  0  0  0  0  0
  -18.2856  -40.7401   -8.7344 C   0  0  2  0  0  0  0  0  0  0  0  0
  -19.6061  -40.1018   -8.6586 C   0  0  0  0  0  0  0  0  0  0  0  0
  -19.7426  -38.6404   -8.6343 C   0  0  2  0  0  0  0  0  0  0  0  0
  -19.3502  -37.9402   -7.3588 C   0  0  0  0  0  0  0  0  0  0  0  0
  -21.2647  -38.3773   -8.7568 C   0  0  0  0  0  0  0  0  0  0  0  0
  -22.0107  -39.2471   -7.7687 C   0  0  0  0  0  0  0  0  0  0  0  0
  -23.3765  -38.6896   -7.4345 C   0  0  0  0  0  0  0  0  0  0  0  0
  -23.7015  -39.1048   -5.9985 C   0  0  0  0  0  0  0  0  0  0  0  0
  -24.6764  -40.2327   -5.9276 C   0  0  0  0  0  0  0  0  0  0  0  0
  -24.0560  -41.5530   -5.5154 C   0  0  0  0  0  0  0  0  0  0  0  0
  -23.0559  -41.9838   -6.3471 O   0  0  0  0  0  0  0  0  0  0  0  0
  -22.1442  -42.8187   -5.7062 C   0  0  0  0  0  0  0  0  0  0  0  0
  -21.0708  -43.2359   -6.6281 C   0  0  0  0  0  0  0  0  0  0  0  0
  -21.4023  -43.9133   -7.6354 O   0  0  0  0  0  0  0  0  0  0  0  0
  -19.7060  -42.9239   -6.4501 N   0  0  0  0  0  0  0  0  0  0  0  0
  -18.6675  -43.7357   -7.0522 C   0  0  0  0  0  0  0  0  0  0  0  0
  -19.3379  -41.7764   -5.6538 C   0  0  1  0  0  0  0  0  0  0  0  0
  -19.0447  -42.3390   -4.2528 C   0  0  0  0  0  0  0  0  0  0  0  0
  -18.1658  -41.0298   -6.1730 C   0  0  0  0  0  0  0  0  0  0  0  0
  -17.5814  -40.2974   -5.2879 O   0  0  0  0  0  0  0  0  0  0  0  0
  -17.6397  -41.0302   -7.4709 N   0  0  0  0  0  0  0  0  0  0  0  0
  -14.0660  -37.2323   -9.4795 N   0  0  0  0  0  0  0  0  0  0  0  0
  -14.0875  -36.2847  -10.3868 N   0  0  0  0  0  0  0  0  0  0  0  0
  1  2  1  0
  2  3  1  0
  3  4  1  0
  4  5  2  0
  5  6  1  0
  6  7  1  0
  7  8  1  0
  8  9  1  0
  9 10  1  0
 10 11  1  6
 10 12  1  0
 12 13  1  1
 13 14  1  0
 14 15  1  1
 14 16  1  0
 16 17  1  0
 17 18  1  0
 18 19  1  0
 19 20  1  0
 20 21  1  0
 21 22  1  0
 22 23  1  0
 23 24  1  0
 24 25  2  0
 24 26  1  0
 26 27  1  0
 26 28  1  0
 28 29  1  1
 28 30  1  0
 30 31  2  0
 30 32  1  0
  6 33  2  0
 33 34  1  0
 32 12  1  0
 34  4  1  0
M  END
$$$$
