
     RDKit          3D

 34 35  0  0  0  0  0  0  0  0999 V2000
  -12.5873  -33.2257  -10.5934 C   0  0  0  0  0  0  0  0  0  0  0  0
  -13.7600  -33.4121  -11.4976 C   0  0  0  0  0  0  0  0  0  0  0  0
  -14.9018  -34.1559  -10.8672 C   0  0  0  0  0  0  0  0  0  0  0  0
  -14.5134  -35.5955  -10.7607 C   0  0  0  0  0  0  0  0  0  0  0  0
  -15.0683  -36.5373   -9.9210 C   0  0  0  0  0  0  0  0  0  0  0  0
  -14.4160  -37.7133  -10.1518 C   0  0  0  0  0  0  0  0  0  0  0  0
  -14.6347  -39.0490   -9.5013 C   0  0  0  0  0  0  0  0  0  0  0  0
  -14.8323  -40.0505  -10.5314 N   0  0  0  0  0  0  0  0  0  0  0  0
  -15.9632  -40.8757  -10.2399 C   0  0  0  0  0  0  0  0  0  0  0  0
  -16.9429  -40.2362   -9.3358 C   0  0  1  0  0  0  0  0  0  0  0  0
  -17.5618  -39.1543   -9.9627 O   0  0  0  0  0  0  0  0  0  0  0  0
  -17.8887  -41.1223   -8.6076 C   0  0  2  0  0  0  0  0  0  0  0  0
  -19.1754  -40.5785   -8.1542 C   0  0  0  0  0  0  0  0  0  0  0  0
  -19.2657  -39.2409   -7.5561 C   0  0  2  0  0  0  0  0  0  0  0  0
  -18.7254  -39.0811   -6.1584 C   0  0  0  0  0  0  0  0  0  0  0  0
  -20.7840  -38.9693   -7.4075 C   0  0  0  0  0  0  0  0  0  0  0  0
  -21.4510  -40.1615   -6.7570 C   0  0  0  0  0  0  0  0  0  0  0  0
  -22.7588  -39.7923   -6.0928 C   0  0  0  0  0  0  0  0  0  0  0  0
  -22.9483  -40.7323   -4.9009 C   0  0  0  0  0  0  0  0  0  0  0  0
  -23.9436  -41.8121   -5.1668 C   0  0  0  0  0  0  0  0  0  0  0  0
  -23.3236  -43.1818   -5.3610 C   0  0  0  0  0  0  0  0  0  0  0  0
  -22.4262  -43.2470   -6.3944 O   0  0  0  0  0  0  0  0  0  0  0  0
  -21.4790  -44.2532   -6.2231 C   0  0  0  0  0  0  0  0  0  0  0  0
  -20.5176  -44.2702   -7.3418 C   0  0  0  0  0  0  0  0  0  0  0  0
  -20.9695  -44.5115   -8.4911 O   0  0  0  0  0  0  0  0  0  0  0  0
  -19.1332  -44.0343   -7.2019 N   0  0  0  0  0  0  0  0  0  0  0  0
  -18.1855  -44.5391   -8.1752 C   0  0  0  0  0  0  0  0  0  0  0  0
  -18.6526  -43.2776   -6.0694 C   0  0  1  0  0  0  0  0  0  0  0  0
  -18.2352  -44.3327   -5.0312 C   0  0  0  0  0  0  0  0  0  0  0  0
  -17.5178  -42.3745   -6.3820 C   0  0  0  0  0  0  0  0  0  0  0  0
  -16.8254  -42.0324   -5.3502 O   0  0  0  0  0  0  0  0  0  0  0  0
  -17.1265  -41.8688   -7.6279 N   0  0  0  0  0  0  0  0  0  0  0  0
  -13.4981  -37.4638  -11.1074 N   0  0  0  0  0  0  0  0  0  0  0  0
  -13.5478  -36.2057  -11.4770 N   0  0  0  0  0  0  0  0  0  0  0  0
  1  2  1  0
  2  3  1  0
  3  4  1  0
  4  5  2  0
  5  6  1  0
  6  7  1  0
  7  8  1  0
  8  9  1  0
  9 10  1  0
 10 11  1  6
 10 12  1  0
 12 13  1  1
 13 14  1  0
 14 15  1  1
 14 16  1  0
 16 17  1  0
 17 18  1  0
 18 19  1  0
 19 20  1  0
 20 21  1  0
 21 22  1  0
 22 23  1  0
 23 24  1  0
 24 25  2  0
 24 26  1  0
 26 27  1  0
 26 28  1  0
 28 29  1  1
 28 30  1  0
 30 31  2  0
 30 32  1  0
  6 33  2  0
 33 34  1  0
 32 12  1  0
 34  4  1  0
M  END
$$$$
