
     RDKit          3D

 34 35  0  0  0  0  0  0  0  0999 V2000
  -13.0917  -36.5365  -16.0770 C   0  0  0  0  0  0  0  0  0  0  0  0
  -13.3133  -37.4928  -14.9526 C   0  0  0  0  0  0  0  0  0  0  0  0
  -12.2114  -37.4982  -13.9329 C   0  0  0  0  0  0  0  0  0  0  0  0
  -12.5868  -38.4594  -12.8513 C   0  0  0  0  0  0  0  0  0  0  0  0
  -13.0373  -38.1413  -11.5880 C   0  0  0  0  0  0  0  0  0  0  0  0
  -13.2586  -39.3181  -10.9338 C   0  0  0  0  0  0  0  0  0  0  0  0
  -13.7533  -39.5318   -9.5322 C   0  0  0  0  0  0  0  0  0  0  0  0
  -14.6256  -38.4328   -9.1653 N   0  0  0  0  0  0  0  0  0  0  0  0
  -15.9300  -38.5984   -9.7272 C   0  0  0  0  0  0  0  0  0  0  0  0
  -17.0212  -38.4441   -8.7414 C   0  0  1  0  0  0  0  0  0  0  0  0
  -17.7777  -37.3043   -9.0151 O   0  0  0  0  0  0  0  0  0  0  0  0
  -17.8431  -39.6431   -8.4306 C   0  0  2  0  0  0  0  0  0  0  0  0
  -19.2571  -39.4696   -8.0733 C   0  0  0  0  0  0  0  0  0  0  0  0
  -19.6865  -38.3889   -7.1774 C   0  0  2  0  0  0  0  0  0  0  0  0
  -19.3540  -38.5425   -5.7156 C   0  0  0  0  0  0  0  0  0  0  0  0
  -21.2351  -38.4250   -7.2184 C   0  0  0  0  0  0  0  0  0  0  0  0
  -21.7147  -39.8454   -7.0134 C   0  0  0  0  0  0  0  0  0  0  0  0
  -23.1376  -39.8997   -6.5034 C   0  0  0  0  0  0  0  0  0  0  0  0
  -23.2665  -41.1554   -5.6393 C   0  0  0  0  0  0  0  0  0  0  0  0
  -23.9833  -42.2655   -6.3331 C   0  0  0  0  0  0  0  0  0  0  0  0
  -23.0786  -43.4028   -6.7647 C   0  0  0  0  0  0  0  0  0  0  0  0
  -22.0744  -43.0249   -7.6169 O   0  0  0  0  0  0  0  0  0  0  0  0
  -20.9678  -43.8676   -7.5532 C   0  0  0  0  0  0  0  0  0  0  0  0
  -19.9013  -43.4095   -8.4637 C   0  0  0  0  0  0  0  0  0  0  0  0
  -20.1597  -43.3883   -9.6951 O   0  0  0  0  0  0  0  0  0  0  0  0
  -18.6196  -42.9972   -8.0408 N   0  0  0  0  0  0  0  0  0  0  0  0
  -17.4837  -43.0433   -8.9394 C   0  0  0  0  0  0  0  0  0  0  0  0
  -18.4367  -42.5217   -6.6892 C   0  0  1  0  0  0  0  0  0  0  0  0
  -17.9344  -43.7426   -5.9002 C   0  0  0  0  0  0  0  0  0  0  0  0
  -17.4820  -41.3926   -6.5684 C   0  0  0  0  0  0  0  0  0  0  0  0
  -16.9969  -41.2457   -5.3834 O   0  0  0  0  0  0  0  0  0  0  0  0
  -17.0621  -40.4988   -7.5613 N   0  0  0  0  0  0  0  0  0  0  0  0
  -12.9437  -40.3043  -11.7976 N   0  0  0  0  0  0  0  0  0  0  0  0
  -12.5426  -39.8039  -12.9423 N   0  0  0  0  0  0  0  0  0  0  0  0
  1  2  1  0
  2  3  1  0
  3  4  1  0
  4  5  2  0
  5  6  1  0
  6  7  1  0
  7  8  1  0
  8  9  1  0
  9 10  1  0
 10 11  1  6
 10 12  1  0
 12 13  1  1
 13 14  1  0
 14 15  1  1
 14 16  1  0
 16 17  1  0
 17 18  1  0
 18 19  1  0
 19 20  1  0
 20 21  1  0
 21 22  1  0
 22 23  1  0
 23 24  1  0
 24 25  2  0
 24 26  1  0
 26 27  1  0
 26 28  1  0
 28 29  1  1
 28 30  1  0
 30 31  2  0
 30 32  1  0
  6 33  2  0
 33 34  1  0
 32 12  1  0
 34  4  1  0
M  END
$$$$
