
     RDKit          3D

 37 39  0  0  0  0  0  0  0  0999 V2000
  -21.3407  -41.7631  -11.7516 C   0  0  0  0  0  0  0  0  0  0  0  0
  -22.2390  -41.6943  -10.5392 C   0  0  0  0  0  0  0  0  0  0  0  0
  -23.6778  -41.5931  -11.0748 C   0  0  0  0  0  0  0  0  0  0  0  0
  -22.0253  -40.4438   -9.7666 C   0  0  0  0  0  0  0  0  0  0  0  0
  -21.3156  -40.3913   -8.5752 C   0  0  0  0  0  0  0  0  0  0  0  0
  -21.1211  -39.2407   -7.8725 C   0  0  0  0  0  0  0  0  0  0  0  0
  -21.6393  -38.0603   -8.3396 C   0  0  0  0  0  0  0  0  0  0  0  0
  -22.3527  -38.0816   -9.5268 C   0  0  0  0  0  0  0  0  0  0  0  0
  -22.5418  -39.2544  -10.2273 C   0  0  0  0  0  0  0  0  0  0  0  0
  -20.3571  -39.2740   -6.5941 C   0  0  0  0  0  0  0  0  0  0  0  0
  -20.8178  -38.2106   -5.6379 C   0  0  0  0  0  0  0  0  0  0  0  0
  -20.8670  -40.5836   -5.8925 C   0  0  0  0  0  0  0  0  0  0  0  0
  -19.0024  -39.3781   -6.6910 N   0  0  0  0  0  0  0  0  0  0  0  0
  -18.0176  -38.4615   -6.9038 C   0  0  0  0  0  0  0  0  0  0  0  0
  -17.2743  -38.2819   -8.1529 C   0  0  1  0  0  0  0  0  0  0  0  0
  -16.9455  -37.0021   -8.5424 O   0  0  0  0  0  0  0  0  0  0  0  0
  -16.0642  -39.1714   -8.3736 C   0  0  2  0  0  0  0  0  0  0  0  0
  -15.4230  -38.9969   -9.7076 C   0  0  0  0  0  0  0  0  0  0  0  0
  -14.7359  -37.6191   -9.7758 C   0  0  2  0  0  0  0  0  0  0  0  0
  -15.3155  -36.7556  -10.8698 C   0  0  0  0  0  0  0  0  0  0  0  0
  -13.2276  -37.7673   -9.9398 C   0  0  0  0  0  0  0  0  0  0  0  0
  -12.7193  -37.3108  -11.2662 C   0  0  0  0  0  0  0  0  0  0  0  0
  -11.8160  -38.3924  -11.8334 C   0  0  0  0  0  0  0  0  0  0  0  0
  -12.2359  -38.7601  -13.2266 C   0  0  0  0  0  0  0  0  0  0  0  0
  -12.6235  -40.1971  -13.3809 C   0  0  0  0  0  0  0  0  0  0  0  0
  -13.8491  -40.2984  -14.2887 C   0  0  0  0  0  0  0  0  0  0  0  0
  -15.1219  -40.2127  -13.4462 C   0  0  0  0  0  0  0  0  0  0  0  0
  -15.5798  -41.5742  -13.2646 N   0  0  0  0  0  0  0  0  0  0  0  0
  -15.6390  -42.2633  -12.0318 C   0  0  0  0  0  0  0  0  0  0  0  0
  -15.2948  -43.6183  -12.0542 C   0  0  0  0  0  0  0  0  0  0  0  0
  -15.3262  -44.3530  -10.8927 C   0  0  0  0  0  0  0  0  0  0  0  0
  -15.7023  -43.6968   -9.7563 C   0  0  0  0  0  0  0  0  0  0  0  0
  -16.0544  -42.3310   -9.7082 C   0  0  0  0  0  0  0  0  0  0  0  0
  -15.9889  -41.7225  -10.8819 N   0  0  0  0  0  0  0  0  0  0  0  0
  -16.4537  -41.7329   -8.4440 C   0  0  0  0  0  0  0  0  0  0  0  0
  -17.1704  -42.5660   -7.7426 O   0  0  0  0  0  0  0  0  0  0  0  0
  -16.2221  -40.4889   -7.8676 N   0  0  0  0  0  0  0  0  0  0  0  0
  1  2  1  0
  2  3  1  0
  2  4  1  0
  4  5  2  0
  5  6  1  0
  6  7  2  0
  7  8  1  0
  8  9  2  0
  6 10  1  0
 10 11  1  0
 10 12  1  0
 10 13  1  0
 13 14  1  0
 14 15  1  0
 15 16  1  1
 15 17  1  0
 17 18  1  6
 18 19  1  0
 19 20  1  6
 19 21  1  0
 21 22  1  0
 22 23  1  0
 23 24  1  0
 24 25  1  0
 25 26  1  0
 26 27  1  0
 27 28  1  0
 28 29  1  0
 29 30  2  0
 30 31  1  0
 31 32  2  0
 32 33  1  0
 33 34  2  0
 33 35  1  0
 35 36  2  0
 35 37  1  0
  9  4  1  0
 34 29  1  0
 37 17  1  0
M  END
$$$$
