
     RDKit          3D

 37 39  0  0  0  0  0  0  0  0999 V2000
  -11.1649  -35.8376  -14.5983 C   0  0  0  0  0  0  0  0  0  0  0  0
  -10.8024  -36.6710  -13.3919 C   0  0  0  0  0  0  0  0  0  0  0  0
   -9.6438  -37.5830  -13.8314 C   0  0  0  0  0  0  0  0  0  0  0  0
  -11.9005  -37.5966  -13.0128 C   0  0  0  0  0  0  0  0  0  0  0  0
  -12.9558  -37.2356  -12.1870 C   0  0  0  0  0  0  0  0  0  0  0  0
  -13.9612  -38.0885  -11.8448 C   0  0  0  0  0  0  0  0  0  0  0  0
  -13.9586  -39.3732  -12.3242 C   0  0  0  0  0  0  0  0  0  0  0  0
  -12.9178  -39.7624  -13.1511 C   0  0  0  0  0  0  0  0  0  0  0  0
  -11.9064  -38.8877  -13.4887 C   0  0  0  0  0  0  0  0  0  0  0  0
  -15.0509  -37.6241  -10.9416 C   0  0  0  0  0  0  0  0  0  0  0  0
  -14.9680  -36.1475  -10.6764 C   0  0  0  0  0  0  0  0  0  0  0  0
  -16.3388  -37.7208  -11.8356 C   0  0  0  0  0  0  0  0  0  0  0  0
  -15.2850  -38.3713   -9.8271 N   0  0  0  0  0  0  0  0  0  0  0  0
  -15.9388  -38.1121   -8.6606 C   0  0  0  0  0  0  0  0  0  0  0  0
  -16.7143  -39.0813   -7.8833 C   0  0  1  0  0  0  0  0  0  0  0  0
  -17.1091  -38.7352   -6.6096 O   0  0  0  0  0  0  0  0  0  0  0  0
  -17.8863  -39.7494   -8.5790 C   0  0  2  0  0  0  0  0  0  0  0  0
  -19.0788  -39.9376   -7.7051 C   0  0  0  0  0  0  0  0  0  0  0  0
  -19.7174  -38.5690   -7.3985 C   0  0  2  0  0  0  0  0  0  0  0  0
  -19.7193  -38.2683   -5.9193 C   0  0  0  0  0  0  0  0  0  0  0  0
  -21.1261  -38.4812   -7.9743 C   0  0  0  0  0  0  0  0  0  0  0  0
  -22.1978  -38.4327   -6.9372 C   0  0  0  0  0  0  0  0  0  0  0  0
  -23.2616  -39.4558   -7.2965 C   0  0  0  0  0  0  0  0  0  0  0  0
  -23.5449  -40.3602   -6.1328 C   0  0  0  0  0  0  0  0  0  0  0  0
  -23.2750  -41.8054   -6.4116 C   0  0  0  0  0  0  0  0  0  0  0  0
  -22.6191  -42.4453   -5.1882 C   0  0  0  0  0  0  0  0  0  0  0  0
  -21.0997  -42.3085   -5.2884 C   0  0  0  0  0  0  0  0  0  0  0  0
  -20.6101  -43.5796   -5.7792 N   0  0  0  0  0  0  0  0  0  0  0  0
  -19.9791  -43.7907   -7.0264 C   0  0  0  0  0  0  0  0  0  0  0  0
  -20.2935  -44.9779   -7.6947 C   0  0  0  0  0  0  0  0  0  0  0  0
  -19.7205  -45.2506   -8.9142 C   0  0  0  0  0  0  0  0  0  0  0  0
  -18.8549  -44.3199   -9.4123 C   0  0  0  0  0  0  0  0  0  0  0  0
  -18.5215  -43.1153   -8.7570 C   0  0  0  0  0  0  0  0  0  0  0  0
  -19.1304  -42.9563   -7.5924 N   0  0  0  0  0  0  0  0  0  0  0  0
  -17.5754  -42.1974   -9.3717 C   0  0  0  0  0  0  0  0  0  0  0  0
  -16.6134  -42.8496   -9.9623 O   0  0  0  0  0  0  0  0  0  0  0  0
  -17.5094  -40.8104   -9.4444 N   0  0  0  0  0  0  0  0  0  0  0  0
  1  2  1  0
  2  3  1  0
  2  4  1  0
  4  5  2  0
  5  6  1  0
  6  7  2  0
  7  8  1  0
  8  9  2  0
  6 10  1  0
 10 11  1  0
 10 12  1  0
 10 13  1  0
 13 14  1  0
 14 15  1  0
 15 16  1  1
 15 17  1  0
 17 18  1  1
 18 19  1  0
 19 20  1  1
 19 21  1  0
 21 22  1  0
 22 23  1  0
 23 24  1  0
 24 25  1  0
 25 26  1  0
 26 27  1  0
 27 28  1  0
 28 29  1  0
 29 30  2  0
 30 31  1  0
 31 32  2  0
 32 33  1  0
 33 34  2  0
 33 35  1  0
 35 36  2  0
 35 37  1  0
  9  4  1  0
 34 29  1  0
 37 17  1  0
M  END
$$$$
