
     RDKit          3D

 37 39  0  0  0  0  0  0  0  0999 V2000
  -12.3251  -35.7434  -14.7515 C   0  0  0  0  0  0  0  0  0  0  0  0
  -13.4669  -35.7184  -13.7630 C   0  0  0  0  0  0  0  0  0  0  0  0
  -13.6065  -34.2566  -13.3037 C   0  0  0  0  0  0  0  0  0  0  0  0
  -13.1440  -36.4817  -12.5303 C   0  0  0  0  0  0  0  0  0  0  0  0
  -13.8632  -37.5899  -12.1052 C   0  0  0  0  0  0  0  0  0  0  0  0
  -13.5606  -38.2872  -10.9748 C   0  0  0  0  0  0  0  0  0  0  0  0
  -12.4989  -37.8999  -10.1982 C   0  0  0  0  0  0  0  0  0  0  0  0
  -11.7623  -36.7970  -10.5975 C   0  0  0  0  0  0  0  0  0  0  0  0
  -12.0808  -36.1006  -11.7444 C   0  0  0  0  0  0  0  0  0  0  0  0
  -14.3927  -39.4588  -10.5826 C   0  0  0  0  0  0  0  0  0  0  0  0
  -15.7956  -39.3515  -11.1095 C   0  0  0  0  0  0  0  0  0  0  0  0
  -13.8103  -40.6327  -11.4486 C   0  0  0  0  0  0  0  0  0  0  0  0
  -14.3221  -39.8538   -9.2809 N   0  0  0  0  0  0  0  0  0  0  0  0
  -14.7370  -39.2806   -8.1169 C   0  0  0  0  0  0  0  0  0  0  0  0
  -15.8823  -39.7135   -7.3133 C   0  0  1  0  0  0  0  0  0  0  0  0
  -16.1796  -39.0136   -6.1645 O   0  0  0  0  0  0  0  0  0  0  0  0
  -17.1802  -39.9919   -8.0494 C   0  0  2  0  0  0  0  0  0  0  0  0
  -18.3846  -39.9852   -7.1716 C   0  0  0  0  0  0  0  0  0  0  0  0
  -18.6708  -38.5476   -6.6958 C   0  0  2  0  0  0  0  0  0  0  0  0
  -18.6027  -38.4290   -5.1926 C   0  0  0  0  0  0  0  0  0  0  0  0
  -20.0141  -38.0545   -7.2212 C   0  0  0  0  0  0  0  0  0  0  0  0
  -21.0440  -37.8681   -6.1577 C   0  0  0  0  0  0  0  0  0  0  0  0
  -22.3244  -38.5538   -6.6025 C   0  0  0  0  0  0  0  0  0  0  0  0
  -22.8226  -39.4910   -5.5415 C   0  0  0  0  0  0  0  0  0  0  0  0
  -22.9129  -40.9161   -5.9888 C   0  0  0  0  0  0  0  0  0  0  0  0
  -22.4358  -41.8335   -4.8630 C   0  0  0  0  0  0  0  0  0  0  0  0
  -20.9287  -42.0587   -4.9865 C   0  0  0  0  0  0  0  0  0  0  0  0
  -20.7629  -43.3449   -5.6304 N   0  0  0  0  0  0  0  0  0  0  0  0
  -20.1995  -43.5567   -6.9094 C   0  0  0  0  0  0  0  0  0  0  0  0
  -20.7925  -44.5464   -7.6992 C   0  0  0  0  0  0  0  0  0  0  0  0
  -20.3004  -44.8067   -8.9562 C   0  0  0  0  0  0  0  0  0  0  0  0
  -19.2327  -44.0626   -9.3683 C   0  0  0  0  0  0  0  0  0  0  0  0
  -18.6171  -43.0592   -8.5900 C   0  0  0  0  0  0  0  0  0  0  0  0
  -19.1715  -42.8933   -7.3995 N   0  0  0  0  0  0  0  0  0  0  0  0
  -17.4742  -42.3334   -9.1214 C   0  0  0  0  0  0  0  0  0  0  0  0
  -16.6989  -43.1265   -9.8067 O   0  0  0  0  0  0  0  0  0  0  0  0
  -17.0715  -41.0050   -9.0386 N   0  0  0  0  0  0  0  0  0  0  0  0
  1  2  1  0
  2  3  1  0
  2  4  1  0
  4  5  2  0
  5  6  1  0
  6  7  2  0
  7  8  1  0
  8  9  2  0
  6 10  1  0
 10 11  1  0
 10 12  1  0
 10 13  1  0
 13 14  1  0
 14 15  1  0
 15 16  1  1
 15 17  1  0
 17 18  1  1
 18 19  1  0
 19 20  1  1
 19 21  1  0
 21 22  1  0
 22 23  1  0
 23 24  1  0
 24 25  1  0
 25 26  1  0
 26 27  1  0
 27 28  1  0
 28 29  1  0
 29 30  2  0
 30 31  1  0
 31 32  2  0
 32 33  1  0
 33 34  2  0
 33 35  1  0
 35 36  2  0
 35 37  1  0
  9  4  1  0
 34 29  1  0
 37 17  1  0
M  END
$$$$
