
     RDKit          3D

 37 39  0  0  0  0  0  0  0  0999 V2000
  -10.0733  -39.4217  -12.0114 C   0  0  0  0  0  0  0  0  0  0  0  0
  -11.0040  -39.3688  -13.1999 C   0  0  0  0  0  0  0  0  0  0  0  0
  -10.8151  -37.9793  -13.8329 C   0  0  0  0  0  0  0  0  0  0  0  0
  -12.4294  -39.4139  -12.7847 C   0  0  0  0  0  0  0  0  0  0  0  0
  -13.0215  -38.4564  -11.9730 C   0  0  0  0  0  0  0  0  0  0  0  0
  -14.3301  -38.5021  -11.5976 C   0  0  0  0  0  0  0  0  0  0  0  0
  -15.1273  -39.5319  -12.0269 C   0  0  0  0  0  0  0  0  0  0  0  0
  -14.5639  -40.5027  -12.8386 C   0  0  0  0  0  0  0  0  0  0  0  0
  -13.2372  -40.4434  -13.2102 C   0  0  0  0  0  0  0  0  0  0  0  0
  -14.8840  -37.4396  -10.7126 C   0  0  0  0  0  0  0  0  0  0  0  0
  -14.2218  -36.1118  -10.9488 C   0  0  0  0  0  0  0  0  0  0  0  0
  -16.3236  -37.1909  -11.2895 C   0  0  0  0  0  0  0  0  0  0  0  0
  -15.0337  -37.7538   -9.3957 N   0  0  0  0  0  0  0  0  0  0  0  0
  -16.0994  -37.7048   -8.5488 C   0  0  0  0  0  0  0  0  0  0  0  0
  -16.6553  -38.8405   -7.8099 C   0  0  1  0  0  0  0  0  0  0  0  0
  -16.9623  -38.6696   -6.4779 O   0  0  0  0  0  0  0  0  0  0  0  0
  -17.7914  -39.6048   -8.4651 C   0  0  2  0  0  0  0  0  0  0  0  0
  -18.9241  -39.9072   -7.5451 C   0  0  0  0  0  0  0  0  0  0  0  0
  -19.6690  -38.6043   -7.1947 C   0  0  2  0  0  0  0  0  0  0  0  0
  -19.6349  -38.3185   -5.7130 C   0  0  0  0  0  0  0  0  0  0  0  0
  -21.1030  -38.6381   -7.7106 C   0  0  0  0  0  0  0  0  0  0  0  0
  -22.1297  -38.6956   -6.6295 C   0  0  0  0  0  0  0  0  0  0  0  0
  -23.1122  -39.8067   -6.9575 C   0  0  0  0  0  0  0  0  0  0  0  0
  -23.2640  -40.7434   -5.7948 C   0  0  0  0  0  0  0  0  0  0  0  0
  -22.8782  -42.1559   -6.1031 C   0  0  0  0  0  0  0  0  0  0  0  0
  -22.1164  -42.7455   -4.9163 C   0  0  0  0  0  0  0  0  0  0  0  0
  -20.6210  -42.4719   -5.0775 C   0  0  0  0  0  0  0  0  0  0  0  0
  -20.0411  -43.6894   -5.6044 N   0  0  0  0  0  0  0  0  0  0  0  0
  -19.4471  -43.8316   -6.8792 C   0  0  0  0  0  0  0  0  0  0  0  0
  -19.6822  -45.0362   -7.5492 C   0  0  0  0  0  0  0  0  0  0  0  0
  -19.1394  -45.2451   -8.7948 C   0  0  0  0  0  0  0  0  0  0  0  0
  -18.3822  -44.2361   -9.3163 C   0  0  0  0  0  0  0  0  0  0  0  0
  -18.1303  -43.0124   -8.6599 C   0  0  0  0  0  0  0  0  0  0  0  0
  -18.7010  -42.9193   -7.4692 N   0  0  0  0  0  0  0  0  0  0  0  0
  -17.2969  -42.0077   -9.3014 C   0  0  0  0  0  0  0  0  0  0  0  0
  -16.3063  -42.5655   -9.9396 O   0  0  0  0  0  0  0  0  0  0  0  0
  -17.3582  -40.6198   -9.3589 N   0  0  0  0  0  0  0  0  0  0  0  0
  1  2  1  0
  2  3  1  0
  2  4  1  0
  4  5  2  0
  5  6  1  0
  6  7  2  0
  7  8  1  0
  8  9  2  0
  6 10  1  0
 10 11  1  0
 10 12  1  0
 10 13  1  0
 13 14  1  0
 14 15  1  0
 15 16  1  1
 15 17  1  0
 17 18  1  1
 18 19  1  0
 19 20  1  1
 19 21  1  0
 21 22  1  0
 22 23  1  0
 23 24  1  0
 24 25  1  0
 25 26  1  0
 26 27  1  0
 27 28  1  0
 28 29  1  0
 29 30  2  0
 30 31  1  0
 31 32  2  0
 32 33  1  0
 33 34  2  0
 33 35  1  0
 35 36  2  0
 35 37  1  0
  9  4  1  0
 34 29  1  0
 37 17  1  0
M  END
$$$$
