
     RDKit          3D

 37 39  0  0  0  0  0  0  0  0999 V2000
  -11.9216  -37.0275  -13.9855 C   0  0  0  0  0  0  0  0  0  0  0  0
  -11.7059  -36.1644  -12.7648 C   0  0  0  0  0  0  0  0  0  0  0  0
  -10.4529  -36.7166  -12.0633 C   0  0  0  0  0  0  0  0  0  0  0  0
  -12.8038  -36.3241  -11.7772 C   0  0  0  0  0  0  0  0  0  0  0  0
  -13.0766  -37.5163  -11.1212 C   0  0  0  0  0  0  0  0  0  0  0  0
  -14.0837  -37.6558  -10.2146 C   0  0  0  0  0  0  0  0  0  0  0  0
  -14.8841  -36.5839   -9.9140 C   0  0  0  0  0  0  0  0  0  0  0  0
  -14.6357  -35.3804  -10.5533 C   0  0  0  0  0  0  0  0  0  0  0  0
  -13.6126  -35.2543  -11.4693 C   0  0  0  0  0  0  0  0  0  0  0  0
  -14.3170  -38.9756   -9.5645 C   0  0  0  0  0  0  0  0  0  0  0  0
  -13.8374  -40.1142  -10.4194 C   0  0  0  0  0  0  0  0  0  0  0  0
  -13.2792  -38.9960   -8.3857 C   0  0  0  0  0  0  0  0  0  0  0  0
  -15.5461  -39.1801   -9.0141 N   0  0  0  0  0  0  0  0  0  0  0  0
  -16.5249  -40.0969   -9.2522 C   0  0  0  0  0  0  0  0  0  0  0  0
  -17.4009  -40.1249  -10.4256 C   0  0  1  0  0  0  0  0  0  0  0  0
  -16.8291  -40.2959  -11.6672 O   0  0  0  0  0  0  0  0  0  0  0  0
  -18.6374  -41.0018  -10.3470 C   0  0  2  0  0  0  0  0  0  0  0  0
  -19.4292  -40.8171   -9.0979 C   0  0  0  0  0  0  0  0  0  0  0  0
  -20.1056  -39.4325   -9.1134 C   0  0  2  0  0  0  0  0  0  0  0  0
  -19.6498  -38.5715   -7.9604 C   0  0  0  0  0  0  0  0  0  0  0  0
  -21.6241  -39.5653   -9.1276 C   0  0  0  0  0  0  0  0  0  0  0  0
  -22.2802  -39.1000   -7.8709 C   0  0  0  0  0  0  0  0  0  0  0  0
  -23.2547  -40.1710   -7.4119 C   0  0  0  0  0  0  0  0  0  0  0  0
  -23.0052  -40.5387   -5.9784 C   0  0  0  0  0  0  0  0  0  0  0  0
  -22.6529  -41.9790   -5.7771 C   0  0  0  0  0  0  0  0  0  0  0  0
  -21.5436  -42.0897   -4.7313 C   0  0  0  0  0  0  0  0  0  0  0  0
  -20.1797  -42.0189   -5.4185 C   0  0  0  0  0  0  0  0  0  0  0  0
  -19.7175  -43.3854   -5.5427 N   0  0  0  0  0  0  0  0  0  0  0  0
  -19.5208  -44.0787   -6.7588 C   0  0  0  0  0  0  0  0  0  0  0  0
  -19.8788  -45.4302   -6.7745 C   0  0  0  0  0  0  0  0  0  0  0  0
  -19.7186  -46.1685   -7.9230 C   0  0  0  0  0  0  0  0  0  0  0  0
  -19.2049  -45.5194   -9.0085 C   0  0  0  0  0  0  0  0  0  0  0  0
  -18.8359  -44.1573   -9.0172 C   0  0  0  0  0  0  0  0  0  0  0  0
  -19.0327  -43.5447   -7.8604 N   0  0  0  0  0  0  0  0  0  0  0  0
  -18.2847  -43.5668  -10.2268 C   0  0  0  0  0  0  0  0  0  0  0  0
  -17.4991  -44.4089  -10.8376 O   0  0  0  0  0  0  0  0  0  0  0  0
  -18.4345  -42.3223  -10.8286 N   0  0  0  0  0  0  0  0  0  0  0  0
  1  2  1  0
  2  3  1  0
  2  4  1  0
  4  5  2  0
  5  6  1  0
  6  7  2  0
  7  8  1  0
  8  9  2  0
  6 10  1  0
 10 11  1  0
 10 12  1  0
 10 13  1  0
 13 14  1  0
 14 15  1  0
 15 16  1  6
 15 17  1  0
 17 18  1  1
 18 19  1  0
 19 20  1  1
 19 21  1  0
 21 22  1  0
 22 23  1  0
 23 24  1  0
 24 25  1  0
 25 26  1  0
 26 27  1  0
 27 28  1  0
 28 29  1  0
 29 30  2  0
 30 31  1  0
 31 32  2  0
 32 33  1  0
 33 34  2  0
 33 35  1  0
 35 36  2  0
 35 37  1  0
  9  4  1  0
 34 29  1  0
 37 17  1  0
M  END
$$$$
