
     RDKit          3D

 37 39  0  0  0  0  0  0  0  0999 V2000
  -16.1104  -34.5444  -11.2358 C   0  0  0  0  0  0  0  0  0  0  0  0
  -17.1348  -35.3460  -12.0036 C   0  0  0  0  0  0  0  0  0  0  0  0
  -18.3902  -35.4027  -11.1160 C   0  0  0  0  0  0  0  0  0  0  0  0
  -16.7143  -36.7609  -12.1693 C   0  0  0  0  0  0  0  0  0  0  0  0
  -15.8412  -37.4068  -11.3053 C   0  0  0  0  0  0  0  0  0  0  0  0
  -15.4612  -38.7056  -11.4614 C   0  0  0  0  0  0  0  0  0  0  0  0
  -15.9485  -39.4370  -12.5139 C   0  0  0  0  0  0  0  0  0  0  0  0
  -16.8222  -38.8189  -13.3932 C   0  0  0  0  0  0  0  0  0  0  0  0
  -17.1977  -37.5029  -13.2226 C   0  0  0  0  0  0  0  0  0  0  0  0
  -14.5088  -39.3196  -10.4947 C   0  0  0  0  0  0  0  0  0  0  0  0
  -13.5353  -40.2402  -11.1747 C   0  0  0  0  0  0  0  0  0  0  0  0
  -13.5832  -38.1217  -10.0756 C   0  0  0  0  0  0  0  0  0  0  0  0
  -15.0403  -39.8295   -9.3488 N   0  0  0  0  0  0  0  0  0  0  0  0
  -15.4379  -39.2560   -8.1790 C   0  0  0  0  0  0  0  0  0  0  0  0
  -16.5151  -39.7413   -7.3136 C   0  0  1  0  0  0  0  0  0  0  0  0
  -16.8928  -38.9663   -6.2391 O   0  0  0  0  0  0  0  0  0  0  0  0
  -17.7711  -40.2566   -7.9925 C   0  0  2  0  0  0  0  0  0  0  0  0
  -18.9169  -40.4654   -7.0626 C   0  0  0  0  0  0  0  0  0  0  0  0
  -19.4403  -39.1017   -6.5712 C   0  0  2  0  0  0  0  0  0  0  0  0
  -19.3294  -38.9641   -5.0722 C   0  0  0  0  0  0  0  0  0  0  0  0
  -20.8728  -38.8657   -7.0359 C   0  0  0  0  0  0  0  0  0  0  0  0
  -21.8719  -38.8648   -5.9277 C   0  0  0  0  0  0  0  0  0  0  0  0
  -23.0235  -39.7756   -6.3174 C   0  0  0  0  0  0  0  0  0  0  0  0
  -23.2948  -40.7821   -5.2377 C   0  0  0  0  0  0  0  0  0  0  0  0
  -23.1422  -42.2022   -5.6840 C   0  0  0  0  0  0  0  0  0  0  0  0
  -22.4566  -43.0104   -4.5825 C   0  0  0  0  0  0  0  0  0  0  0  0
  -20.9406  -42.9568   -4.7728 C   0  0  0  0  0  0  0  0  0  0  0  0
  -20.5705  -44.1946   -5.4264 N   0  0  0  0  0  0  0  0  0  0  0  0
  -20.0343  -44.3070   -6.7295 C   0  0  0  0  0  0  0  0  0  0  0  0
  -20.4700  -45.3930   -7.4949 C   0  0  0  0  0  0  0  0  0  0  0  0
  -19.9941  -45.5660   -8.7729 C   0  0  0  0  0  0  0  0  0  0  0  0
  -19.0996  -44.6415   -9.2298 C   0  0  0  0  0  0  0  0  0  0  0  0
  -18.6446  -43.5380   -8.4768 C   0  0  0  0  0  0  0  0  0  0  0  0
  -19.1674  -43.4696   -7.2627 N   0  0  0  0  0  0  0  0  0  0  0  0
  -17.6781  -42.6184   -9.0563 C   0  0  0  0  0  0  0  0  0  0  0  0
  -16.8015  -43.2601   -9.7769 O   0  0  0  0  0  0  0  0  0  0  0  0
  -17.5222  -41.2383   -8.9881 N   0  0  0  0  0  0  0  0  0  0  0  0
  1  2  1  0
  2  3  1  0
  2  4  1  0
  4  5  2  0
  5  6  1  0
  6  7  2  0
  7  8  1  0
  8  9  2  0
  6 10  1  0
 10 11  1  0
 10 12  1  0
 10 13  1  0
 13 14  1  0
 14 15  1  0
 15 16  1  1
 15 17  1  0
 17 18  1  1
 18 19  1  0
 19 20  1  1
 19 21  1  0
 21 22  1  0
 22 23  1  0
 23 24  1  0
 24 25  1  0
 25 26  1  0
 26 27  1  0
 27 28  1  0
 28 29  1  0
 29 30  2  0
 30 31  1  0
 31 32  2  0
 32 33  1  0
 33 34  2  0
 33 35  1  0
 35 36  2  0
 35 37  1  0
  9  4  1  0
 34 29  1  0
 37 17  1  0
M  END
$$$$
