
     RDKit          3D

 37 39  0  0  0  0  0  0  0  0999 V2000
  -11.6250  -33.7998  -11.5647 C   0  0  0  0  0  0  0  0  0  0  0  0
  -11.5254  -35.2335  -11.0998 C   0  0  0  0  0  0  0  0  0  0  0  0
  -10.2024  -35.7784  -11.6655 C   0  0  0  0  0  0  0  0  0  0  0  0
  -12.5833  -36.0827  -11.7046 C   0  0  0  0  0  0  0  0  0  0  0  0
  -13.3067  -37.0288  -10.9922 C   0  0  0  0  0  0  0  0  0  0  0  0
  -14.2775  -37.8030  -11.5523 C   0  0  0  0  0  0  0  0  0  0  0  0
  -14.5780  -37.6637  -12.8828 C   0  0  0  0  0  0  0  0  0  0  0  0
  -13.8724  -36.7269  -13.6198 C   0  0  0  0  0  0  0  0  0  0  0  0
  -12.8918  -35.9503  -13.0391 C   0  0  0  0  0  0  0  0  0  0  0  0
  -14.9982  -38.8051  -10.7185 C   0  0  0  0  0  0  0  0  0  0  0  0
  -16.1377  -39.4396  -11.4644 C   0  0  0  0  0  0  0  0  0  0  0  0
  -13.9799  -39.9960  -10.6086 C   0  0  0  0  0  0  0  0  0  0  0  0
  -15.3121  -38.4334   -9.4462 N   0  0  0  0  0  0  0  0  0  0  0  0
  -16.4979  -38.2143   -8.8128 C   0  0  0  0  0  0  0  0  0  0  0  0
  -17.1543  -39.1393   -7.8863 C   0  0  1  0  0  0  0  0  0  0  0  0
  -17.4651  -38.6905   -6.6215 O   0  0  0  0  0  0  0  0  0  0  0  0
  -18.3392  -39.9266   -8.4156 C   0  0  2  0  0  0  0  0  0  0  0  0
  -19.4019  -40.1725   -7.4000 C   0  0  0  0  0  0  0  0  0  0  0  0
  -20.1129  -38.8474   -7.0631 C   0  0  2  0  0  0  0  0  0  0  0  0
  -19.9678  -38.4867   -5.6046 C   0  0  0  0  0  0  0  0  0  0  0  0
  -21.5814  -38.8956   -7.4692 C   0  0  0  0  0  0  0  0  0  0  0  0
  -22.5254  -38.8895   -6.3136 C   0  0  0  0  0  0  0  0  0  0  0  0
  -23.5343  -40.0078   -6.5107 C   0  0  0  0  0  0  0  0  0  0  0  0
  -23.6036  -40.8828   -5.2933 C   0  0  0  0  0  0  0  0  0  0  0  0
  -23.2480  -42.3123   -5.5563 C   0  0  0  0  0  0  0  0  0  0  0  0
  -22.4029  -42.8469   -4.4002 C   0  0  0  0  0  0  0  0  0  0  0  0
  -20.9223  -42.5942   -4.6853 C   0  0  0  0  0  0  0  0  0  0  0  0
  -20.3885  -43.8417   -5.1904 N   0  0  0  0  0  0  0  0  0  0  0  0
  -19.8914  -44.0535   -6.4966 C   0  0  0  0  0  0  0  0  0  0  0  0
  -20.1809  -45.2886   -7.0846 C   0  0  0  0  0  0  0  0  0  0  0  0
  -19.7329  -45.5652   -8.3545 C   0  0  0  0  0  0  0  0  0  0  0  0
  -19.0121  -44.5902   -8.9817 C   0  0  0  0  0  0  0  0  0  0  0  0
  -18.7068  -43.3368   -8.4095 C   0  0  0  0  0  0  0  0  0  0  0  0
  -19.1871  -43.1785   -7.1862 N   0  0  0  0  0  0  0  0  0  0  0  0
  -17.9188  -42.3730   -9.1616 C   0  0  0  0  0  0  0  0  0  0  0  0
  -16.9808  -42.9706   -9.8417 O   0  0  0  0  0  0  0  0  0  0  0  0
  -17.9780  -40.9893   -9.2856 N   0  0  0  0  0  0  0  0  0  0  0  0
  1  2  1  0
  2  3  1  0
  2  4  1  0
  4  5  2  0
  5  6  1  0
  6  7  2  0
  7  8  1  0
  8  9  2  0
  6 10  1  0
 10 11  1  0
 10 12  1  0
 10 13  1  0
 13 14  1  0
 14 15  1  0
 15 16  1  1
 15 17  1  0
 17 18  1  1
 18 19  1  0
 19 20  1  1
 19 21  1  0
 21 22  1  0
 22 23  1  0
 23 24  1  0
 24 25  1  0
 25 26  1  0
 26 27  1  0
 27 28  1  0
 28 29  1  0
 29 30  2  0
 30 31  1  0
 31 32  2  0
 32 33  1  0
 33 34  2  0
 33 35  1  0
 35 36  2  0
 35 37  1  0
  9  4  1  0
 34 29  1  0
 37 17  1  0
M  END
$$$$
