
     RDKit          3D

 37 39  0  0  0  0  0  0  0  0999 V2000
  -19.9568  -37.5604  -12.1910 C   0  0  0  0  0  0  0  0  0  0  0  0
  -20.8455  -36.6005  -11.4358 C   0  0  0  0  0  0  0  0  0  0  0  0
  -19.9901  -35.3531  -11.1541 C   0  0  0  0  0  0  0  0  0  0  0  0
  -21.2123  -37.1282  -10.0967 C   0  0  0  0  0  0  0  0  0  0  0  0
  -20.3090  -37.7453   -9.2428 C   0  0  0  0  0  0  0  0  0  0  0  0
  -20.6512  -38.2251   -8.0147 C   0  0  0  0  0  0  0  0  0  0  0  0
  -21.9436  -38.1071   -7.5721 C   0  0  0  0  0  0  0  0  0  0  0  0
  -22.8678  -37.4953   -8.4029 C   0  0  0  0  0  0  0  0  0  0  0  0
  -22.5068  -37.0146   -9.6440 C   0  0  0  0  0  0  0  0  0  0  0  0
  -19.6218  -38.8864   -7.1650 C   0  0  0  0  0  0  0  0  0  0  0  0
  -19.8296  -38.5972   -5.7054 C   0  0  0  0  0  0  0  0  0  0  0  0
  -19.9950  -40.4098   -7.2498 C   0  0  0  0  0  0  0  0  0  0  0  0
  -18.3262  -38.7727   -7.5698 N   0  0  0  0  0  0  0  0  0  0  0  0
  -17.1402  -38.8354   -6.9028 C   0  0  0  0  0  0  0  0  0  0  0  0
  -15.8288  -39.0645   -7.5132 C   0  0  1  0  0  0  0  0  0  0  0  0
  -14.7467  -38.3659   -7.0246 O   0  0  0  0  0  0  0  0  0  0  0  0
  -15.4061  -40.5066   -7.7273 C   0  0  2  0  0  0  0  0  0  0  0  0
  -14.1930  -40.6591   -8.5796 C   0  0  0  0  0  0  0  0  0  0  0  0
  -12.9560  -40.1469   -7.8164 C   0  0  2  0  0  0  0  0  0  0  0  0
  -12.2922  -38.9947   -8.5307 C   0  0  0  0  0  0  0  0  0  0  0  0
  -11.9634  -41.2757   -7.5627 C   0  0  0  0  0  0  0  0  0  0  0  0
  -10.6875  -41.1368   -8.3237 C   0  0  0  0  0  0  0  0  0  0  0  0
  -10.3891  -42.4596   -9.0082 C   0  0  0  0  0  0  0  0  0  0  0  0
  -10.1356  -42.2555  -10.4733 C   0  0  0  0  0  0  0  0  0  0  0  0
  -11.0924  -42.9892  -11.3595 C   0  0  0  0  0  0  0  0  0  0  0  0
  -11.4752  -42.0989  -12.5417 C   0  0  0  0  0  0  0  0  0  0  0  0
  -12.7027  -41.2626  -12.1797 C   0  0  0  0  0  0  0  0  0  0  0  0
  -13.8401  -41.9361  -12.7705 N   0  0  0  0  0  0  0  0  0  0  0  0
  -14.8997  -42.5396  -12.0556 C   0  0  0  0  0  0  0  0  0  0  0  0
  -15.4017  -43.7380  -12.5722 C   0  0  0  0  0  0  0  0  0  0  0  0
  -16.4306  -44.3841  -11.9290 C   0  0  0  0  0  0  0  0  0  0  0  0
  -16.9137  -43.8000  -10.7938 C   0  0  0  0  0  0  0  0  0  0  0  0
  -16.4245  -42.5916  -10.2532 C   0  0  0  0  0  0  0  0  0  0  0  0
  -15.4356  -42.0572  -10.9523 N   0  0  0  0  0  0  0  0  0  0  0  0
  -17.0212  -42.0487   -9.0430 C   0  0  0  0  0  0  0  0  0  0  0  0
  -18.3119  -42.2327   -9.0395 O   0  0  0  0  0  0  0  0  0  0  0  0
  -16.4927  -41.3972   -7.9341 N   0  0  0  0  0  0  0  0  0  0  0  0
  1  2  1  0
  2  3  1  0
  2  4  1  0
  4  5  2  0
  5  6  1  0
  6  7  2  0
  7  8  1  0
  8  9  2  0
  6 10  1  0
 10 11  1  0
 10 12  1  0
 10 13  1  0
 13 14  1  0
 14 15  1  0
 15 16  1  1
 15 17  1  0
 17 18  1  6
 18 19  1  0
 19 20  1  6
 19 21  1  0
 21 22  1  0
 22 23  1  0
 23 24  1  0
 24 25  1  0
 25 26  1  0
 26 27  1  0
 27 28  1  0
 28 29  1  0
 29 30  2  0
 30 31  1  0
 31 32  2  0
 32 33  1  0
 33 34  2  0
 33 35  1  0
 35 36  2  0
 35 37  1  0
  9  4  1  0
 34 29  1  0
 37 17  1  0
M  END
$$$$
