
     RDKit          3D

 37 39  0  0  0  0  0  0  0  0999 V2000
  -23.8475  -40.1240   -5.7610 C   0  0  0  0  0  0  0  0  0  0  0  0
  -23.6346  -40.9552   -4.5180 C   0  0  0  0  0  0  0  0  0  0  0  0
  -23.2908  -39.9649   -3.3918 C   0  0  0  0  0  0  0  0  0  0  0  0
  -22.4414  -41.8314   -4.6398 C   0  0  0  0  0  0  0  0  0  0  0  0
  -21.1753  -41.3613   -4.9594 C   0  0  0  0  0  0  0  0  0  0  0  0
  -20.0844  -42.1698   -5.0674 C   0  0  0  0  0  0  0  0  0  0  0  0
  -20.2113  -43.5186   -4.8554 C   0  0  0  0  0  0  0  0  0  0  0  0
  -21.4632  -44.0170   -4.5348 C   0  0  0  0  0  0  0  0  0  0  0  0
  -22.5589  -43.1862   -4.4293 C   0  0  0  0  0  0  0  0  0  0  0  0
  -18.7624  -41.5853   -5.4274 C   0  0  0  0  0  0  0  0  0  0  0  0
  -17.8866  -41.3949   -4.2215 C   0  0  0  0  0  0  0  0  0  0  0  0
  -18.0317  -42.7565   -6.1768 C   0  0  0  0  0  0  0  0  0  0  0  0
  -18.7729  -40.5184   -6.2742 N   0  0  0  0  0  0  0  0  0  0  0  0
  -17.9928  -39.4059   -6.3695 C   0  0  0  0  0  0  0  0  0  0  0  0
  -17.8490  -38.5637   -7.5590 C   0  0  1  0  0  0  0  0  0  0  0  0
  -17.3181  -37.3014   -7.4088 O   0  0  0  0  0  0  0  0  0  0  0  0
  -17.2230  -39.1994   -8.7871 C   0  0  2  0  0  0  0  0  0  0  0  0
  -17.4296  -38.4205  -10.0408 C   0  0  0  0  0  0  0  0  0  0  0  0
  -16.6043  -37.1201   -9.9846 C   0  0  2  0  0  0  0  0  0  0  0  0
  -17.4811  -35.8941  -10.0661 C   0  0  0  0  0  0  0  0  0  0  0  0
  -15.5380  -37.1012  -11.0737 C   0  0  0  0  0  0  0  0  0  0  0  0
  -15.7799  -36.0800  -12.1344 C   0  0  0  0  0  0  0  0  0  0  0  0
  -15.6372  -36.7510  -13.4897 C   0  0  0  0  0  0  0  0  0  0  0  0
  -16.8428  -36.4873  -14.3437 C   0  0  0  0  0  0  0  0  0  0  0  0
  -17.5707  -37.7267  -14.7598 C   0  0  0  0  0  0  0  0  0  0  0  0
  -19.0775  -37.4811  -14.6840 C   0  0  0  0  0  0  0  0  0  0  0  0
  -19.5883  -37.8431  -13.2892 C   0  0  0  0  0  0  0  0  0  0  0  0
  -20.1642  -39.1669  -13.3999 N   0  0  0  0  0  0  0  0  0  0  0  0
  -19.6739  -40.3316  -12.7663 C   0  0  0  0  0  0  0  0  0  0  0  0
  -19.7292  -41.5173  -13.5052 C   0  0  0  0  0  0  0  0  0  0  0  0
  -19.2677  -42.6898  -12.9555 C   0  0  0  0  0  0  0  0  0  0  0  0
  -18.7702  -42.6235  -11.6861 C   0  0  0  0  0  0  0  0  0  0  0  0
  -18.7042  -41.4398  -10.9204 C   0  0  0  0  0  0  0  0  0  0  0  0
  -19.1748  -40.3731  -11.5472 N   0  0  0  0  0  0  0  0  0  0  0  0
  -18.1662  -41.4832   -9.5698 C   0  0  0  0  0  0  0  0  0  0  0  0
  -18.5302  -42.5768   -8.9604 O   0  0  0  0  0  0  0  0  0  0  0  0
  -17.3679  -40.6112   -8.8379 N   0  0  0  0  0  0  0  0  0  0  0  0
  1  2  1  0
  2  3  1  0
  2  4  1  0
  4  5  2  0
  5  6  1  0
  6  7  2  0
  7  8  1  0
  8  9  2  0
  6 10  1  0
 10 11  1  0
 10 12  1  0
 10 13  1  0
 13 14  1  0
 14 15  1  0
 15 16  1  1
 15 17  1  0
 17 18  1  6
 18 19  1  0
 19 20  1  6
 19 21  1  0
 21 22  1  0
 22 23  1  0
 23 24  1  0
 24 25  1  0
 25 26  1  0
 26 27  1  0
 27 28  1  0
 28 29  1  0
 29 30  2  0
 30 31  1  0
 31 32  2  0
 32 33  1  0
 33 34  2  0
 33 35  1  0
 35 36  2  0
 35 37  1  0
  9  4  1  0
 34 29  1  0
 37 17  1  0
M  END
$$$$
