
     RDKit          3D

 37 39  0  0  0  0  0  0  0  0999 V2000
  -21.5681  -38.9145   -4.0115 C   0  0  0  0  0  0  0  0  0  0  0  0
  -22.5049  -39.5099   -5.0359 C   0  0  0  0  0  0  0  0  0  0  0  0
  -22.5689  -41.0176   -4.7357 C   0  0  0  0  0  0  0  0  0  0  0  0
  -21.9504  -39.4127   -6.4104 C   0  0  0  0  0  0  0  0  0  0  0  0
  -21.0149  -40.3002   -6.9236 C   0  0  0  0  0  0  0  0  0  0  0  0
  -20.5118  -40.2071   -8.1860 C   0  0  0  0  0  0  0  0  0  0  0  0
  -20.9310  -39.1981   -9.0145 C   0  0  0  0  0  0  0  0  0  0  0  0
  -21.8645  -38.2968   -8.5298 C   0  0  0  0  0  0  0  0  0  0  0  0
  -22.3647  -38.4035   -7.2491 C   0  0  0  0  0  0  0  0  0  0  0  0
  -19.5000  -41.1947   -8.6545 C   0  0  0  0  0  0  0  0  0  0  0  0
  -19.6713  -42.5311   -7.9896 C   0  0  0  0  0  0  0  0  0  0  0  0
  -19.9429  -41.5072  -10.1287 C   0  0  0  0  0  0  0  0  0  0  0  0
  -18.2071  -40.7695   -8.7109 N   0  0  0  0  0  0  0  0  0  0  0  0
  -17.4390  -40.0308   -7.8625 C   0  0  0  0  0  0  0  0  0  0  0  0
  -16.5186  -38.9619   -8.2564 C   0  0  1  0  0  0  0  0  0  0  0  0
  -16.4024  -37.8610   -7.4365 O   0  0  0  0  0  0  0  0  0  0  0  0
  -15.1262  -39.3739   -8.6989 C   0  0  2  0  0  0  0  0  0  0  0  0
  -14.6233  -38.6231   -9.8841 C   0  0  0  0  0  0  0  0  0  0  0  0
  -14.3373  -37.1615   -9.4881 C   0  0  2  0  0  0  0  0  0  0  0  0
  -15.1822  -36.1901  -10.2761 C   0  0  0  0  0  0  0  0  0  0  0  0
  -12.8551  -36.8357   -9.6316 C   0  0  0  0  0  0  0  0  0  0  0  0
  -12.5556  -35.8667  -10.7260 C   0  0  0  0  0  0  0  0  0  0  0  0
  -11.4238  -36.4282  -11.5694 C   0  0  0  0  0  0  0  0  0  0  0  0
  -11.7983  -36.4402  -13.0227 C   0  0  0  0  0  0  0  0  0  0  0  0
  -11.7916  -37.8048  -13.6366 C   0  0  0  0  0  0  0  0  0  0  0  0
  -12.9884  -37.9451  -14.5771 C   0  0  0  0  0  0  0  0  0  0  0  0
  -14.1935  -38.4763  -13.8006 C   0  0  0  0  0  0  0  0  0  0  0  0
  -14.2578  -39.8965  -14.0749 N   0  0  0  0  0  0  0  0  0  0  0  0
  -14.0673  -40.9261  -13.1252 C   0  0  0  0  0  0  0  0  0  0  0  0
  -13.3723  -42.0588  -13.5599 C   0  0  0  0  0  0  0  0  0  0  0  0
  -13.1463  -43.0998  -12.6910 C   0  0  0  0  0  0  0  0  0  0  0  0
  -13.6279  -42.9609  -11.4212 C   0  0  0  0  0  0  0  0  0  0  0  0
  -14.3321  -41.8285  -10.9592 C   0  0  0  0  0  0  0  0  0  0  0  0
  -14.4919  -40.8891  -11.8781 N   0  0  0  0  0  0  0  0  0  0  0  0
  -14.8141  -41.7886   -9.5875 C   0  0  0  0  0  0  0  0  0  0  0  0
  -15.2436  -42.9610   -9.2126 O   0  0  0  0  0  0  0  0  0  0  0  0
  -14.8976  -40.7743   -8.6401 N   0  0  0  0  0  0  0  0  0  0  0  0
  1  2  1  0
  2  3  1  0
  2  4  1  0
  4  5  2  0
  5  6  1  0
  6  7  2  0
  7  8  1  0
  8  9  2  0
  6 10  1  0
 10 11  1  0
 10 12  1  0
 10 13  1  0
 13 14  1  0
 14 15  1  0
 15 16  1  1
 15 17  1  0
 17 18  1  6
 18 19  1  0
 19 20  1  6
 19 21  1  0
 21 22  1  0
 22 23  1  0
 23 24  1  0
 24 25  1  0
 25 26  1  0
 26 27  1  0
 27 28  1  0
 28 29  1  0
 29 30  2  0
 30 31  1  0
 31 32  2  0
 32 33  1  0
 33 34  2  0
 33 35  1  0
 35 36  2  0
 35 37  1  0
  9  4  1  0
 34 29  1  0
 37 17  1  0
M  END
$$$$
