
     RDKit          3D

 37 39  0  0  0  0  0  0  0  0999 V2000
  -12.0708  -35.6600  -13.8418 C   0  0  0  0  0  0  0  0  0  0  0  0
  -11.6313  -37.0654  -14.1781 C   0  0  0  0  0  0  0  0  0  0  0  0
  -11.8110  -37.2204  -15.6983 C   0  0  0  0  0  0  0  0  0  0  0  0
  -12.5318  -38.0821  -13.5768 C   0  0  0  0  0  0  0  0  0  0  0  0
  -12.7064  -38.2374  -12.2088 C   0  0  0  0  0  0  0  0  0  0  0  0
  -13.5357  -39.1703  -11.6634 C   0  0  0  0  0  0  0  0  0  0  0  0
  -14.2467  -40.0116  -12.4801 C   0  0  0  0  0  0  0  0  0  0  0  0
  -14.0929  -39.8801  -13.8504 C   0  0  0  0  0  0  0  0  0  0  0  0
  -13.2492  -38.9309  -14.3882 C   0  0  0  0  0  0  0  0  0  0  0  0
  -13.6556  -39.2792  -10.1827 C   0  0  0  0  0  0  0  0  0  0  0  0
  -12.7311  -40.3216   -9.6205 C   0  0  0  0  0  0  0  0  0  0  0  0
  -13.0016  -37.9503   -9.6599 C   0  0  0  0  0  0  0  0  0  0  0  0
  -14.9170  -39.3282   -9.6708 N   0  0  0  0  0  0  0  0  0  0  0  0
  -15.4529  -38.9086   -8.4909 C   0  0  0  0  0  0  0  0  0  0  0  0
  -16.4078  -39.6590   -7.6725 C   0  0  1  0  0  0  0  0  0  0  0  0
  -16.8856  -39.0746   -6.5201 O   0  0  0  0  0  0  0  0  0  0  0  0
  -17.5732  -40.3137   -8.3918 C   0  0  2  0  0  0  0  0  0  0  0  0
  -18.8387  -40.3237   -7.6046 C   0  0  0  0  0  0  0  0  0  0  0  0
  -19.3895  -38.8889   -7.4910 C   0  0  2  0  0  0  0  0  0  0  0  0
  -19.4783  -38.4330   -6.0548 C   0  0  0  0  0  0  0  0  0  0  0  0
  -20.7400  -38.7645   -8.1870 C   0  0  0  0  0  0  0  0  0  0  0  0
  -21.8791  -38.5309   -7.2519 C   0  0  0  0  0  0  0  0  0  0  0  0
  -22.9898  -39.5094   -7.5929 C   0  0  0  0  0  0  0  0  0  0  0  0
  -23.4292  -40.2627   -6.3714 C   0  0  0  0  0  0  0  0  0  0  0  0
  -23.2532  -41.7446   -6.4802 C   0  0  0  0  0  0  0  0  0  0  0  0
  -22.7425  -42.2951   -5.1487 C   0  0  0  0  0  0  0  0  0  0  0  0
  -21.2139  -42.2764   -5.1365 C   0  0  0  0  0  0  0  0  0  0  0  0
  -20.7900  -43.6237   -5.4549 N   0  0  0  0  0  0  0  0  0  0  0  0
  -20.0860  -44.0101   -6.6182 C   0  0  0  0  0  0  0  0  0  0  0  0
  -20.4414  -45.2368   -7.1873 C   0  0  0  0  0  0  0  0  0  0  0  0
  -19.8020  -45.6772   -8.3218 C   0  0  0  0  0  0  0  0  0  0  0  0
  -18.8314  -44.8678   -8.8380 C   0  0  0  0  0  0  0  0  0  0  0  0
  -18.4547  -43.6266   -8.2819 C   0  0  0  0  0  0  0  0  0  0  0  0
  -19.1346  -43.3023   -7.1934 N   0  0  0  0  0  0  0  0  0  0  0  0
  -17.3964  -42.8479   -8.9058 C   0  0  0  0  0  0  0  0  0  0  0  0
  -16.4469  -43.6251   -9.3463 O   0  0  0  0  0  0  0  0  0  0  0  0
  -17.2169  -41.4846   -9.1120 N   0  0  0  0  0  0  0  0  0  0  0  0
  1  2  1  0
  2  3  1  0
  2  4  1  0
  4  5  2  0
  5  6  1  0
  6  7  2  0
  7  8  1  0
  8  9  2  0
  6 10  1  0
 10 11  1  0
 10 12  1  0
 10 13  1  0
 13 14  1  0
 14 15  1  0
 15 16  1  1
 15 17  1  0
 17 18  1  1
 18 19  1  0
 19 20  1  1
 19 21  1  0
 21 22  1  0
 22 23  1  0
 23 24  1  0
 24 25  1  0
 25 26  1  0
 26 27  1  0
 27 28  1  0
 28 29  1  0
 29 30  2  0
 30 31  1  0
 31 32  2  0
 32 33  1  0
 33 34  2  0
 33 35  1  0
 35 36  2  0
 35 37  1  0
  9  4  1  0
 34 29  1  0
 37 17  1  0
M  END
$$$$
