
     RDKit          3D

 37 39  0  0  0  0  0  0  0  0999 V2000
  -12.6129  -34.6514  -12.1786 C   0  0  0  0  0  0  0  0  0  0  0  0
  -13.9303  -35.1788  -12.6960 C   0  0  0  0  0  0  0  0  0  0  0  0
  -15.0225  -34.5460  -11.8163 C   0  0  0  0  0  0  0  0  0  0  0  0
  -14.0597  -36.6426  -12.4798 C   0  0  0  0  0  0  0  0  0  0  0  0
  -13.7205  -37.2744  -11.2916 C   0  0  0  0  0  0  0  0  0  0  0  0
  -13.8438  -38.6172  -11.0987 C   0  0  0  0  0  0  0  0  0  0  0  0
  -14.3239  -39.4102  -12.1091 C   0  0  0  0  0  0  0  0  0  0  0  0
  -14.6709  -38.8075  -13.3070 C   0  0  0  0  0  0  0  0  0  0  0  0
  -14.5403  -37.4466  -13.4878 C   0  0  0  0  0  0  0  0  0  0  0  0
  -13.4443  -39.2177   -9.7953 C   0  0  0  0  0  0  0  0  0  0  0  0
  -12.6074  -40.4518   -9.9797 C   0  0  0  0  0  0  0  0  0  0  0  0
  -12.3956  -38.1975   -9.2239 C   0  0  0  0  0  0  0  0  0  0  0  0
  -14.4212  -39.3503   -8.8553 N   0  0  0  0  0  0  0  0  0  0  0  0
  -15.4890  -38.5757   -8.5160 C   0  0  0  0  0  0  0  0  0  0  0  0
  -16.5904  -38.9777   -7.6384 C   0  0  1  0  0  0  0  0  0  0  0  0
  -17.0714  -38.0625   -6.7280 O   0  0  0  0  0  0  0  0  0  0  0  0
  -17.7750  -39.6716   -8.2858 C   0  0  2  0  0  0  0  0  0  0  0  0
  -18.9225  -39.8944   -7.3611 C   0  0  0  0  0  0  0  0  0  0  0  0
  -19.5809  -38.5440   -7.0180 C   0  0  2  0  0  0  0  0  0  0  0  0
  -19.5246  -38.2511   -5.5383 C   0  0  0  0  0  0  0  0  0  0  0  0
  -21.0156  -38.4888   -7.5303 C   0  0  0  0  0  0  0  0  0  0  0  0
  -22.0410  -38.4729   -6.4465 C   0  0  0  0  0  0  0  0  0  0  0  0
  -23.0938  -39.5206   -6.7648 C   0  0  0  0  0  0  0  0  0  0  0  0
  -23.3024  -40.4379   -5.5954 C   0  0  0  0  0  0  0  0  0  0  0  0
  -23.0091  -41.8743   -5.8950 C   0  0  0  0  0  0  0  0  0  0  0  0
  -22.2837  -42.5039   -4.7059 C   0  0  0  0  0  0  0  0  0  0  0  0
  -20.7742  -42.3281   -4.8723 C   0  0  0  0  0  0  0  0  0  0  0  0
  -20.2752  -43.5839   -5.3923 N   0  0  0  0  0  0  0  0  0  0  0  0
  -19.6951  -43.7725   -6.6675 C   0  0  0  0  0  0  0  0  0  0  0  0
  -20.0091  -44.9638   -7.3287 C   0  0  0  0  0  0  0  0  0  0  0  0
  -19.4841  -45.2156   -8.5741 C   0  0  0  0  0  0  0  0  0  0  0  0
  -18.6650  -44.2608   -9.1042 C   0  0  0  0  0  0  0  0  0  0  0  0
  -18.3332  -43.0516   -8.4567 C   0  0  0  0  0  0  0  0  0  0  0  0
  -18.8935  -42.9141   -7.2653 N   0  0  0  0  0  0  0  0  0  0  0  0
  -17.4385  -42.1069   -9.1069 C   0  0  0  0  0  0  0  0  0  0  0  0
  -16.4876  -42.7315   -9.7435 O   0  0  0  0  0  0  0  0  0  0  0  0
  -17.4105  -40.7183   -9.1737 N   0  0  0  0  0  0  0  0  0  0  0  0
  1  2  1  0
  2  3  1  0
  2  4  1  0
  4  5  2  0
  5  6  1  0
  6  7  2  0
  7  8  1  0
  8  9  2  0
  6 10  1  0
 10 11  1  0
 10 12  1  0
 10 13  1  0
 13 14  1  0
 14 15  1  0
 15 16  1  6
 15 17  1  0
 17 18  1  1
 18 19  1  0
 19 20  1  1
 19 21  1  0
 21 22  1  0
 22 23  1  0
 23 24  1  0
 24 25  1  0
 25 26  1  0
 26 27  1  0
 27 28  1  0
 28 29  1  0
 29 30  2  0
 30 31  1  0
 31 32  2  0
 32 33  1  0
 33 34  2  0
 33 35  1  0
 35 36  2  0
 35 37  1  0
  9  4  1  0
 34 29  1  0
 37 17  1  0
M  END
$$$$
