
     RDKit          3D

 37 39  0  0  0  0  0  0  0  0999 V2000
  -14.3898  -34.2886   -9.5605 C   0  0  0  0  0  0  0  0  0  0  0  0
  -14.2950  -34.9631  -10.9086 C   0  0  0  0  0  0  0  0  0  0  0  0
  -14.5784  -33.8727  -11.9564 C   0  0  0  0  0  0  0  0  0  0  0  0
  -15.3713  -35.9693  -11.0971 C   0  0  0  0  0  0  0  0  0  0  0  0
  -16.4186  -36.1471  -10.2040 C   0  0  0  0  0  0  0  0  0  0  0  0
  -17.4041  -37.0702  -10.3837 C   0  0  0  0  0  0  0  0  0  0  0  0
  -17.3883  -37.8778  -11.4917 C   0  0  0  0  0  0  0  0  0  0  0  0
  -16.3550  -37.7233  -12.4011 C   0  0  0  0  0  0  0  0  0  0  0  0
  -15.3638  -36.7845  -12.2057 C   0  0  0  0  0  0  0  0  0  0  0  0
  -18.4862  -37.2051   -9.3689 C   0  0  0  0  0  0  0  0  0  0  0  0
  -17.9656  -37.0409   -7.9691 C   0  0  0  0  0  0  0  0  0  0  0  0
  -19.3333  -35.8956   -9.5552 C   0  0  0  0  0  0  0  0  0  0  0  0
  -19.3411  -38.2548   -9.5188 N   0  0  0  0  0  0  0  0  0  0  0  0
  -19.6629  -39.0404  -10.5841 C   0  0  0  0  0  0  0  0  0  0  0  0
  -19.6133  -40.5038  -10.6112 C   0  0  1  0  0  0  0  0  0  0  0  0
  -19.1850  -41.1245  -11.7640 O   0  0  0  0  0  0  0  0  0  0  0  0
  -18.9628  -41.1976   -9.4281 C   0  0  2  0  0  0  0  0  0  0  0  0
  -18.9054  -42.6813   -9.5561 C   0  0  0  0  0  0  0  0  0  0  0  0
  -17.8985  -43.0677  -10.6569 C   0  0  2  0  0  0  0  0  0  0  0  0
  -18.5585  -43.8310  -11.7795 C   0  0  0  0  0  0  0  0  0  0  0  0
  -16.7287  -43.8544  -10.0768 C   0  0  0  0  0  0  0  0  0  0  0  0
  -16.6895  -45.2814  -10.5108 C   0  0  0  0  0  0  0  0  0  0  0  0
  -16.5048  -46.1535   -9.2809 C   0  0  0  0  0  0  0  0  0  0  0  0
  -17.5527  -47.2265   -9.2268 C   0  0  0  0  0  0  0  0  0  0  0  0
  -18.4149  -47.1674   -8.0053 C   0  0  0  0  0  0  0  0  0  0  0  0
  -19.8638  -47.4647   -8.3908 C   0  0  0  0  0  0  0  0  0  0  0  0
  -20.5756  -46.1630   -8.7596 C   0  0  0  0  0  0  0  0  0  0  0  0
  -21.3355  -45.7718   -7.5909 N   0  0  0  0  0  0  0  0  0  0  0  0
  -21.1062  -44.6152   -6.8112 C   0  0  0  0  0  0  0  0  0  0  0  0
  -21.2641  -44.7502   -5.4285 C   0  0  0  0  0  0  0  0  0  0  0  0
  -21.0551  -43.6688   -4.6058 C   0  0  0  0  0  0  0  0  0  0  0  0
  -20.6964  -42.4961   -5.2055 C   0  0  0  0  0  0  0  0  0  0  0  0
  -20.5312  -42.3349   -6.5978 C   0  0  0  0  0  0  0  0  0  0  0  0
  -20.7573  -43.4388   -7.2923 N   0  0  0  0  0  0  0  0  0  0  0  0
  -20.1590  -41.0354   -7.1345 C   0  0  0  0  0  0  0  0  0  0  0  0
  -20.7543  -40.0763   -6.4822 O   0  0  0  0  0  0  0  0  0  0  0  0
  -19.3199  -40.6417   -8.1711 N   0  0  0  0  0  0  0  0  0  0  0  0
  1  2  1  0
  2  3  1  0
  2  4  1  0
  4  5  2  0
  5  6  1  0
  6  7  2  0
  7  8  1  0
  8  9  2  0
  6 10  1  0
 10 11  1  0
 10 12  1  0
 10 13  1  0
 13 14  1  0
 14 15  1  0
 15 16  1  6
 15 17  1  0
 17 18  1  1
 18 19  1  0
 19 20  1  6
 19 21  1  0
 21 22  1  0
 22 23  1  0
 23 24  1  0
 24 25  1  0
 25 26  1  0
 26 27  1  0
 27 28  1  0
 28 29  1  0
 29 30  2  0
 30 31  1  0
 31 32  2  0
 32 33  1  0
 33 34  2  0
 33 35  1  0
 35 36  2  0
 35 37  1  0
  9  4  1  0
 34 29  1  0
 37 17  1  0
M  END
$$$$
