
     RDKit          3D

 37 39  0  0  0  0  0  0  0  0999 V2000
  -23.9011  -42.3627   -8.3764 C   0  0  0  0  0  0  0  0  0  0  0  0
  -23.9744  -41.0519   -9.1234 C   0  0  0  0  0  0  0  0  0  0  0  0
  -23.6019  -41.3668  -10.5826 C   0  0  0  0  0  0  0  0  0  0  0  0
  -22.9383  -40.0949   -8.6578 C   0  0  0  0  0  0  0  0  0  0  0  0
  -21.7148  -40.4861   -8.1326 C   0  0  0  0  0  0  0  0  0  0  0  0
  -20.7676  -39.6033   -7.7095 C   0  0  0  0  0  0  0  0  0  0  0  0
  -21.0051  -38.2555   -7.7942 C   0  0  0  0  0  0  0  0  0  0  0  0
  -22.2179  -37.8348   -8.3144 C   0  0  0  0  0  0  0  0  0  0  0  0
  -23.1676  -38.7405   -8.7386 C   0  0  0  0  0  0  0  0  0  0  0  0
  -19.4844  -40.1078   -7.1457 C   0  0  0  0  0  0  0  0  0  0  0  0
  -19.3116  -39.7146   -5.7059 C   0  0  0  0  0  0  0  0  0  0  0  0
  -19.7138  -41.6576   -7.0330 C   0  0  0  0  0  0  0  0  0  0  0  0
  -18.3673  -39.9266   -7.9038 N   0  0  0  0  0  0  0  0  0  0  0  0
  -17.2185  -39.2226   -7.7040 C   0  0  0  0  0  0  0  0  0  0  0  0
  -16.3863  -38.6313   -8.7541 C   0  0  1  0  0  0  0  0  0  0  0  0
  -16.1432  -37.2759   -8.7131 O   0  0  0  0  0  0  0  0  0  0  0  0
  -15.0847  -39.3376   -9.0873 C   0  0  2  0  0  0  0  0  0  0  0  0
  -14.3562  -38.7450  -10.2446 C   0  0  0  0  0  0  0  0  0  0  0  0
  -13.7974  -37.3634   -9.8524 C   0  0  2  0  0  0  0  0  0  0  0  0
  -14.3642  -36.2623  -10.7153 C   0  0  0  0  0  0  0  0  0  0  0  0
  -12.2735  -37.3580   -9.8929 C   0  0  0  0  0  0  0  0  0  0  0  0
  -11.7038  -36.5069  -10.9780 C   0  0  0  0  0  0  0  0  0  0  0  0
  -10.6606  -37.3175  -11.7276 C   0  0  0  0  0  0  0  0  0  0  0  0
  -10.9298  -37.2962  -13.2039 C   0  0  0  0  0  0  0  0  0  0  0  0
  -11.1680  -38.6506  -13.7938 C   0  0  0  0  0  0  0  0  0  0  0  0
  -12.3010  -38.5677  -14.8165 C   0  0  0  0  0  0  0  0  0  0  0  0
  -13.6405  -38.8122  -14.1214 C   0  0  0  0  0  0  0  0  0  0  0  0
  -13.9827  -40.1957  -14.3768 N   0  0  0  0  0  0  0  0  0  0  0  0
  -14.0773  -41.2124  -13.3993 C   0  0  0  0  0  0  0  0  0  0  0  0
  -13.6077  -42.4779  -13.7640 C   0  0  0  0  0  0  0  0  0  0  0  0
  -13.6646  -43.5158  -12.8643 C   0  0  0  0  0  0  0  0  0  0  0  0
  -14.1914  -43.2404  -11.6354 C   0  0  0  0  0  0  0  0  0  0  0  0
  -14.6719  -41.9725  -11.2442 C   0  0  0  0  0  0  0  0  0  0  0  0
  -14.5684  -41.0493  -12.1872 N   0  0  0  0  0  0  0  0  0  0  0  0
  -15.2267  -41.7907   -9.9120 C   0  0  0  0  0  0  0  0  0  0  0  0
  -15.9171  -42.8358   -9.5505 O   0  0  0  0  0  0  0  0  0  0  0  0
  -15.1596  -40.7524   -8.9896 N   0  0  0  0  0  0  0  0  0  0  0  0
  1  2  1  0
  2  3  1  0
  2  4  1  0
  4  5  2  0
  5  6  1  0
  6  7  2  0
  7  8  1  0
  8  9  2  0
  6 10  1  0
 10 11  1  0
 10 12  1  0
 10 13  1  0
 13 14  1  0
 14 15  1  0
 15 16  1  1
 15 17  1  0
 17 18  1  6
 18 19  1  0
 19 20  1  6
 19 21  1  0
 21 22  1  0
 22 23  1  0
 23 24  1  0
 24 25  1  0
 25 26  1  0
 26 27  1  0
 27 28  1  0
 28 29  1  0
 29 30  2  0
 30 31  1  0
 31 32  2  0
 32 33  1  0
 33 34  2  0
 33 35  1  0
 35 36  2  0
 35 37  1  0
  9  4  1  0
 34 29  1  0
 37 17  1  0
M  END
$$$$
