
     RDKit          3D

 37 39  0  0  0  0  0  0  0  0999 V2000
  -24.3243  -40.7594   -5.4381 C   0  0  0  0  0  0  0  0  0  0  0  0
  -23.5497  -41.7268   -6.3016 C   0  0  0  0  0  0  0  0  0  0  0  0
  -22.6061  -42.4883   -5.3546 C   0  0  0  0  0  0  0  0  0  0  0  0
  -22.6546  -41.0198   -7.2530 C   0  0  0  0  0  0  0  0  0  0  0  0
  -21.7775  -40.0128   -6.8753 C   0  0  0  0  0  0  0  0  0  0  0  0
  -20.9574  -39.3697   -7.7524 C   0  0  0  0  0  0  0  0  0  0  0  0
  -20.9760  -39.7119   -9.0800 C   0  0  0  0  0  0  0  0  0  0  0  0
  -21.8416  -40.7139   -9.4868 C   0  0  0  0  0  0  0  0  0  0  0  0
  -22.6665  -41.3560   -8.5873 C   0  0  0  0  0  0  0  0  0  0  0  0
  -20.0540  -38.2898   -7.2658 C   0  0  0  0  0  0  0  0  0  0  0  0
  -20.7593  -36.9660   -7.1783 C   0  0  0  0  0  0  0  0  0  0  0  0
  -19.8384  -38.6427   -5.7505 C   0  0  0  0  0  0  0  0  0  0  0  0
  -18.8190  -38.2191   -7.8359 N   0  0  0  0  0  0  0  0  0  0  0  0
  -17.5615  -38.1704   -7.3146 C   0  0  0  0  0  0  0  0  0  0  0  0
  -16.3391  -38.6073   -7.9927 C   0  0  1  0  0  0  0  0  0  0  0  0
  -15.2127  -37.8215   -7.8854 O   0  0  0  0  0  0  0  0  0  0  0  0
  -15.9262  -40.0568   -7.8119 C   0  0  2  0  0  0  0  0  0  0  0  0
  -14.7762  -40.4672   -8.6665 C   0  0  0  0  0  0  0  0  0  0  0  0
  -13.4903  -39.7775   -8.1706 C   0  0  2  0  0  0  0  0  0  0  0  0
  -12.8842  -38.8899   -9.2304 C   0  0  0  0  0  0  0  0  0  0  0  0
  -12.4771  -40.8018   -7.6727 C   0  0  0  0  0  0  0  0  0  0  0  0
  -11.2592  -40.9079   -8.5282 C   0  0  0  0  0  0  0  0  0  0  0  0
  -11.0044  -42.3763   -8.8224 C   0  0  0  0  0  0  0  0  0  0  0  0
  -10.8568  -42.6056  -10.2982 C   0  0  0  0  0  0  0  0  0  0  0  0
  -11.8709  -43.5472  -10.8673 C   0  0  0  0  0  0  0  0  0  0  0  0
  -12.3409  -43.0278  -12.2260 C   0  0  0  0  0  0  0  0  0  0  0  0
  -13.5433  -42.1030  -12.0354 C   0  0  0  0  0  0  0  0  0  0  0  0
  -14.7168  -42.8993  -12.3271 N   0  0  0  0  0  0  0  0  0  0  0  0
  -15.7202  -43.2549  -11.3970 C   0  0  0  0  0  0  0  0  0  0  0  0
  -16.2522  -44.5429  -11.5110 C   0  0  0  0  0  0  0  0  0  0  0  0
  -17.2299  -44.9604  -10.6394 C   0  0  0  0  0  0  0  0  0  0  0  0
  -17.6335  -44.0672   -9.6893 C   0  0  0  0  0  0  0  0  0  0  0  0
  -17.1125  -42.7626   -9.5544 C   0  0  0  0  0  0  0  0  0  0  0  0
  -16.1783  -42.4674  -10.4446 N   0  0  0  0  0  0  0  0  0  0  0  0
  -17.6240  -41.8854   -8.5131 C   0  0  0  0  0  0  0  0  0  0  0  0
  -18.9103  -42.0397   -8.3671 O   0  0  0  0  0  0  0  0  0  0  0  0
  -17.0208  -40.9516   -7.6779 N   0  0  0  0  0  0  0  0  0  0  0  0
  1  2  1  0
  2  3  1  0
  2  4  1  0
  4  5  2  0
  5  6  1  0
  6  7  2  0
  7  8  1  0
  8  9  2  0
  6 10  1  0
 10 11  1  0
 10 12  1  0
 10 13  1  0
 13 14  1  0
 14 15  1  0
 15 16  1  1
 15 17  1  0
 17 18  1  6
 18 19  1  0
 19 20  1  6
 19 21  1  0
 21 22  1  0
 22 23  1  0
 23 24  1  0
 24 25  1  0
 25 26  1  0
 26 27  1  0
 27 28  1  0
 28 29  1  0
 29 30  2  0
 30 31  1  0
 31 32  2  0
 32 33  1  0
 33 34  2  0
 33 35  1  0
 35 36  2  0
 35 37  1  0
  9  4  1  0
 34 29  1  0
 37 17  1  0
M  END
$$$$
