
     RDKit          3D

 41 44  0  0  0  0  0  0  0  0999 V2000
  -22.9477  -47.1875   -6.2902 C   0  0  0  0  0  0  0  0  0  0  0  0
  -21.8507  -46.5009   -6.7456 O   0  0  0  0  0  0  0  0  0  0  0  0
  -21.5412  -46.6749   -8.0739 C   0  0  0  0  0  0  0  0  0  0  0  0
  -20.5021  -45.6632   -8.4257 C   0  0  0  0  0  0  0  0  0  0  0  0
  -19.4227  -45.9615   -9.2000 C   0  0  0  0  0  0  0  0  0  0  0  0
  -18.4176  -45.0185   -9.5407 C   0  0  0  0  0  0  0  0  0  0  0  0
  -18.5125  -43.7220   -9.0769 C   0  0  0  0  0  0  0  0  0  0  0  0
  -19.5982  -43.3769   -8.2870 C   0  0  0  0  0  0  0  0  0  0  0  0
  -20.5719  -44.3713   -7.9810 C   0  0  0  0  0  0  0  0  0  0  0  0
  -19.9830  -42.0940   -7.6669 C   0  0  0  0  0  0  0  0  0  0  0  0
  -20.5257  -42.1881   -6.4568 O   0  0  0  0  0  0  0  0  0  0  0  0
  -19.9121  -40.7578   -8.0624 N   0  0  0  0  0  0  0  0  0  0  0  0
  -18.7610  -40.1055   -8.7099 C   0  0  1  0  0  0  0  0  0  0  0  0
  -19.1547  -38.9136   -9.4853 C   0  0  0  0  0  0  0  0  0  0  0  0
  -18.7863  -39.0011  -10.9546 C   0  0  2  0  0  0  0  0  0  0  0  0
  -19.4818  -37.9012  -11.6999 C   0  0  0  0  0  0  0  0  0  0  0  0
  -19.1849  -40.3291  -11.5495 C   0  0  0  0  0  0  0  0  0  0  0  0
  -18.0003  -41.0444  -12.1260 C   0  0  0  0  0  0  0  0  0  0  0  0
  -18.0400  -42.4287  -12.0291 O   0  0  0  0  0  0  0  0  0  0  0  0
  -17.0097  -42.9503  -12.7860 C   0  0  0  0  0  0  0  0  0  0  0  0
  -15.8161  -43.4209  -12.0319 C   0  0  0  0  0  0  0  0  0  0  0  0
  -15.4830  -44.3456  -11.2083 C   0  0  0  0  0  0  0  0  0  0  0  0
  -16.0154  -45.5209  -10.4745 C   0  0  0  0  0  0  0  0  0  0  0  0
  -17.4435  -45.6545  -10.3846 N   0  0  0  0  0  0  0  0  0  0  0  0
  -17.6744  -39.9963   -7.7146 C   0  0  2  0  0  0  0  0  0  0  0  0
  -16.5971  -40.8204   -7.9854 O   0  0  0  0  0  0  0  0  0  0  0  0
  -18.0010  -39.9573   -6.2838 C   0  0  0  0  0  0  0  0  0  0  0  0
  -18.6098  -38.8000   -5.8021 N   0  0  0  0  0  0  0  0  0  0  0  0
  -19.3172  -38.8428   -4.5525 C   0  0  0  0  0  0  0  0  0  0  0  0
  -20.7694  -38.6328   -4.3868 C   0  0  0  0  0  0  0  0  0  0  0  0
  -20.2914  -40.0273   -4.4557 C   0  0  0  0  0  0  0  0  0  0  0  0
  -18.4624  -38.7408   -3.3446 C   0  0  0  0  0  0  0  0  0  0  0  0
  -18.9855  -38.4686   -2.0965 C   0  0  0  0  0  0  0  0  0  0  0  0
  -18.2263  -38.3324   -0.9615 C   0  0  0  0  0  0  0  0  0  0  0  0
  -16.8613  -38.4739   -1.0635 C   0  0  0  0  0  0  0  0  0  0  0  0
  -16.2979  -38.7450   -2.2839 C   0  0  0  0  0  0  0  0  0  0  0  0
  -17.1104  -38.8768   -3.4218 C   0  0  0  0  0  0  0  0  0  0  0  0
  -18.8099  -38.0421    0.3624 C   0  0  0  0  0  0  0  0  0  0  0  0
  -19.7077  -36.8284    0.3078 C   0  0  0  0  0  0  0  0  0  0  0  0
  -19.6797  -39.1957    0.8571 C   0  0  0  0  0  0  0  0  0  0  0  0
  -17.7428  -37.7800    1.4028 C   0  0  0  0  0  0  0  0  0  0  0  0
  1  2  1  0
  2  3  1  0
  3  4  1  0
  4  5  2  0
  5  6  1  0
  6  7  2  0
  7  8  1  0
  8  9  2  0
  8 10  1  0
 10 11  2  0
 10 12  1  0
 12 13  1  0
 13 14  1  1
 14 15  1  0
 15 16  1  6
 15 17  1  0
 17 18  1  0
 18 19  1  0
 19 20  1  0
 20 21  1  0
 21 22  2  0
 22 23  1  0
 23 24  1  0
 13 25  1  0
 25 26  1  1
 25 27  1  0
 27 28  1  0
 28 29  1  0
 29 30  1  0
 30 31  1  0
 29 32  1  0
 32 33  2  0
 33 34  1  0
 34 35  2  0
 35 36  1  0
 36 37  2  0
 34 38  1  0
 38 39  1  0
 38 40  1  0
 38 41  1  0
  9  4  1  0
 24  6  1  0
 31 29  1  0
 37 32  1  0
M  END
$$$$
