
     RDKit          3D

 41 44  0  0  0  0  0  0  0  0999 V2000
  -21.5319  -46.2757   -9.2945 C   0  0  0  0  0  0  0  0  0  0  0  0
  -20.4560  -45.7812   -8.6017 O   0  0  0  0  0  0  0  0  0  0  0  0
  -19.2263  -46.2753   -8.9682 C   0  0  0  0  0  0  0  0  0  0  0  0
  -18.2734  -45.1269   -8.9915 C   0  0  0  0  0  0  0  0  0  0  0  0
  -16.9556  -45.2756   -9.2994 C   0  0  0  0  0  0  0  0  0  0  0  0
  -16.0292  -44.2000   -9.3198 C   0  0  0  0  0  0  0  0  0  0  0  0
  -16.4578  -42.9238   -9.0156 C   0  0  0  0  0  0  0  0  0  0  0  0
  -17.7934  -42.7296   -8.6988 C   0  0  0  0  0  0  0  0  0  0  0  0
  -18.6714  -43.8520   -8.6956 C   0  0  0  0  0  0  0  0  0  0  0  0
  -18.5446  -41.5070   -8.3532 C   0  0  0  0  0  0  0  0  0  0  0  0
  -19.4774  -41.6589   -7.4179 O   0  0  0  0  0  0  0  0  0  0  0  0
  -18.5096  -40.1826   -8.7905 N   0  0  0  0  0  0  0  0  0  0  0  0
  -17.2974  -39.3783   -9.0226 C   0  0  1  0  0  0  0  0  0  0  0  0
  -17.5310  -38.2724   -9.9708 C   0  0  0  0  0  0  0  0  0  0  0  0
  -16.6393  -38.3307  -11.1971 C   0  0  2  0  0  0  0  0  0  0  0  0
  -17.1496  -37.3601  -12.2199 C   0  0  0  0  0  0  0  0  0  0  0  0
  -16.6124  -39.7138  -11.7995 C   0  0  0  0  0  0  0  0  0  0  0  0
  -15.2157  -40.2554  -11.8557 C   0  0  0  0  0  0  0  0  0  0  0  0
  -15.1058  -41.6283  -11.6811 O   0  0  0  0  0  0  0  0  0  0  0  0
  -13.8102  -42.0047  -11.9748 C   0  0  0  0  0  0  0  0  0  0  0  0
  -12.9275  -42.2790  -10.8084 C   0  0  0  0  0  0  0  0  0  0  0  0
  -12.8026  -43.1289   -9.8564 C   0  0  0  0  0  0  0  0  0  0  0  0
  -13.4082  -44.3567   -9.2829 C   0  0  0  0  0  0  0  0  0  0  0  0
  -14.7382  -44.6994   -9.7065 N   0  0  0  0  0  0  0  0  0  0  0  0
  -16.6783  -39.0909   -7.7121 C   0  0  2  0  0  0  0  0  0  0  0  0
  -15.4954  -39.7761   -7.5017 O   0  0  0  0  0  0  0  0  0  0  0  0
  -17.5164  -39.0421   -6.5076 C   0  0  0  0  0  0  0  0  0  0  0  0
  -18.7716  -38.4493   -6.6303 N   0  0  0  0  0  0  0  0  0  0  0  0
  -19.7555  -38.6623   -5.6055 C   0  0  0  0  0  0  0  0  0  0  0  0
  -19.4660  -38.8385   -4.1683 C   0  0  0  0  0  0  0  0  0  0  0  0
  -19.8568  -37.4886   -4.6187 C   0  0  0  0  0  0  0  0  0  0  0  0
  -21.0922  -39.0776   -6.0967 C   0  0  0  0  0  0  0  0  0  0  0  0
  -21.6395  -40.3058   -5.7843 C   0  0  0  0  0  0  0  0  0  0  0  0
  -22.8562  -40.7411   -6.2459 C   0  0  0  0  0  0  0  0  0  0  0  0
  -23.5814  -39.9110   -7.0698 C   0  0  0  0  0  0  0  0  0  0  0  0
  -23.0766  -38.6813   -7.4062 C   0  0  0  0  0  0  0  0  0  0  0  0
  -21.8267  -38.2733   -6.9126 C   0  0  0  0  0  0  0  0  0  0  0  0
  -23.4205  -42.0592   -5.8965 C   0  0  0  0  0  0  0  0  0  0  0  0
  -23.0000  -43.1133   -6.8934 C   0  0  0  0  0  0  0  0  0  0  0  0
  -22.9254  -42.5377   -4.5334 C   0  0  0  0  0  0  0  0  0  0  0  0
  -24.9331  -42.0331   -5.8631 C   0  0  0  0  0  0  0  0  0  0  0  0
  1  2  1  0
  2  3  1  0
  3  4  1  0
  4  5  2  0
  5  6  1  0
  6  7  2  0
  7  8  1  0
  8  9  2  0
  8 10  1  0
 10 11  2  0
 10 12  1  0
 12 13  1  0
 13 14  1  1
 14 15  1  0
 15 16  1  6
 15 17  1  0
 17 18  1  0
 18 19  1  0
 19 20  1  0
 20 21  1  0
 21 22  2  0
 22 23  1  0
 23 24  1  0
 13 25  1  0
 25 26  1  1
 25 27  1  0
 27 28  1  0
 28 29  1  0
 29 30  1  0
 30 31  1  0
 29 32  1  0
 32 33  2  0
 33 34  1  0
 34 35  2  0
 35 36  1  0
 36 37  2  0
 34 38  1  0
 38 39  1  0
 38 40  1  0
 38 41  1  0
  9  4  1  0
 24  6  1  0
 31 29  1  0
 37 32  1  0
M  END
$$$$
