
     RDKit          3D

 41 44  0  0  0  0  0  0  0  0999 V2000
  -21.8176  -42.7187  -14.2586 C   0  0  0  0  0  0  0  0  0  0  0  0
  -21.5027  -41.4369  -13.8845 O   0  0  0  0  0  0  0  0  0  0  0  0
  -20.3384  -40.9264  -14.4085 C   0  0  0  0  0  0  0  0  0  0  0  0
  -19.3359  -40.8785  -13.3040 C   0  0  0  0  0  0  0  0  0  0  0  0
  -18.0834  -41.3971  -13.4295 C   0  0  0  0  0  0  0  0  0  0  0  0
  -17.1162  -41.3707  -12.3905 C   0  0  0  0  0  0  0  0  0  0  0  0
  -17.4336  -40.7953  -11.1768 C   0  0  0  0  0  0  0  0  0  0  0  0
  -18.6986  -40.2535  -11.0091 C   0  0  0  0  0  0  0  0  0  0  0  0
  -19.6233  -40.3133  -12.0918 C   0  0  0  0  0  0  0  0  0  0  0  0
  -19.3197  -39.5671   -9.8596 C   0  0  0  0  0  0  0  0  0  0  0  0
  -20.6060  -39.8396   -9.6625 O   0  0  0  0  0  0  0  0  0  0  0  0
  -18.8632  -38.6667   -8.8964 N   0  0  0  0  0  0  0  0  0  0  0  0
  -17.5894  -38.7552   -8.1619 C   0  0  1  0  0  0  0  0  0  0  0  0
  -17.1397  -37.4432   -7.6587 C   0  0  0  0  0  0  0  0  0  0  0  0
  -15.7753  -37.0324   -8.1803 C   0  0  2  0  0  0  0  0  0  0  0  0
  -15.5450  -35.5852   -7.8617 C   0  0  0  0  0  0  0  0  0  0  0  0
  -15.6672  -37.2326   -9.6719 C   0  0  0  0  0  0  0  0  0  0  0  0
  -14.5352  -38.1530  -10.0164 C   0  0  0  0  0  0  0  0  0  0  0  0
  -14.7442  -38.9580  -11.1280 O   0  0  0  0  0  0  0  0  0  0  0  0
  -13.5533  -39.5786  -11.4492 C   0  0  0  0  0  0  0  0  0  0  0  0
  -13.4296  -41.0063  -11.0479 C   0  0  0  0  0  0  0  0  0  0  0  0
  -13.9336  -42.1495  -11.3368 C   0  0  0  0  0  0  0  0  0  0  0  0
  -14.9287  -42.8128  -12.2160 C   0  0  0  0  0  0  0  0  0  0  0  0
  -15.9020  -41.9767  -12.8636 N   0  0  0  0  0  0  0  0  0  0  0  0
  -17.6743  -39.8986   -7.2300 C   0  0  2  0  0  0  0  0  0  0  0  0
  -16.5000  -40.6243   -7.1429 O   0  0  0  0  0  0  0  0  0  0  0  0
  -18.8627  -40.7605   -7.2438 C   0  0  0  0  0  0  0  0  0  0  0  0
  -19.4356  -41.0731   -6.0126 N   0  0  0  0  0  0  0  0  0  0  0  0
  -20.7369  -41.6805   -5.9738 C   0  0  0  0  0  0  0  0  0  0  0  0
  -21.3024  -42.5533   -7.0221 C   0  0  0  0  0  0  0  0  0  0  0  0
  -20.6801  -43.2118   -5.8571 C   0  0  0  0  0  0  0  0  0  0  0  0
  -21.6733  -41.0934   -4.9845 C   0  0  0  0  0  0  0  0  0  0  0  0
  -21.3256  -40.9166   -3.6604 C   0  0  0  0  0  0  0  0  0  0  0  0
  -22.1732  -40.4096   -2.7077 C   0  0  0  0  0  0  0  0  0  0  0  0
  -23.4477  -40.0532   -3.0852 C   0  0  0  0  0  0  0  0  0  0  0  0
  -23.8364  -40.2112   -4.3906 C   0  0  0  0  0  0  0  0  0  0  0  0
  -22.9383  -40.7342   -5.3352 C   0  0  0  0  0  0  0  0  0  0  0  0
  -21.7771  -40.2292   -1.2976 C   0  0  0  0  0  0  0  0  0  0  0  0
  -22.6089  -39.1590   -0.6308 C   0  0  0  0  0  0  0  0  0  0  0  0
  -21.9924  -41.5054   -0.4871 C   0  0  0  0  0  0  0  0  0  0  0  0
  -20.3230  -39.8311   -1.1678 C   0  0  0  0  0  0  0  0  0  0  0  0
  1  2  1  0
  2  3  1  0
  3  4  1  0
  4  5  2  0
  5  6  1  0
  6  7  2  0
  7  8  1  0
  8  9  2  0
  8 10  1  0
 10 11  2  0
 10 12  1  0
 12 13  1  0
 13 14  1  1
 14 15  1  0
 15 16  1  6
 15 17  1  0
 17 18  1  0
 18 19  1  0
 19 20  1  0
 20 21  1  0
 21 22  2  0
 22 23  1  0
 23 24  1  0
 13 25  1  0
 25 26  1  6
 25 27  1  0
 27 28  1  0
 28 29  1  0
 29 30  1  0
 30 31  1  0
 29 32  1  0
 32 33  2  0
 33 34  1  0
 34 35  2  0
 35 36  1  0
 36 37  2  0
 34 38  1  0
 38 39  1  0
 38 40  1  0
 38 41  1  0
  9  4  1  0
 24  6  1  0
 31 29  1  0
 37 32  1  0
M  END
$$$$
