
     RDKit          3D

 41 44  0  0  0  0  0  0  0  0999 V2000
  -22.7639  -41.6835  -12.4911 C   0  0  0  0  0  0  0  0  0  0  0  0
  -21.9184  -40.6099  -12.3696 O   0  0  0  0  0  0  0  0  0  0  0  0
  -20.8178  -40.6150  -13.1939 C   0  0  0  0  0  0  0  0  0  0  0  0
  -19.6231  -40.8826  -12.3406 C   0  0  0  0  0  0  0  0  0  0  0  0
  -18.7392  -41.8820  -12.6117 C   0  0  0  0  0  0  0  0  0  0  0  0
  -17.6009  -42.1606  -11.8103 C   0  0  0  0  0  0  0  0  0  0  0  0
  -17.3508  -41.3946  -10.6898 C   0  0  0  0  0  0  0  0  0  0  0  0
  -18.2260  -40.3650  -10.3801 C   0  0  0  0  0  0  0  0  0  0  0  0
  -19.3505  -40.1383  -11.2256 C   0  0  0  0  0  0  0  0  0  0  0  0
  -18.2202  -39.3788   -9.2820 C   0  0  0  0  0  0  0  0  0  0  0  0
  -19.4153  -39.0753   -8.7849 O   0  0  0  0  0  0  0  0  0  0  0  0
  -17.2241  -38.6619   -8.6182 N   0  0  0  0  0  0  0  0  0  0  0  0
  -15.9357  -39.2000   -8.1487 C   0  0  1  0  0  0  0  0  0  0  0  0
  -14.9088  -38.1506   -8.0040 C   0  0  0  0  0  0  0  0  0  0  0  0
  -13.6759  -38.3916   -8.8550 C   0  0  2  0  0  0  0  0  0  0  0  0
  -12.8405  -37.1463   -8.8700 C   0  0  0  0  0  0  0  0  0  0  0  0
  -14.0418  -38.7574  -10.2724 C   0  0  0  0  0  0  0  0  0  0  0  0
  -13.4739  -40.0913  -10.6536 C   0  0  0  0  0  0  0  0  0  0  0  0
  -14.2524  -40.8382  -11.5275 O   0  0  0  0  0  0  0  0  0  0  0  0
  -13.5126  -41.9227  -11.9552 C   0  0  0  0  0  0  0  0  0  0  0  0
  -13.8397  -43.2293  -11.3222 C   0  0  0  0  0  0  0  0  0  0  0  0
  -14.7955  -44.0833  -11.2822 C   0  0  0  0  0  0  0  0  0  0  0  0
  -16.1586  -44.3549  -11.8032 C   0  0  0  0  0  0  0  0  0  0  0  0
  -16.8742  -43.2560  -12.3913 N   0  0  0  0  0  0  0  0  0  0  0  0
  -16.2032  -40.1131   -7.0183 C   0  0  2  0  0  0  0  0  0  0  0  0
  -15.4322  -41.2611   -7.0456 O   0  0  0  0  0  0  0  0  0  0  0  0
  -17.5886  -40.3812   -6.6130 C   0  0  0  0  0  0  0  0  0  0  0  0
  -18.2658  -39.3598   -5.9498 N   0  0  0  0  0  0  0  0  0  0  0  0
  -19.2731  -39.6939   -4.9815 C   0  0  0  0  0  0  0  0  0  0  0  0
  -19.0172  -40.0376   -3.5683 C   0  0  0  0  0  0  0  0  0  0  0  0
  -19.4037  -38.6448   -3.8663 C   0  0  0  0  0  0  0  0  0  0  0  0
  -20.5955  -40.0512   -5.5506 C   0  0  0  0  0  0  0  0  0  0  0  0
  -21.0120  -39.5911   -6.7836 C   0  0  0  0  0  0  0  0  0  0  0  0
  -22.2395  -39.8701   -7.3299 C   0  0  0  0  0  0  0  0  0  0  0  0
  -23.1143  -40.6544   -6.6133 C   0  0  0  0  0  0  0  0  0  0  0  0
  -22.7426  -41.1338   -5.3836 C   0  0  0  0  0  0  0  0  0  0  0  0
  -21.4766  -40.8249   -4.8599 C   0  0  0  0  0  0  0  0  0  0  0  0
  -22.6612  -39.3667   -8.6514 C   0  0  0  0  0  0  0  0  0  0  0  0
  -23.9218  -40.0550   -9.1196 C   0  0  0  0  0  0  0  0  0  0  0  0
  -22.9799  -37.8739   -8.6073 C   0  0  0  0  0  0  0  0  0  0  0  0
  -21.5968  -39.5879   -9.7040 C   0  0  0  0  0  0  0  0  0  0  0  0
  1  2  1  0
  2  3  1  0
  3  4  1  0
  4  5  2  0
  5  6  1  0
  6  7  2  0
  7  8  1  0
  8  9  2  0
  8 10  1  0
 10 11  2  0
 10 12  1  0
 12 13  1  0
 13 14  1  1
 14 15  1  0
 15 16  1  6
 15 17  1  0
 17 18  1  0
 18 19  1  0
 19 20  1  0
 20 21  1  0
 21 22  2  0
 22 23  1  0
 23 24  1  0
 13 25  1  0
 25 26  1  6
 25 27  1  0
 27 28  1  0
 28 29  1  0
 29 30  1  0
 30 31  1  0
 29 32  1  0
 32 33  2  0
 33 34  1  0
 34 35  2  0
 35 36  1  0
 36 37  2  0
 34 38  1  0
 38 39  1  0
 38 40  1  0
 38 41  1  0
  9  4  1  0
 24  6  1  0
 31 29  1  0
 37 32  1  0
M  END
$$$$
