
     RDKit          3D

 41 44  0  0  0  0  0  0  0  0999 V2000
  -12.7209  -45.3511   -9.9462 C   0  0  0  0  0  0  0  0  0  0  0  0
  -13.5420  -44.6364   -9.1111 O   0  0  0  0  0  0  0  0  0  0  0  0
  -14.4473  -45.3725   -8.3836 C   0  0  0  0  0  0  0  0  0  0  0  0
  -15.7574  -44.6612   -8.4518 C   0  0  0  0  0  0  0  0  0  0  0  0
  -16.8645  -45.2189   -9.0148 C   0  0  0  0  0  0  0  0  0  0  0  0
  -18.1185  -44.5587   -9.0987 C   0  0  0  0  0  0  0  0  0  0  0  0
  -18.2534  -43.2823   -8.5912 C   0  0  0  0  0  0  0  0  0  0  0  0
  -17.1500  -42.6796   -8.0072 C   0  0  0  0  0  0  0  0  0  0  0  0
  -15.9195  -43.3967   -7.9556 C   0  0  0  0  0  0  0  0  0  0  0  0
  -16.9845  -41.3579   -7.3716 C   0  0  0  0  0  0  0  0  0  0  0  0
  -15.8196  -40.7593   -7.6005 O   0  0  0  0  0  0  0  0  0  0  0  0
  -17.7870  -40.5583   -6.5571 N   0  0  0  0  0  0  0  0  0  0  0  0
  -19.2232  -40.2921   -6.7488 C   0  0  1  0  0  0  0  0  0  0  0  0
  -19.8942  -39.9041   -5.4935 C   0  0  0  0  0  0  0  0  0  0  0  0
  -21.0349  -40.8277   -5.1088 C   0  0  2  0  0  0  0  0  0  0  0  0
  -21.4472  -40.5346   -3.6971 C   0  0  0  0  0  0  0  0  0  0  0  0
  -20.6351  -42.2788   -5.2150 C   0  0  0  0  0  0  0  0  0  0  0  0
  -21.5316  -43.0222   -6.1590 C   0  0  0  0  0  0  0  0  0  0  0  0
  -20.9196  -44.0390   -6.8793 O   0  0  0  0  0  0  0  0  0  0  0  0
  -21.8979  -44.7657   -7.5285 C   0  0  0  0  0  0  0  0  0  0  0  0
  -22.0568  -44.4965   -8.9835 C   0  0  0  0  0  0  0  0  0  0  0  0
  -21.4153  -44.6566  -10.0823 C   0  0  0  0  0  0  0  0  0  0  0  0
  -20.1475  -45.1873  -10.6426 C   0  0  0  0  0  0  0  0  0  0  0  0
  -19.0700  -45.4355   -9.7244 N   0  0  0  0  0  0  0  0  0  0  0  0
  -19.3772  -39.4404   -7.9463 C   0  0  2  0  0  0  0  0  0  0  0  0
  -19.5000  -40.1611   -9.1205 O   0  0  0  0  0  0  0  0  0  0  0  0
  -18.5293  -38.2527   -8.1071 C   0  0  0  0  0  0  0  0  0  0  0  0
  -17.6919  -38.2155   -9.2204 N   0  0  0  0  0  0  0  0  0  0  0  0
  -16.8148  -37.0930   -9.4062 C   0  0  0  0  0  0  0  0  0  0  0  0
  -15.9438  -36.5097   -8.3662 C   0  0  0  0  0  0  0  0  0  0  0  0
  -15.3287  -37.4702   -9.3027 C   0  0  0  0  0  0  0  0  0  0  0  0
  -17.0870  -36.2786  -10.6157 C   0  0  0  0  0  0  0  0  0  0  0  0
  -16.1872  -36.1912  -11.6590 C   0  0  0  0  0  0  0  0  0  0  0  0
  -16.3857  -35.4228  -12.7784 C   0  0  0  0  0  0  0  0  0  0  0  0
  -17.5479  -34.6923  -12.8761 C   0  0  0  0  0  0  0  0  0  0  0  0
  -18.4705  -34.7491  -11.8633 C   0  0  0  0  0  0  0  0  0  0  0  0
  -18.2291  -35.5480  -10.7337 C   0  0  0  0  0  0  0  0  0  0  0  0
  -15.4083  -35.3468  -13.8814 C   0  0  0  0  0  0  0  0  0  0  0  0
  -14.4855  -34.1630  -13.7110 C   0  0  0  0  0  0  0  0  0  0  0  0
  -14.5139  -36.5838  -13.9243 C   0  0  0  0  0  0  0  0  0  0  0  0
  -16.0873  -35.2124  -15.2271 C   0  0  0  0  0  0  0  0  0  0  0  0
  1  2  1  0
  2  3  1  0
  3  4  1  0
  4  5  2  0
  5  6  1  0
  6  7  2  0
  7  8  1  0
  8  9  2  0
  8 10  1  0
 10 11  2  0
 10 12  1  0
 12 13  1  0
 13 14  1  1
 14 15  1  0
 15 16  1  1
 15 17  1  0
 17 18  1  0
 18 19  1  0
 19 20  1  0
 20 21  1  0
 21 22  2  0
 22 23  1  0
 23 24  1  0
 13 25  1  0
 25 26  1  6
 25 27  1  0
 27 28  1  0
 28 29  1  0
 29 30  1  0
 30 31  1  0
 29 32  1  0
 32 33  2  0
 33 34  1  0
 34 35  2  0
 35 36  1  0
 36 37  2  0
 34 38  1  0
 38 39  1  0
 38 40  1  0
 38 41  1  0
  9  4  1  0
 24  6  1  0
 31 29  1  0
 37 32  1  0
M  END
$$$$
