
     RDKit          3D

 41 44  0  0  0  0  0  0  0  0999 V2000
  -20.2009  -47.7721  -10.3749 C   0  0  0  0  0  0  0  0  0  0  0  0
  -19.1503  -46.9637  -10.0216 O   0  0  0  0  0  0  0  0  0  0  0  0
  -18.4990  -46.3368  -11.0577 C   0  0  0  0  0  0  0  0  0  0  0  0
  -17.5706  -45.3337  -10.4587 C   0  0  0  0  0  0  0  0  0  0  0  0
  -16.4360  -45.6907   -9.7963 C   0  0  0  0  0  0  0  0  0  0  0  0
  -15.5425  -44.7551   -9.2113 C   0  0  0  0  0  0  0  0  0  0  0  0
  -15.8120  -43.4046   -9.3025 C   0  0  0  0  0  0  0  0  0  0  0  0
  -16.9567  -42.9994   -9.9713 C   0  0  0  0  0  0  0  0  0  0  0  0
  -17.8125  -43.9894  -10.5354 C   0  0  0  0  0  0  0  0  0  0  0  0
  -17.4988  -41.6547  -10.2478 C   0  0  0  0  0  0  0  0  0  0  0  0
  -18.8226  -41.5511  -10.1807 O   0  0  0  0  0  0  0  0  0  0  0  0
  -16.9333  -40.4222  -10.5763 N   0  0  0  0  0  0  0  0  0  0  0  0
  -15.7441  -39.8196   -9.9497 C   0  0  1  0  0  0  0  0  0  0  0  0
  -15.0801  -38.8412  -10.8319 C   0  0  0  0  0  0  0  0  0  0  0  0
  -13.6348  -39.1878  -11.1373 C   0  0  2  0  0  0  0  0  0  0  0  0
  -13.1491  -38.3178  -12.2581 C   0  0  0  0  0  0  0  0  0  0  0  0
  -13.4824  -40.6354  -11.5346 C   0  0  0  0  0  0  0  0  0  0  0  0
  -12.5306  -41.3518  -10.6245 C   0  0  0  0  0  0  0  0  0  0  0  0
  -12.8268  -42.6880  -10.3916 O   0  0  0  0  0  0  0  0  0  0  0  0
  -11.7611  -43.2635   -9.7287 C   0  0  0  0  0  0  0  0  0  0  0  0
  -11.9371  -43.4765   -8.2664 C   0  0  0  0  0  0  0  0  0  0  0  0
  -12.6341  -44.1894   -7.4599 C   0  0  0  0  0  0  0  0  0  0  0  0
  -13.6865  -45.2353   -7.4168 C   0  0  0  0  0  0  0  0  0  0  0  0
  -14.4425  -45.4643   -8.6176 N   0  0  0  0  0  0  0  0  0  0  0  0
  -16.1001  -39.4271   -8.5704 C   0  0  2  0  0  0  0  0  0  0  0  0
  -15.2909  -40.0050   -7.6090 O   0  0  0  0  0  0  0  0  0  0  0  0
  -17.5110  -39.3945   -8.1655 C   0  0  0  0  0  0  0  0  0  0  0  0
  -17.9807  -38.2141   -7.5929 N   0  0  0  0  0  0  0  0  0  0  0  0
  -19.3630  -38.1150   -7.2144 C   0  0  0  0  0  0  0  0  0  0  0  0
  -19.9418  -38.6275   -5.9563 C   0  0  0  0  0  0  0  0  0  0  0  0
  -19.5884  -37.1954   -6.0040 C   0  0  0  0  0  0  0  0  0  0  0  0
  -20.2949  -37.7941   -8.3230 C   0  0  0  0  0  0  0  0  0  0  0  0
  -19.8675  -37.6794   -9.6305 C   0  0  0  0  0  0  0  0  0  0  0  0
  -20.6902  -37.3508  -10.6785 C   0  0  0  0  0  0  0  0  0  0  0  0
  -22.0222  -37.1202  -10.4206 C   0  0  0  0  0  0  0  0  0  0  0  0
  -22.4910  -37.2234   -9.1362 C   0  0  0  0  0  0  0  0  0  0  0  0
  -21.6157  -37.5619   -8.0914 C   0  0  0  0  0  0  0  0  0  0  0  0
  -20.2091  -37.2352  -12.0688 C   0  0  0  0  0  0  0  0  0  0  0  0
  -18.8871  -36.5067  -12.1289 C   0  0  0  0  0  0  0  0  0  0  0  0
  -19.9704  -38.6072  -12.6955 C   0  0  0  0  0  0  0  0  0  0  0  0
  -21.1897  -36.4845  -12.9433 C   0  0  0  0  0  0  0  0  0  0  0  0
  1  2  1  0
  2  3  1  0
  3  4  1  0
  4  5  2  0
  5  6  1  0
  6  7  2  0
  7  8  1  0
  8  9  2  0
  8 10  1  0
 10 11  2  0
 10 12  1  0
 12 13  1  0
 13 14  1  6
 14 15  1  0
 15 16  1  6
 15 17  1  0
 17 18  1  0
 18 19  1  0
 19 20  1  0
 20 21  1  0
 21 22  2  0
 22 23  1  0
 23 24  1  0
 13 25  1  0
 25 26  1  1
 25 27  1  0
 27 28  1  0
 28 29  1  0
 29 30  1  0
 30 31  1  0
 29 32  1  0
 32 33  2  0
 33 34  1  0
 34 35  2  0
 35 36  1  0
 36 37  2  0
 34 38  1  0
 38 39  1  0
 38 40  1  0
 38 41  1  0
  9  4  1  0
 24  6  1  0
 31 29  1  0
 37 32  1  0
M  END
$$$$
