
     RDKit          3D

 41 44  0  0  0  0  0  0  0  0999 V2000
  -21.0119  -47.7104   -5.6494 C   0  0  0  0  0  0  0  0  0  0  0  0
  -19.7430  -47.9097   -6.1314 O   0  0  0  0  0  0  0  0  0  0  0  0
  -19.6160  -47.9297   -7.5004 C   0  0  0  0  0  0  0  0  0  0  0  0
  -18.7118  -46.8051   -7.8807 C   0  0  0  0  0  0  0  0  0  0  0  0
  -17.4692  -47.0083   -8.3987 C   0  0  0  0  0  0  0  0  0  0  0  0
  -16.5885  -45.9548   -8.7597 C   0  0  0  0  0  0  0  0  0  0  0  0
  -16.9853  -44.6441   -8.5879 C   0  0  0  0  0  0  0  0  0  0  0  0
  -18.2448  -44.3944   -8.0652 C   0  0  0  0  0  0  0  0  0  0  0  0
  -19.0799  -45.4971   -7.7224 C   0  0  0  0  0  0  0  0  0  0  0  0
  -18.9497  -43.1283   -7.7852 C   0  0  0  0  0  0  0  0  0  0  0  0
  -19.6918  -43.1233   -6.6821 O   0  0  0  0  0  0  0  0  0  0  0  0
  -19.0274  -41.8913   -8.4259 N   0  0  0  0  0  0  0  0  0  0  0  0
  -17.8981  -41.1411   -9.0019 C   0  0  1  0  0  0  0  0  0  0  0  0
  -18.3279  -40.2002  -10.0539 C   0  0  0  0  0  0  0  0  0  0  0  0
  -17.6741  -40.4591  -11.3985 C   0  0  2  0  0  0  0  0  0  0  0  0
  -18.3863  -39.6622  -12.4505 C   0  0  0  0  0  0  0  0  0  0  0  0
  -17.7242  -41.9210  -11.7685 C   0  0  0  0  0  0  0  0  0  0  0  0
  -16.3486  -42.4721  -11.9947 C   0  0  0  0  0  0  0  0  0  0  0  0
  -16.1752  -43.7999  -11.6280 O   0  0  0  0  0  0  0  0  0  0  0  0
  -14.9463  -44.2254  -12.0920 C   0  0  0  0  0  0  0  0  0  0  0  0
  -13.8589  -44.3139  -11.0799 C   0  0  0  0  0  0  0  0  0  0  0  0
  -13.5414  -45.0009  -10.0447 C   0  0  0  0  0  0  0  0  0  0  0  0
  -14.0020  -46.1177   -9.1822 C   0  0  0  0  0  0  0  0  0  0  0  0
  -15.3782  -46.5167   -9.2935 N   0  0  0  0  0  0  0  0  0  0  0  0
  -17.0570  -40.6507   -7.8904 C   0  0  2  0  0  0  0  0  0  0  0  0
  -17.4671  -41.1048   -6.6499 O   0  0  0  0  0  0  0  0  0  0  0  0
  -16.6423  -39.2427   -7.8596 C   0  0  0  0  0  0  0  0  0  0  0  0
  -17.6326  -38.2837   -8.0631 N   0  0  0  0  0  0  0  0  0  0  0  0
  -18.6790  -38.1328   -7.0904 C   0  0  0  0  0  0  0  0  0  0  0  0
  -18.4856  -37.7148   -5.6874 C   0  0  0  0  0  0  0  0  0  0  0  0
  -18.8855  -36.6739   -6.6541 C   0  0  0  0  0  0  0  0  0  0  0  0
  -19.9644  -38.7817   -7.4468 C   0  0  0  0  0  0  0  0  0  0  0  0
  -20.7493  -39.4197   -6.5074 C   0  0  0  0  0  0  0  0  0  0  0  0
  -21.9263  -40.0608   -6.8017 C   0  0  0  0  0  0  0  0  0  0  0  0
  -22.3582  -40.0739   -8.1083 C   0  0  0  0  0  0  0  0  0  0  0  0
  -21.6103  -39.4523   -9.0750 C   0  0  0  0  0  0  0  0  0  0  0  0
  -20.4109  -38.8072   -8.7321 C   0  0  0  0  0  0  0  0  0  0  0  0
  -22.7486  -40.7352   -5.7786 C   0  0  0  0  0  0  0  0  0  0  0  0
  -22.8603  -42.2154   -6.0584 C   0  0  0  0  0  0  0  0  0  0  0  0
  -22.1296  -40.6080   -4.3884 C   0  0  0  0  0  0  0  0  0  0  0  0
  -24.1510  -40.1696   -5.7209 C   0  0  0  0  0  0  0  0  0  0  0  0
  1  2  1  0
  2  3  1  0
  3  4  1  0
  4  5  2  0
  5  6  1  0
  6  7  2  0
  7  8  1  0
  8  9  2  0
  8 10  1  0
 10 11  2  0
 10 12  1  0
 12 13  1  0
 13 14  1  1
 14 15  1  0
 15 16  1  6
 15 17  1  0
 17 18  1  0
 18 19  1  0
 19 20  1  0
 20 21  1  0
 21 22  2  0
 22 23  1  0
 23 24  1  0
 13 25  1  0
 25 26  1  1
 25 27  1  0
 27 28  1  0
 28 29  1  0
 29 30  1  0
 30 31  1  0
 29 32  1  0
 32 33  2  0
 33 34  1  0
 34 35  2  0
 35 36  1  0
 36 37  2  0
 34 38  1  0
 38 39  1  0
 38 40  1  0
 38 41  1  0
  9  4  1  0
 24  6  1  0
 31 29  1  0
 37 32  1  0
M  END
$$$$
