
     RDKit          3D

 41 44  0  0  0  0  0  0  0  0999 V2000
  -25.1953  -40.3377   -4.3866 C   0  0  0  0  0  0  0  0  0  0  0  0
  -24.2708  -40.4645   -5.3923 O   0  0  0  0  0  0  0  0  0  0  0  0
  -24.1128  -41.7294   -5.9078 C   0  0  0  0  0  0  0  0  0  0  0  0
  -22.6484  -41.9617   -6.0778 C   0  0  0  0  0  0  0  0  0  0  0  0
  -21.9678  -42.8975   -5.3605 C   0  0  0  0  0  0  0  0  0  0  0  0
  -20.5741  -43.1304   -5.4989 C   0  0  0  0  0  0  0  0  0  0  0  0
  -19.8434  -42.3838   -6.4008 C   0  0  0  0  0  0  0  0  0  0  0  0
  -20.4998  -41.4218   -7.1528 C   0  0  0  0  0  0  0  0  0  0  0  0
  -21.9004  -41.2373   -6.9651 C   0  0  0  0  0  0  0  0  0  0  0  0
  -20.0089  -40.4946   -8.1909 C   0  0  0  0  0  0  0  0  0  0  0  0
  -20.5557  -39.2828   -8.1748 O   0  0  0  0  0  0  0  0  0  0  0  0
  -19.0755  -40.5901   -9.2236 N   0  0  0  0  0  0  0  0  0  0  0  0
  -17.7383  -41.2009   -9.1294 C   0  0  1  0  0  0  0  0  0  0  0  0
  -17.2307  -41.6450  -10.4416 C   0  0  0  0  0  0  0  0  0  0  0  0
  -16.9185  -43.1288  -10.4970 C   0  0  2  0  0  0  0  0  0  0  0  0
  -16.7027  -43.5306  -11.9256 C   0  0  0  0  0  0  0  0  0  0  0  0
  -18.0396  -43.9547   -9.9161 C   0  0  0  0  0  0  0  0  0  0  0  0
  -17.5571  -44.8028   -8.7780 C   0  0  0  0  0  0  0  0  0  0  0  0
  -18.4800  -45.0106   -7.7619 O   0  0  0  0  0  0  0  0  0  0  0  0
  -17.9810  -45.9736   -6.9074 C   0  0  0  0  0  0  0  0  0  0  0  0
  -17.4128  -45.4794   -5.6238 C   0  0  0  0  0  0  0  0  0  0  0  0
  -17.7985  -44.9228   -4.5348 C   0  0  0  0  0  0  0  0  0  0  0  0
  -19.0021  -44.4127   -3.8316 C   0  0  0  0  0  0  0  0  0  0  0  0
  -20.1864  -44.1968   -4.6168 N   0  0  0  0  0  0  0  0  0  0  0  0
  -16.8948  -40.3328   -8.2819 C   0  0  2  0  0  0  0  0  0  0  0  0
  -17.0144  -40.6016   -6.9304 O   0  0  0  0  0  0  0  0  0  0  0  0
  -16.8244  -38.8930   -8.5601 C   0  0  0  0  0  0  0  0  0  0  0  0
  -17.1120  -38.4820   -9.8602 N   0  0  0  0  0  0  0  0  0  0  0  0
  -17.7338  -37.2049  -10.0751 C   0  0  0  0  0  0  0  0  0  0  0  0
  -19.1597  -36.9935  -10.3952 C   0  0  0  0  0  0  0  0  0  0  0  0
  -18.7541  -36.8441   -8.9841 C   0  0  0  0  0  0  0  0  0  0  0  0
  -16.7947  -36.0863  -10.3338 C   0  0  0  0  0  0  0  0  0  0  0  0
  -15.6798  -36.2346  -11.1342 C   0  0  0  0  0  0  0  0  0  0  0  0
  -14.7691  -35.2357  -11.3707 C   0  0  0  0  0  0  0  0  0  0  0  0
  -14.9707  -34.0096  -10.7792 C   0  0  0  0  0  0  0  0  0  0  0  0
  -16.0654  -33.8168   -9.9762 C   0  0  0  0  0  0  0  0  0  0  0  0
  -16.9740  -34.8656   -9.7594 C   0  0  0  0  0  0  0  0  0  0  0  0
  -13.5848  -35.4189  -12.2318 C   0  0  0  0  0  0  0  0  0  0  0  0
  -13.3586  -36.8797  -12.5434 C   0  0  0  0  0  0  0  0  0  0  0  0
  -13.7551  -34.7160  -13.5768 C   0  0  0  0  0  0  0  0  0  0  0  0
  -12.3272  -34.8861  -11.5804 C   0  0  0  0  0  0  0  0  0  0  0  0
  1  2  1  0
  2  3  1  0
  3  4  1  0
  4  5  2  0
  5  6  1  0
  6  7  2  0
  7  8  1  0
  8  9  2  0
  8 10  1  0
 10 11  2  0
 10 12  1  0
 12 13  1  0
 13 14  1  6
 14 15  1  0
 15 16  1  6
 15 17  1  0
 17 18  1  0
 18 19  1  0
 19 20  1  0
 20 21  1  0
 21 22  2  0
 22 23  1  0
 23 24  1  0
 13 25  1  0
 25 26  1  1
 25 27  1  0
 27 28  1  0
 28 29  1  0
 29 30  1  0
 30 31  1  0
 29 32  1  0
 32 33  2  0
 33 34  1  0
 34 35  2  0
 35 36  1  0
 36 37  2  0
 34 38  1  0
 38 39  1  0
 38 40  1  0
 38 41  1  0
  9  4  1  0
 24  6  1  0
 31 29  1  0
 37 32  1  0
M  END
$$$$
