
     RDKit          3D

 41 44  0  0  0  0  0  0  0  0999 V2000
  -19.6298  -46.8686   -5.9699 C   0  0  0  0  0  0  0  0  0  0  0  0
  -18.5201  -47.4133   -6.5650 O   0  0  0  0  0  0  0  0  0  0  0  0
  -18.3912  -47.1898   -7.9156 C   0  0  0  0  0  0  0  0  0  0  0  0
  -17.4916  -46.0117   -8.0886 C   0  0  0  0  0  0  0  0  0  0  0  0
  -16.1416  -46.0926   -7.9318 C   0  0  0  0  0  0  0  0  0  0  0  0
  -15.2671  -44.9844   -8.0829 C   0  0  0  0  0  0  0  0  0  0  0  0
  -15.7837  -43.7460   -8.4057 C   0  0  0  0  0  0  0  0  0  0  0  0
  -17.1539  -43.6219   -8.5765 C   0  0  0  0  0  0  0  0  0  0  0  0
  -17.9765  -44.7735   -8.4096 C   0  0  0  0  0  0  0  0  0  0  0  0
  -17.9895  -42.4591   -8.9346 C   0  0  0  0  0  0  0  0  0  0  0  0
  -19.1644  -42.3919   -8.3160 O   0  0  0  0  0  0  0  0  0  0  0  0
  -17.8359  -41.3754   -9.7998 N   0  0  0  0  0  0  0  0  0  0  0  0
  -16.6210  -40.5573   -9.9570 C   0  0  1  0  0  0  0  0  0  0  0  0
  -16.5618  -39.8874  -11.2702 C   0  0  0  0  0  0  0  0  0  0  0  0
  -15.3332  -40.2560  -12.0807 C   0  0  2  0  0  0  0  0  0  0  0  0
  -15.5125  -39.7723  -13.4888 C   0  0  0  0  0  0  0  0  0  0  0  0
  -15.1048  -41.7474  -12.0966 C   0  0  0  0  0  0  0  0  0  0  0  0
  -13.7533  -42.0964  -11.5498 C   0  0  0  0  0  0  0  0  0  0  0  0
  -13.6870  -43.2983  -10.8581 O   0  0  0  0  0  0  0  0  0  0  0  0
  -12.3599  -43.5886  -10.6111 C   0  0  0  0  0  0  0  0  0  0  0  0
  -11.8792  -43.3289   -9.2268 C   0  0  0  0  0  0  0  0  0  0  0  0
  -12.0458  -43.7730   -8.0354 C   0  0  0  0  0  0  0  0  0  0  0  0
  -12.7851  -44.7909   -7.2475 C   0  0  0  0  0  0  0  0  0  0  0  0
  -13.9141  -45.4220   -7.8741 N   0  0  0  0  0  0  0  0  0  0  0  0
  -16.4422  -39.7582   -8.7271 C   0  0  2  0  0  0  0  0  0  0  0  0
  -15.6025  -40.3533   -7.8031 O   0  0  0  0  0  0  0  0  0  0  0  0
  -17.6071  -39.1256   -8.0958 C   0  0  0  0  0  0  0  0  0  0  0  0
  -18.8306  -39.2496   -8.7512 N   0  0  0  0  0  0  0  0  0  0  0  0
  -19.8589  -38.2744   -8.5159 C   0  0  0  0  0  0  0  0  0  0  0  0
  -19.9166  -36.9313   -9.1267 C   0  0  0  0  0  0  0  0  0  0  0  0
  -20.7175  -37.9970   -9.7598 C   0  0  0  0  0  0  0  0  0  0  0  0
  -20.6989  -38.5257   -7.3195 C   0  0  0  0  0  0  0  0  0  0  0  0
  -21.2930  -39.7493   -7.0840 C   0  0  0  0  0  0  0  0  0  0  0  0
  -22.1040  -40.0121   -6.0087 C   0  0  0  0  0  0  0  0  0  0  0  0
  -22.3453  -39.0020   -5.1058 C   0  0  0  0  0  0  0  0  0  0  0  0
  -21.7756  -37.7699   -5.2997 C   0  0  0  0  0  0  0  0  0  0  0  0
  -20.9514  -37.5418   -6.4137 C   0  0  0  0  0  0  0  0  0  0  0  0
  -22.7270  -41.3298   -5.7784 C   0  0  0  0  0  0  0  0  0  0  0  0
  -24.2313  -41.2152   -5.7016 C   0  0  0  0  0  0  0  0  0  0  0  0
  -22.4295  -42.2982   -6.9212 C   0  0  0  0  0  0  0  0  0  0  0  0
  -22.2462  -41.9626   -4.4907 C   0  0  0  0  0  0  0  0  0  0  0  0
  1  2  1  0
  2  3  1  0
  3  4  1  0
  4  5  2  0
  5  6  1  0
  6  7  2  0
  7  8  1  0
  8  9  2  0
  8 10  1  0
 10 11  2  0
 10 12  1  0
 12 13  1  0
 13 14  1  6
 14 15  1  0
 15 16  1  6
 15 17  1  0
 17 18  1  0
 18 19  1  0
 19 20  1  0
 20 21  1  0
 21 22  2  0
 22 23  1  0
 23 24  1  0
 13 25  1  0
 25 26  1  1
 25 27  1  0
 27 28  1  0
 28 29  1  0
 29 30  1  0
 30 31  1  0
 29 32  1  0
 32 33  2  0
 33 34  1  0
 34 35  2  0
 35 36  1  0
 36 37  2  0
 34 38  1  0
 38 39  1  0
 38 40  1  0
 38 41  1  0
  9  4  1  0
 24  6  1  0
 31 29  1  0
 37 32  1  0
M  END
$$$$
