
     RDKit          3D

 41 44  0  0  0  0  0  0  0  0999 V2000
  -15.7158  -32.6159  -12.1885 C   0  0  0  0  0  0  0  0  0  0  0  0
  -15.8143  -33.9667  -11.9693 O   0  0  0  0  0  0  0  0  0  0  0  0
  -15.6913  -34.7667  -13.0808 C   0  0  0  0  0  0  0  0  0  0  0  0
  -15.4982  -36.1672  -12.6027 C   0  0  0  0  0  0  0  0  0  0  0  0
  -15.0972  -37.1733  -13.4277 C   0  0  0  0  0  0  0  0  0  0  0  0
  -14.9150  -38.5141  -12.9977 C   0  0  0  0  0  0  0  0  0  0  0  0
  -15.1493  -38.8458  -11.6786 C   0  0  0  0  0  0  0  0  0  0  0  0
  -15.5569  -37.8493  -10.8053 C   0  0  0  0  0  0  0  0  0  0  0  0
  -15.7218  -36.5234  -11.3010 C   0  0  0  0  0  0  0  0  0  0  0  0
  -15.8628  -37.8843   -9.3619 C   0  0  0  0  0  0  0  0  0  0  0  0
  -16.8799  -37.1189   -8.9781 O   0  0  0  0  0  0  0  0  0  0  0  0
  -15.3188  -38.5517   -8.2640 N   0  0  0  0  0  0  0  0  0  0  0  0
  -14.9249  -39.9705   -8.2202 C   0  0  1  0  0  0  0  0  0  0  0  0
  -13.9128  -40.2400   -7.1811 C   0  0  0  0  0  0  0  0  0  0  0  0
  -12.6268  -40.8293   -7.7300 C   0  0  2  0  0  0  0  0  0  0  0  0
  -11.5740  -40.7856   -6.6630 C   0  0  0  0  0  0  0  0  0  0  0  0
  -12.1376  -40.0682   -8.9374 C   0  0  0  0  0  0  0  0  0  0  0  0
  -12.0119  -40.9655  -10.1317 C   0  0  0  0  0  0  0  0  0  0  0  0
  -12.2870  -40.3667  -11.3536 O   0  0  0  0  0  0  0  0  0  0  0  0
  -11.9203  -41.2376  -12.3604 C   0  0  0  0  0  0  0  0  0  0  0  0
  -13.0293  -41.9739  -13.0257 C   0  0  0  0  0  0  0  0  0  0  0  0
  -14.0334  -41.7454  -13.7899 C   0  0  0  0  0  0  0  0  0  0  0  0
  -14.7512  -40.6594  -14.5031 C   0  0  0  0  0  0  0  0  0  0  0  0
  -14.4662  -39.3069  -14.1092 N   0  0  0  0  0  0  0  0  0  0  0  0
  -16.1534  -40.7904   -8.2654 C   0  0  2  0  0  0  0  0  0  0  0  0
  -16.5449  -41.1222   -9.5498 O   0  0  0  0  0  0  0  0  0  0  0  0
  -17.2925  -40.4403   -7.4080 C   0  0  0  0  0  0  0  0  0  0  0  0
  -17.9491  -41.4875   -6.7645 N   0  0  0  0  0  0  0  0  0  0  0  0
  -19.2871  -41.8302   -7.1597 C   0  0  0  0  0  0  0  0  0  0  0  0
  -19.6492  -42.9153   -8.0934 C   0  0  0  0  0  0  0  0  0  0  0  0
  -19.7274  -43.2113   -6.6497 C   0  0  0  0  0  0  0  0  0  0  0  0
  -20.3094  -40.7936   -6.8757 C   0  0  0  0  0  0  0  0  0  0  0  0
  -20.6660  -39.8401   -7.8080 C   0  0  0  0  0  0  0  0  0  0  0  0
  -21.5809  -38.8447   -7.5732 C   0  0  0  0  0  0  0  0  0  0  0  0
  -22.1842  -38.7852   -6.3378 C   0  0  0  0  0  0  0  0  0  0  0  0
  -21.8606  -39.7124   -5.3808 C   0  0  0  0  0  0  0  0  0  0  0  0
  -20.9186  -40.7156   -5.6613 C   0  0  0  0  0  0  0  0  0  0  0  0
  -21.9461  -37.8369   -8.5874 C   0  0  0  0  0  0  0  0  0  0  0  0
  -22.2843  -38.4897   -9.9070 C   0  0  0  0  0  0  0  0  0  0  0  0
  -23.1845  -37.0460   -8.1716 C   0  0  0  0  0  0  0  0  0  0  0  0
  -20.8227  -36.8534   -8.8338 C   0  0  0  0  0  0  0  0  0  0  0  0
  1  2  1  0
  2  3  1  0
  3  4  1  0
  4  5  2  0
  5  6  1  0
  6  7  2  0
  7  8  1  0
  8  9  2  0
  8 10  1  0
 10 11  2  0
 10 12  1  0
 12 13  1  0
 13 14  1  1
 14 15  1  0
 15 16  1  1
 15 17  1  0
 17 18  1  0
 18 19  1  0
 19 20  1  0
 20 21  1  0
 21 22  2  0
 22 23  1  0
 23 24  1  0
 13 25  1  0
 25 26  1  6
 25 27  1  0
 27 28  1  0
 28 29  1  0
 29 30  1  0
 30 31  1  0
 29 32  1  0
 32 33  2  0
 33 34  1  0
 34 35  2  0
 35 36  1  0
 36 37  2  0
 34 38  1  0
 38 39  1  0
 38 40  1  0
 38 41  1  0
  9  4  1  0
 24  6  1  0
 31 29  1  0
 37 32  1  0
M  END
$$$$
