
     RDKit          3D

 41 44  0  0  0  0  0  0  0  0999 V2000
  -23.4967  -42.9522   -2.8052 C   0  0  0  0  0  0  0  0  0  0  0  0
  -23.3512  -42.4141   -4.0589 O   0  0  0  0  0  0  0  0  0  0  0  0
  -23.2223  -43.3158   -5.0889 C   0  0  0  0  0  0  0  0  0  0  0  0
  -21.8115  -43.2441   -5.5701 C   0  0  0  0  0  0  0  0  0  0  0  0
  -20.9010  -44.2241   -5.3166 C   0  0  0  0  0  0  0  0  0  0  0  0
  -19.5522  -44.1738   -5.7566 C   0  0  0  0  0  0  0  0  0  0  0  0
  -19.1108  -43.0858   -6.4821 C   0  0  0  0  0  0  0  0  0  0  0  0
  -20.0078  -42.0670   -6.7636 C   0  0  0  0  0  0  0  0  0  0  0  0
  -21.3479  -42.1785   -6.2920 C   0  0  0  0  0  0  0  0  0  0  0  0
  -19.8470  -40.8084   -7.5176 C   0  0  0  0  0  0  0  0  0  0  0  0
  -20.5001  -39.7618   -7.0218 O   0  0  0  0  0  0  0  0  0  0  0  0
  -19.1494  -40.4417   -8.6690 N   0  0  0  0  0  0  0  0  0  0  0  0
  -17.7669  -40.8248   -9.0036 C   0  0  1  0  0  0  0  0  0  0  0  0
  -17.5064  -40.7742  -10.4549 C   0  0  0  0  0  0  0  0  0  0  0  0
  -17.0614  -42.1040  -11.0346 C   0  0  2  0  0  0  0  0  0  0  0  0
  -17.1136  -42.0274  -12.5314 C   0  0  0  0  0  0  0  0  0  0  0  0
  -17.9422  -43.2366  -10.5674 C   0  0  0  0  0  0  0  0  0  0  0  0
  -17.1439  -44.2901   -9.8602 C   0  0  0  0  0  0  0  0  0  0  0  0
  -17.8035  -44.9358   -8.8231 O   0  0  0  0  0  0  0  0  0  0  0  0
  -17.0376  -46.0115   -8.4197 C   0  0  0  0  0  0  0  0  0  0  0  0
  -16.2640  -45.8296   -7.1614 C   0  0  0  0  0  0  0  0  0  0  0  0
  -16.4651  -45.6886   -5.9028 C   0  0  0  0  0  0  0  0  0  0  0  0
  -17.5379  -45.6125   -4.8799 C   0  0  0  0  0  0  0  0  0  0  0  0
  -18.8778  -45.3732   -5.3417 N   0  0  0  0  0  0  0  0  0  0  0  0
  -16.8570  -40.1175   -8.0788 C   0  0  2  0  0  0  0  0  0  0  0  0
  -16.7733  -40.7094   -6.8315 O   0  0  0  0  0  0  0  0  0  0  0  0
  -16.8972  -38.6521   -7.9992 C   0  0  0  0  0  0  0  0  0  0  0  0
  -17.4868  -37.9736   -9.0641 N   0  0  0  0  0  0  0  0  0  0  0  0
  -18.4575  -36.9489   -8.7969 C   0  0  0  0  0  0  0  0  0  0  0  0
  -19.4074  -36.9477   -7.6664 C   0  0  0  0  0  0  0  0  0  0  0  0
  -18.1646  -36.1680   -7.5062 C   0  0  0  0  0  0  0  0  0  0  0  0
  -18.7355  -36.0373   -9.9336 C   0  0  0  0  0  0  0  0  0  0  0  0
  -18.0592  -36.1331  -11.1331 C   0  0  0  0  0  0  0  0  0  0  0  0
  -18.2622  -35.2888  -12.1957 C   0  0  0  0  0  0  0  0  0  0  0  0
  -19.1934  -34.2837  -12.0674 C   0  0  0  0  0  0  0  0  0  0  0  0
  -19.8893  -34.1512  -10.8933 C   0  0  0  0  0  0  0  0  0  0  0  0
  -19.6516  -35.0363   -9.8292 C   0  0  0  0  0  0  0  0  0  0  0  0
  -17.5266  -35.4126  -13.4690 C   0  0  0  0  0  0  0  0  0  0  0  0
  -17.4398  -36.8548  -13.9100 C   0  0  0  0  0  0  0  0  0  0  0  0
  -18.2293  -34.6616  -14.5979 C   0  0  0  0  0  0  0  0  0  0  0  0
  -16.1152  -34.8784  -13.3580 C   0  0  0  0  0  0  0  0  0  0  0  0
  1  2  1  0
  2  3  1  0
  3  4  1  0
  4  5  2  0
  5  6  1  0
  6  7  2  0
  7  8  1  0
  8  9  2  0
  8 10  1  0
 10 11  2  0
 10 12  1  0
 12 13  1  0
 13 14  1  6
 14 15  1  0
 15 16  1  6
 15 17  1  0
 17 18  1  0
 18 19  1  0
 19 20  1  0
 20 21  1  0
 21 22  2  0
 22 23  1  0
 23 24  1  0
 13 25  1  0
 25 26  1  1
 25 27  1  0
 27 28  1  0
 28 29  1  0
 29 30  1  0
 30 31  1  0
 29 32  1  0
 32 33  2  0
 33 34  1  0
 34 35  2  0
 35 36  1  0
 36 37  2  0
 34 38  1  0
 38 39  1  0
 38 40  1  0
 38 41  1  0
  9  4  1  0
 24  6  1  0
 31 29  1  0
 37 32  1  0
M  END
$$$$
