
     RDKit          3D

 41 44  0  0  0  0  0  0  0  0999 V2000
  -21.9243  -41.1165  -14.4240 C   0  0  0  0  0  0  0  0  0  0  0  0
  -20.6737  -40.7712  -13.9781 O   0  0  0  0  0  0  0  0  0  0  0  0
  -19.6589  -41.6413  -14.3004 C   0  0  0  0  0  0  0  0  0  0  0  0
  -18.8443  -41.8522  -13.0679 C   0  0  0  0  0  0  0  0  0  0  0  0
  -18.4161  -43.0835  -12.6755 C   0  0  0  0  0  0  0  0  0  0  0  0
  -17.6477  -43.3096  -11.5033 C   0  0  0  0  0  0  0  0  0  0  0  0
  -17.3009  -42.2435  -10.6982 C   0  0  0  0  0  0  0  0  0  0  0  0
  -17.7156  -40.9723  -11.0641 C   0  0  0  0  0  0  0  0  0  0  0  0
  -18.4854  -40.8138  -12.2528 C   0  0  0  0  0  0  0  0  0  0  0  0
  -17.4935  -39.6562  -10.4340 C   0  0  0  0  0  0  0  0  0  0  0  0
  -18.5247  -38.8187  -10.4894 O   0  0  0  0  0  0  0  0  0  0  0  0
  -16.4206  -39.0590   -9.7714 N   0  0  0  0  0  0  0  0  0  0  0  0
  -15.5675  -39.6961   -8.7535 C   0  0  1  0  0  0  0  0  0  0  0  0
  -14.2418  -39.0565   -8.6525 C   0  0  0  0  0  0  0  0  0  0  0  0
  -13.0907  -40.0089   -8.9180 C   0  0  2  0  0  0  0  0  0  0  0  0
  -11.8289  -39.2164   -9.0872 C   0  0  0  0  0  0  0  0  0  0  0  0
  -13.3262  -40.8328  -10.1598 C   0  0  0  0  0  0  0  0  0  0  0  0
  -13.2996  -42.2998   -9.8523 C   0  0  0  0  0  0  0  0  0  0  0  0
  -14.1539  -43.0808  -10.6188 O   0  0  0  0  0  0  0  0  0  0  0  0
  -13.8629  -44.4097  -10.3819 C   0  0  0  0  0  0  0  0  0  0  0  0
  -14.8002  -45.1350   -9.4818 C   0  0  0  0  0  0  0  0  0  0  0  0
  -16.0136  -45.5495   -9.4641 C   0  0  0  0  0  0  0  0  0  0  0  0
  -17.2570  -45.5965  -10.2734 C   0  0  0  0  0  0  0  0  0  0  0  0
  -17.3467  -44.7112  -11.4021 N   0  0  0  0  0  0  0  0  0  0  0  0
  -16.3749  -39.8876   -7.5310 C   0  0  2  0  0  0  0  0  0  0  0  0
  -15.9904  -40.9875   -6.7857 O   0  0  0  0  0  0  0  0  0  0  0  0
  -17.8342  -39.7387   -7.5933 C   0  0  0  0  0  0  0  0  0  0  0  0
  -18.3483  -38.4511   -7.4528 N   0  0  0  0  0  0  0  0  0  0  0  0
  -19.3153  -38.1860   -6.4240 C   0  0  0  0  0  0  0  0  0  0  0  0
  -19.0772  -37.3637   -5.2209 C   0  0  0  0  0  0  0  0  0  0  0  0
  -19.7396  -36.7101   -6.3664 C   0  0  0  0  0  0  0  0  0  0  0  0
  -20.4906  -39.0910   -6.4205 C   0  0  0  0  0  0  0  0  0  0  0  0
  -21.1429  -39.4418   -5.2556 C   0  0  0  0  0  0  0  0  0  0  0  0
  -22.2110  -40.3018   -5.2057 C   0  0  0  0  0  0  0  0  0  0  0  0
  -22.6663  -40.8525   -6.3819 C   0  0  0  0  0  0  0  0  0  0  0  0
  -22.0487  -40.5319   -7.5634 C   0  0  0  0  0  0  0  0  0  0  0  0
  -20.9579  -39.6472   -7.5713 C   0  0  0  0  0  0  0  0  0  0  0  0
  -22.8924  -40.6606   -3.9469 C   0  0  0  0  0  0  0  0  0  0  0  0
  -24.1889  -41.3872   -4.2172 C   0  0  0  0  0  0  0  0  0  0  0  0
  -22.0423  -41.6036   -3.0982 C   0  0  0  0  0  0  0  0  0  0  0  0
  -23.2131  -39.4396   -3.1125 C   0  0  0  0  0  0  0  0  0  0  0  0
  1  2  1  0
  2  3  1  0
  3  4  1  0
  4  5  2  0
  5  6  1  0
  6  7  2  0
  7  8  1  0
  8  9  2  0
  8 10  1  0
 10 11  2  0
 10 12  1  0
 12 13  1  0
 13 14  1  1
 14 15  1  0
 15 16  1  6
 15 17  1  0
 17 18  1  0
 18 19  1  0
 19 20  1  0
 20 21  1  0
 21 22  2  0
 22 23  1  0
 23 24  1  0
 13 25  1  0
 25 26  1  6
 25 27  1  0
 27 28  1  0
 28 29  1  0
 29 30  1  0
 30 31  1  0
 29 32  1  0
 32 33  2  0
 33 34  1  0
 34 35  2  0
 35 36  1  0
 36 37  2  0
 34 38  1  0
 38 39  1  0
 38 40  1  0
 38 41  1  0
  9  4  1  0
 24  6  1  0
 31 29  1  0
 37 32  1  0
M  END
$$$$
