
     RDKit          3D

 41 44  0  0  0  0  0  0  0  0999 V2000
  -21.2372  -46.4171  -10.0147 C   0  0  0  0  0  0  0  0  0  0  0  0
  -19.9973  -46.3017   -9.4388 O   0  0  0  0  0  0  0  0  0  0  0  0
  -18.9389  -46.1845  -10.3085 C   0  0  0  0  0  0  0  0  0  0  0  0
  -18.0826  -45.0641   -9.8200 C   0  0  0  0  0  0  0  0  0  0  0  0
  -16.8136  -45.2571   -9.3662 C   0  0  0  0  0  0  0  0  0  0  0  0
  -15.9837  -44.2086   -8.8890 C   0  0  0  0  0  0  0  0  0  0  0  0
  -16.4613  -42.9138   -8.8720 C   0  0  0  0  0  0  0  0  0  0  0  0
  -17.7484  -42.6746   -9.3282 C   0  0  0  0  0  0  0  0  0  0  0  0
  -18.5300  -43.7716   -9.7935 C   0  0  0  0  0  0  0  0  0  0  0  0
  -18.5216  -41.4233   -9.4504 C   0  0  0  0  0  0  0  0  0  0  0  0
  -19.8165  -41.5258   -9.1666 O   0  0  0  0  0  0  0  0  0  0  0  0
  -18.2072  -40.1116   -9.8071 N   0  0  0  0  0  0  0  0  0  0  0  0
  -17.0328  -39.3475   -9.3521 C   0  0  1  0  0  0  0  0  0  0  0  0
  -16.6766  -38.2594  -10.2826 C   0  0  0  0  0  0  0  0  0  0  0  0
  -15.2669  -38.3730  -10.8323 C   0  0  2  0  0  0  0  0  0  0  0  0
  -15.1081  -37.4142  -11.9744 C   0  0  0  0  0  0  0  0  0  0  0  0
  -14.9702  -39.7709  -11.3167 C   0  0  0  0  0  0  0  0  0  0  0  0
  -13.7852  -40.3525  -10.6062 C   0  0  0  0  0  0  0  0  0  0  0  0
  -13.8377  -41.7232  -10.3920 O   0  0  0  0  0  0  0  0  0  0  0  0
  -12.6034  -42.1427   -9.9368 C   0  0  0  0  0  0  0  0  0  0  0  0
  -12.5008  -42.4125   -8.4769 C   0  0  0  0  0  0  0  0  0  0  0  0
  -12.9410  -43.2417   -7.6034 C   0  0  0  0  0  0  0  0  0  0  0  0
  -13.8052  -44.4376   -7.4409 C   0  0  0  0  0  0  0  0  0  0  0  0
  -14.7077  -44.7534   -8.5139 N   0  0  0  0  0  0  0  0  0  0  0  0
  -17.2089  -39.0450   -7.9166 C   0  0  2  0  0  0  0  0  0  0  0  0
  -16.4347  -39.8385   -7.0894 O   0  0  0  0  0  0  0  0  0  0  0  0
  -18.5583  -38.8297   -7.3797 C   0  0  0  0  0  0  0  0  0  0  0  0
  -19.5904  -38.6660   -8.3015 N   0  0  0  0  0  0  0  0  0  0  0  0
  -20.8478  -38.1261   -7.8641 C   0  0  0  0  0  0  0  0  0  0  0  0
  -21.5798  -37.0264   -8.5239 C   0  0  0  0  0  0  0  0  0  0  0  0
  -21.9946  -38.4050   -8.8483 C   0  0  0  0  0  0  0  0  0  0  0  0
  -21.2283  -38.4718   -6.4726 C   0  0  0  0  0  0  0  0  0  0  0  0
  -21.0327  -39.7348   -5.9509 C   0  0  0  0  0  0  0  0  0  0  0  0
  -21.4015  -40.1041   -4.6818 C   0  0  0  0  0  0  0  0  0  0  0  0
  -22.0027  -39.1665   -3.8735 C   0  0  0  0  0  0  0  0  0  0  0  0
  -22.2165  -37.8987   -4.3502 C   0  0  0  0  0  0  0  0  0  0  0  0
  -21.8242  -37.5610   -5.6557 C   0  0  0  0  0  0  0  0  0  0  0  0
  -21.1805  -41.4614   -4.1465 C   0  0  0  0  0  0  0  0  0  0  0  0
  -20.2111  -42.2357   -5.0082 C   0  0  0  0  0  0  0  0  0  0  0  0
  -20.5704  -41.4200   -2.7472 C   0  0  0  0  0  0  0  0  0  0  0  0
  -22.4674  -42.2541   -4.0735 C   0  0  0  0  0  0  0  0  0  0  0  0
  1  2  1  0
  2  3  1  0
  3  4  1  0
  4  5  2  0
  5  6  1  0
  6  7  2  0
  7  8  1  0
  8  9  2  0
  8 10  1  0
 10 11  2  0
 10 12  1  0
 12 13  1  0
 13 14  1  6
 14 15  1  0
 15 16  1  6
 15 17  1  0
 17 18  1  0
 18 19  1  0
 19 20  1  0
 20 21  1  0
 21 22  2  0
 22 23  1  0
 23 24  1  0
 13 25  1  0
 25 26  1  1
 25 27  1  0
 27 28  1  0
 28 29  1  0
 29 30  1  0
 30 31  1  0
 29 32  1  0
 32 33  2  0
 33 34  1  0
 34 35  2  0
 35 36  1  0
 36 37  2  0
 34 38  1  0
 38 39  1  0
 38 40  1  0
 38 41  1  0
  9  4  1  0
 24  6  1  0
 31 29  1  0
 37 32  1  0
M  END
$$$$
