
     RDKit          3D

 41 44  0  0  0  0  0  0  0  0999 V2000
  -16.3250  -47.6123   -9.7822 C   0  0  0  0  0  0  0  0  0  0  0  0
  -17.6731  -47.3817   -9.8900 O   0  0  0  0  0  0  0  0  0  0  0  0
  -18.3365  -47.1322   -8.7118 C   0  0  0  0  0  0  0  0  0  0  0  0
  -18.8513  -45.7330   -8.7777 C   0  0  0  0  0  0  0  0  0  0  0  0
  -20.1066  -45.4348   -9.2122 C   0  0  0  0  0  0  0  0  0  0  0  0
  -20.6150  -44.1116   -9.2915 C   0  0  0  0  0  0  0  0  0  0  0  0
  -19.8173  -43.0500   -8.9151 C   0  0  0  0  0  0  0  0  0  0  0  0
  -18.5326  -43.3115   -8.4645 C   0  0  0  0  0  0  0  0  0  0  0  0
  -18.0829  -44.6626   -8.4097 C   0  0  0  0  0  0  0  0  0  0  0  0
  -17.4669  -42.4108   -7.9835 C   0  0  0  0  0  0  0  0  0  0  0  0
  -16.2323  -42.7489   -8.3428 O   0  0  0  0  0  0  0  0  0  0  0  0
  -17.4447  -41.2481   -7.2125 N   0  0  0  0  0  0  0  0  0  0  0  0
  -18.3602  -40.1018   -7.3464 C   0  0  1  0  0  0  0  0  0  0  0  0
  -18.4606  -39.3156   -6.1019 C   0  0  0  0  0  0  0  0  0  0  0  0
  -19.8733  -39.2298   -5.5549 C   0  0  2  0  0  0  0  0  0  0  0  0
  -19.8255  -38.6803   -4.1604 C   0  0  0  0  0  0  0  0  0  0  0  0
  -20.5428  -40.5817   -5.5300 C   0  0  0  0  0  0  0  0  0  0  0  0
  -21.8072  -40.5773   -6.3353 C   0  0  0  0  0  0  0  0  0  0  0  0
  -22.1034  -41.7714   -6.9785 O   0  0  0  0  0  0  0  0  0  0  0  0
  -23.3840  -41.6882   -7.4882 C   0  0  0  0  0  0  0  0  0  0  0  0
  -23.4917  -41.4402   -8.9516 C   0  0  0  0  0  0  0  0  0  0  0  0
  -23.2455  -42.0304  -10.0632 C   0  0  0  0  0  0  0  0  0  0  0  0
  -22.7154  -43.2922  -10.6378 C   0  0  0  0  0  0  0  0  0  0  0  0
  -21.9717  -44.1572   -9.7635 N   0  0  0  0  0  0  0  0  0  0  0  0
  -18.0514  -39.4124   -8.6163 C   0  0  2  0  0  0  0  0  0  0  0  0
  -18.9573  -39.6876   -9.6246 O   0  0  0  0  0  0  0  0  0  0  0  0
  -16.6674  -39.3750   -9.1048 C   0  0  0  0  0  0  0  0  0  0  0  0
  -16.4379  -39.8351  -10.4000 N   0  0  0  0  0  0  0  0  0  0  0  0
  -15.5361  -39.1145  -11.2552 C   0  0  0  0  0  0  0  0  0  0  0  0
  -14.7070  -39.7146  -12.3195 C   0  0  0  0  0  0  0  0  0  0  0  0
  -15.9863  -39.1003  -12.7244 C   0  0  0  0  0  0  0  0  0  0  0  0
  -15.1760  -37.7553  -10.7828 C   0  0  0  0  0  0  0  0  0  0  0  0
  -14.6234  -36.8093  -11.6226 C   0  0  0  0  0  0  0  0  0  0  0  0
  -14.2451  -35.5539  -11.2176 C   0  0  0  0  0  0  0  0  0  0  0  0
  -14.4233  -35.2082   -9.8975 C   0  0  0  0  0  0  0  0  0  0  0  0
  -14.9691  -36.1165   -9.0274 C   0  0  0  0  0  0  0  0  0  0  0  0
  -15.3430  -37.3916   -9.4820 C   0  0  0  0  0  0  0  0  0  0  0  0
  -13.6571  -34.5594  -12.1356 C   0  0  0  0  0  0  0  0  0  0  0  0
  -12.7981  -33.5678  -11.3868 C   0  0  0  0  0  0  0  0  0  0  0  0
  -12.7468  -35.2194  -13.1690 C   0  0  0  0  0  0  0  0  0  0  0  0
  -14.7209  -33.7800  -12.8778 C   0  0  0  0  0  0  0  0  0  0  0  0
  1  2  1  0
  2  3  1  0
  3  4  1  0
  4  5  2  0
  5  6  1  0
  6  7  2  0
  7  8  1  0
  8  9  2  0
  8 10  1  0
 10 11  2  0
 10 12  1  0
 12 13  1  0
 13 14  1  1
 14 15  1  0
 15 16  1  1
 15 17  1  0
 17 18  1  0
 18 19  1  0
 19 20  1  0
 20 21  1  0
 21 22  2  0
 22 23  1  0
 23 24  1  0
 13 25  1  0
 25 26  1  6
 25 27  1  0
 27 28  1  0
 28 29  1  0
 29 30  1  0
 30 31  1  0
 29 32  1  0
 32 33  2  0
 33 34  1  0
 34 35  2  0
 35 36  1  0
 36 37  2  0
 34 38  1  0
 38 39  1  0
 38 40  1  0
 38 41  1  0
  9  4  1  0
 24  6  1  0
 31 29  1  0
 37 32  1  0
M  END
$$$$
