
     RDKit          3D

 41 44  0  0  0  0  0  0  0  0999 V2000
  -13.9402  -45.4949   -7.4729 C   0  0  0  0  0  0  0  0  0  0  0  0
  -15.2533  -45.8849   -7.3959 O   0  0  0  0  0  0  0  0  0  0  0  0
  -15.9148  -46.0094   -8.5948 C   0  0  0  0  0  0  0  0  0  0  0  0
  -17.2203  -45.2991   -8.4595 C   0  0  0  0  0  0  0  0  0  0  0  0
  -18.4163  -45.9281   -8.6251 C   0  0  0  0  0  0  0  0  0  0  0  0
  -19.6699  -45.2716   -8.5097 C   0  0  0  0  0  0  0  0  0  0  0  0
  -19.7103  -43.9240   -8.2146 C   0  0  0  0  0  0  0  0  0  0  0  0
  -18.5137  -43.2470   -8.0359 C   0  0  0  0  0  0  0  0  0  0  0  0
  -17.2895  -43.9646   -8.1664 C   0  0  0  0  0  0  0  0  0  0  0  0
  -18.2328  -41.8373   -7.7009 C   0  0  0  0  0  0  0  0  0  0  0  0
  -17.1770  -41.3079   -8.3115 O   0  0  0  0  0  0  0  0  0  0  0  0
  -18.8313  -40.8939   -6.8651 N   0  0  0  0  0  0  0  0  0  0  0  0
  -20.2771  -40.6412   -6.7388 C   0  0  1  0  0  0  0  0  0  0  0  0
  -20.6283  -40.0278   -5.4438 C   0  0  0  0  0  0  0  0  0  0  0  0
  -21.6134  -40.8503   -4.6341 C   0  0  2  0  0  0  0  0  0  0  0  0
  -21.6727  -40.3074   -3.2375 C   0  0  0  0  0  0  0  0  0  0  0  0
  -21.2127  -42.3041   -4.5818 C   0  0  0  0  0  0  0  0  0  0  0  0
  -22.2935  -43.1861   -5.1304 C   0  0  0  0  0  0  0  0  0  0  0  0
  -21.8505  -44.3237   -5.7916 O   0  0  0  0  0  0  0  0  0  0  0  0
  -22.9385  -45.1362   -6.0418 C   0  0  0  0  0  0  0  0  0  0  0  0
  -23.4584  -45.1237   -7.4362 C   0  0  0  0  0  0  0  0  0  0  0  0
  -23.1035  -45.4846   -8.6144 C   0  0  0  0  0  0  0  0  0  0  0  0
  -21.9989  -46.1268   -9.3699 C   0  0  0  0  0  0  0  0  0  0  0  0
  -20.7219  -46.2283   -8.7181 N   0  0  0  0  0  0  0  0  0  0  0  0
  -20.7447  -40.0100   -7.9903 C   0  0  2  0  0  0  0  0  0  0  0  0
  -21.9039  -40.5751   -8.4903 O   0  0  0  0  0  0  0  0  0  0  0  0
  -19.7782  -39.6913   -9.0485 C   0  0  0  0  0  0  0  0  0  0  0  0
  -20.2088  -38.8456  -10.0689 N   0  0  0  0  0  0  0  0  0  0  0  0
  -19.7990  -37.4687  -10.0641 C   0  0  0  0  0  0  0  0  0  0  0  0
  -20.7074  -36.3086   -9.9677 C   0  0  0  0  0  0  0  0  0  0  0  0
  -20.0643  -36.7692   -8.7218 C   0  0  0  0  0  0  0  0  0  0  0  0
  -18.4157  -37.2249  -10.5411 C   0  0  0  0  0  0  0  0  0  0  0  0
  -17.4101  -38.1572  -10.3826 C   0  0  0  0  0  0  0  0  0  0  0  0
  -16.1115  -37.9569  -10.7784 C   0  0  0  0  0  0  0  0  0  0  0  0
  -15.7825  -36.7585  -11.3695 C   0  0  0  0  0  0  0  0  0  0  0  0
  -16.7498  -35.8031  -11.5475 C   0  0  0  0  0  0  0  0  0  0  0  0
  -18.0676  -36.0474  -11.1280 C   0  0  0  0  0  0  0  0  0  0  0  0
  -15.0540  -38.9704  -10.5987 C   0  0  0  0  0  0  0  0  0  0  0  0
  -14.6195  -39.5456  -11.9262 C   0  0  0  0  0  0  0  0  0  0  0  0
  -13.8027  -38.3685   -9.9630 C   0  0  0  0  0  0  0  0  0  0  0  0
  -15.5164  -40.1182   -9.7277 C   0  0  0  0  0  0  0  0  0  0  0  0
  1  2  1  0
  2  3  1  0
  3  4  1  0
  4  5  2  0
  5  6  1  0
  6  7  2  0
  7  8  1  0
  8  9  2  0
  8 10  1  0
 10 11  2  0
 10 12  1  0
 12 13  1  0
 13 14  1  1
 14 15  1  0
 15 16  1  1
 15 17  1  0
 17 18  1  0
 18 19  1  0
 19 20  1  0
 20 21  1  0
 21 22  2  0
 22 23  1  0
 23 24  1  0
 13 25  1  0
 25 26  1  6
 25 27  1  0
 27 28  1  0
 28 29  1  0
 29 30  1  0
 30 31  1  0
 29 32  1  0
 32 33  2  0
 33 34  1  0
 34 35  2  0
 35 36  1  0
 36 37  2  0
 34 38  1  0
 38 39  1  0
 38 40  1  0
 38 41  1  0
  9  4  1  0
 24  6  1  0
 31 29  1  0
 37 32  1  0
M  END
$$$$
