
     RDKit          3D

 41 44  0  0  0  0  0  0  0  0999 V2000
  -21.4336  -39.8772  -14.0680 C   0  0  0  0  0  0  0  0  0  0  0  0
  -20.6784  -41.0193  -14.1534 O   0  0  0  0  0  0  0  0  0  0  0  0
  -19.3442  -40.8385  -14.4324 C   0  0  0  0  0  0  0  0  0  0  0  0
  -18.5783  -41.2075  -13.2058 C   0  0  0  0  0  0  0  0  0  0  0  0
  -17.9778  -42.4201  -13.0552 C   0  0  0  0  0  0  0  0  0  0  0  0
  -17.2516  -42.7965  -11.8948 C   0  0  0  0  0  0  0  0  0  0  0  0
  -17.1307  -41.9069  -10.8465 C   0  0  0  0  0  0  0  0  0  0  0  0
  -17.7260  -40.6601  -10.9614 C   0  0  0  0  0  0  0  0  0  0  0  0
  -18.4416  -40.3450  -12.1528 C   0  0  0  0  0  0  0  0  0  0  0  0
  -17.7588  -39.5078  -10.0398 C   0  0  0  0  0  0  0  0  0  0  0  0
  -18.9081  -38.8401  -10.0059 O   0  0  0  0  0  0  0  0  0  0  0  0
  -16.8380  -38.9299   -9.1653 N   0  0  0  0  0  0  0  0  0  0  0  0
  -15.9521  -39.6535   -8.2371 C   0  0  1  0  0  0  0  0  0  0  0  0
  -14.7569  -38.8680   -7.8749 C   0  0  0  0  0  0  0  0  0  0  0  0
  -13.4523  -39.5542   -8.2346 C   0  0  2  0  0  0  0  0  0  0  0  0
  -12.3295  -38.5683   -8.1073 C   0  0  0  0  0  0  0  0  0  0  0  0
  -13.4780  -40.0936   -9.6435 C   0  0  0  0  0  0  0  0  0  0  0  0
  -13.2295  -41.5718   -9.6644 C   0  0  0  0  0  0  0  0  0  0  0  0
  -13.8990  -42.2705  -10.6599 O   0  0  0  0  0  0  0  0  0  0  0  0
  -13.4088  -43.5609  -10.6945 C   0  0  0  0  0  0  0  0  0  0  0  0
  -14.2651  -44.6038  -10.0670 C   0  0  0  0  0  0  0  0  0  0  0  0
  -15.3932  -45.1840  -10.2539 C   0  0  0  0  0  0  0  0  0  0  0  0
  -16.5636  -45.2236  -11.1661 C   0  0  0  0  0  0  0  0  0  0  0  0
  -16.7317  -44.1240  -12.0762 N   0  0  0  0  0  0  0  0  0  0  0  0
  -16.7864  -40.2387   -7.1671 C   0  0  2  0  0  0  0  0  0  0  0  0
  -16.8140  -41.6214   -7.1867 O   0  0  0  0  0  0  0  0  0  0  0  0
  -18.1027  -39.6588   -6.8730 C   0  0  0  0  0  0  0  0  0  0  0  0
  -18.2055  -38.2693   -6.9000 N   0  0  0  0  0  0  0  0  0  0  0  0
  -19.4919  -37.6536   -6.7269 C   0  0  0  0  0  0  0  0  0  0  0  0
  -19.7447  -36.3982   -5.9918 C   0  0  0  0  0  0  0  0  0  0  0  0
  -19.6157  -36.3083   -7.4592 C   0  0  0  0  0  0  0  0  0  0  0  0
  -20.6514  -38.5351   -7.0075 C   0  0  0  0  0  0  0  0  0  0  0  0
  -21.0547  -39.5193   -6.1276 C   0  0  0  0  0  0  0  0  0  0  0  0
  -22.0993  -40.3768   -6.3649 C   0  0  0  0  0  0  0  0  0  0  0  0
  -22.7923  -40.2563   -7.5477 C   0  0  0  0  0  0  0  0  0  0  0  0
  -22.4267  -39.2922   -8.4515 C   0  0  0  0  0  0  0  0  0  0  0  0
  -21.3510  -38.4341   -8.1705 C   0  0  0  0  0  0  0  0  0  0  0  0
  -22.5120  -41.4210   -5.4071 C   0  0  0  0  0  0  0  0  0  0  0  0
  -21.4817  -41.5977   -4.3166 C   0  0  0  0  0  0  0  0  0  0  0  0
  -23.8183  -41.0544   -4.7062 C   0  0  0  0  0  0  0  0  0  0  0  0
  -22.7027  -42.7613   -6.0830 C   0  0  0  0  0  0  0  0  0  0  0  0
  1  2  1  0
  2  3  1  0
  3  4  1  0
  4  5  2  0
  5  6  1  0
  6  7  2  0
  7  8  1  0
  8  9  2  0
  8 10  1  0
 10 11  2  0
 10 12  1  0
 12 13  1  0
 13 14  1  1
 14 15  1  0
 15 16  1  6
 15 17  1  0
 17 18  1  0
 18 19  1  0
 19 20  1  0
 20 21  1  0
 21 22  2  0
 22 23  1  0
 23 24  1  0
 13 25  1  0
 25 26  1  6
 25 27  1  0
 27 28  1  0
 28 29  1  0
 29 30  1  0
 30 31  1  0
 29 32  1  0
 32 33  2  0
 33 34  1  0
 34 35  2  0
 35 36  1  0
 36 37  2  0
 34 38  1  0
 38 39  1  0
 38 40  1  0
 38 41  1  0
  9  4  1  0
 24  6  1  0
 31 29  1  0
 37 32  1  0
M  END
$$$$
