
     RDKit          3D

 41 44  0  0  0  0  0  0  0  0999 V2000
  -16.9872  -47.9818  -10.7522 C   0  0  0  0  0  0  0  0  0  0  0  0
  -17.1673  -47.1363   -9.6868 O   0  0  0  0  0  0  0  0  0  0  0  0
  -18.4289  -47.1178   -9.1404 C   0  0  0  0  0  0  0  0  0  0  0  0
  -18.8639  -45.6920   -9.0713 C   0  0  0  0  0  0  0  0  0  0  0  0
  -20.0722  -45.2720   -9.5375 C   0  0  0  0  0  0  0  0  0  0  0  0
  -20.5040  -43.9204   -9.4902 C   0  0  0  0  0  0  0  0  0  0  0  0
  -19.6764  -42.9578   -8.9486 C   0  0  0  0  0  0  0  0  0  0  0  0
  -18.4379  -43.3448   -8.4605 C   0  0  0  0  0  0  0  0  0  0  0  0
  -18.0645  -44.7179   -8.5387 C   0  0  0  0  0  0  0  0  0  0  0  0
  -17.3582  -42.5696   -7.8189 C   0  0  0  0  0  0  0  0  0  0  0  0
  -16.1232  -42.9379   -8.1457 O   0  0  0  0  0  0  0  0  0  0  0  0
  -17.3227  -41.5052   -6.9175 N   0  0  0  0  0  0  0  0  0  0  0  0
  -18.1663  -40.2986   -6.9677 C   0  0  1  0  0  0  0  0  0  0  0  0
  -18.3023  -39.6539   -5.6476 C   0  0  0  0  0  0  0  0  0  0  0  0
  -19.7399  -39.5464   -5.1741 C   0  0  2  0  0  0  0  0  0  0  0  0
  -19.7502  -39.1624   -3.7245 C   0  0  0  0  0  0  0  0  0  0  0  0
  -20.4801  -40.8501   -5.3445 C   0  0  0  0  0  0  0  0  0  0  0  0
  -21.6898  -40.6791   -6.2131 C   0  0  0  0  0  0  0  0  0  0  0  0
  -22.0080  -41.7728   -7.0068 O   0  0  0  0  0  0  0  0  0  0  0  0
  -23.2482  -41.5561   -7.5740 C   0  0  0  0  0  0  0  0  0  0  0  0
  -23.2511  -41.1380   -9.0023 C   0  0  0  0  0  0  0  0  0  0  0  0
  -22.9676  -41.6120  -10.1595 C   0  0  0  0  0  0  0  0  0  0  0  0
  -22.4701  -42.8299  -10.8469 C   0  0  0  0  0  0  0  0  0  0  0  0
  -21.8291  -43.8313  -10.0394 N   0  0  0  0  0  0  0  0  0  0  0  0
  -17.7429  -39.4894   -8.1293 C   0  0  2  0  0  0  0  0  0  0  0  0
  -18.7574  -39.2680   -9.0430 O   0  0  0  0  0  0  0  0  0  0  0  0
  -16.4573  -39.7700   -8.7804 C   0  0  0  0  0  0  0  0  0  0  0  0
  -15.3446  -39.0700   -8.3181 N   0  0  0  0  0  0  0  0  0  0  0  0
  -14.2221  -38.8724   -9.1926 C   0  0  0  0  0  0  0  0  0  0  0  0
  -12.9392  -39.5991   -9.1115 C   0  0  0  0  0  0  0  0  0  0  0  0
  -13.9348  -40.0911  -10.0835 C   0  0  0  0  0  0  0  0  0  0  0  0
  -14.2558  -37.6169   -9.9818 C   0  0  0  0  0  0  0  0  0  0  0  0
  -13.5772  -37.4828  -11.1764 C   0  0  0  0  0  0  0  0  0  0  0  0
  -13.5551  -36.3288  -11.9186 C   0  0  0  0  0  0  0  0  0  0  0  0
  -14.2476  -35.2347  -11.4525 C   0  0  0  0  0  0  0  0  0  0  0  0
  -14.9364  -35.3226  -10.2701 C   0  0  0  0  0  0  0  0  0  0  0  0
  -14.9337  -36.5224   -9.5403 C   0  0  0  0  0  0  0  0  0  0  0  0
  -12.8223  -36.2108  -13.1941 C   0  0  0  0  0  0  0  0  0  0  0  0
  -13.4210  -35.1345  -14.0687 C   0  0  0  0  0  0  0  0  0  0  0  0
  -11.3641  -35.8170  -12.9687 C   0  0  0  0  0  0  0  0  0  0  0  0
  -12.8426  -37.5056  -13.9769 C   0  0  0  0  0  0  0  0  0  0  0  0
  1  2  1  0
  2  3  1  0
  3  4  1  0
  4  5  2  0
  5  6  1  0
  6  7  2  0
  7  8  1  0
  8  9  2  0
  8 10  1  0
 10 11  2  0
 10 12  1  0
 12 13  1  0
 13 14  1  1
 14 15  1  0
 15 16  1  1
 15 17  1  0
 17 18  1  0
 18 19  1  0
 19 20  1  0
 20 21  1  0
 21 22  2  0
 22 23  1  0
 23 24  1  0
 13 25  1  0
 25 26  1  6
 25 27  1  0
 27 28  1  0
 28 29  1  0
 29 30  1  0
 30 31  1  0
 29 32  1  0
 32 33  2  0
 33 34  1  0
 34 35  2  0
 35 36  1  0
 36 37  2  0
 34 38  1  0
 38 39  1  0
 38 40  1  0
 38 41  1  0
  9  4  1  0
 24  6  1  0
 31 29  1  0
 37 32  1  0
M  END
$$$$
