
     RDKit          3D

 41 44  0  0  0  0  0  0  0  0999 V2000
  -13.1169  -34.9040  -13.3490 C   0  0  0  0  0  0  0  0  0  0  0  0
  -14.0595  -35.5213  -12.5662 O   0  0  0  0  0  0  0  0  0  0  0  0
  -15.1749  -34.7751  -12.2670 C   0  0  0  0  0  0  0  0  0  0  0  0
  -15.9663  -35.5406  -11.2597 C   0  0  0  0  0  0  0  0  0  0  0  0
  -16.6821  -34.9313  -10.2748 C   0  0  0  0  0  0  0  0  0  0  0  0
  -17.4352  -35.6385   -9.3009 C   0  0  0  0  0  0  0  0  0  0  0  0
  -17.4622  -37.0181   -9.3283 C   0  0  0  0  0  0  0  0  0  0  0  0
  -16.7482  -37.6770  -10.3172 C   0  0  0  0  0  0  0  0  0  0  0  0
  -16.0118  -36.9079  -11.2643 C   0  0  0  0  0  0  0  0  0  0  0  0
  -16.5972  -39.1144  -10.6160 C   0  0  0  0  0  0  0  0  0  0  0  0
  -15.3878  -39.4856  -11.0249 O   0  0  0  0  0  0  0  0  0  0  0  0
  -17.4519  -40.2163  -10.5717 N   0  0  0  0  0  0  0  0  0  0  0  0
  -18.3993  -40.5355   -9.4897 C   0  0  1  0  0  0  0  0  0  0  0  0
  -19.5095  -41.3909   -9.9503 C   0  0  0  0  0  0  0  0  0  0  0  0
  -20.8773  -40.7668   -9.7451 C   0  0  2  0  0  0  0  0  0  0  0  0
  -21.8972  -41.5625  -10.5037 C   0  0  0  0  0  0  0  0  0  0  0  0
  -20.9126  -39.3360  -10.2229 C   0  0  0  0  0  0  0  0  0  0  0  0
  -21.3050  -38.4030   -9.1172 C   0  0  0  0  0  0  0  0  0  0  0  0
  -20.7130  -37.1481   -9.1636 O   0  0  0  0  0  0  0  0  0  0  0  0
  -21.3276  -36.3392   -8.2284 C   0  0  0  0  0  0  0  0  0  0  0  0
  -20.5743  -36.1083   -6.9659 C   0  0  0  0  0  0  0  0  0  0  0  0
  -19.5096  -35.5223   -6.5569 C   0  0  0  0  0  0  0  0  0  0  0  0
  -18.3540  -34.7146   -7.0210 C   0  0  0  0  0  0  0  0  0  0  0  0
  -18.0839  -34.6947   -8.4325 N   0  0  0  0  0  0  0  0  0  0  0  0
  -17.6204  -40.9369   -8.3000 C   0  0  2  0  0  0  0  0  0  0  0  0
  -17.1909  -39.8655   -7.5379 O   0  0  0  0  0  0  0  0  0  0  0  0
  -16.5960  -41.9816   -8.4208 C   0  0  0  0  0  0  0  0  0  0  0  0
  -16.3836  -42.5200   -9.6884 N   0  0  0  0  0  0  0  0  0  0  0  0
  -15.7737  -43.8148   -9.8119 C   0  0  0  0  0  0  0  0  0  0  0  0
  -16.3355  -45.0758   -9.2879 C   0  0  0  0  0  0  0  0  0  0  0  0
  -16.5726  -44.7701  -10.7121 C   0  0  0  0  0  0  0  0  0  0  0  0
  -14.3358  -43.7981  -10.1761 C   0  0  0  0  0  0  0  0  0  0  0  0
  -13.4487  -42.8983   -9.6203 C   0  0  0  0  0  0  0  0  0  0  0  0
  -12.1198  -42.8275   -9.9552 C   0  0  0  0  0  0  0  0  0  0  0  0
  -11.6332  -43.7015  -10.9003 C   0  0  0  0  0  0  0  0  0  0  0  0
  -12.4787  -44.6129  -11.4788 C   0  0  0  0  0  0  0  0  0  0  0  0
  -13.8328  -44.6526  -11.1082 C   0  0  0  0  0  0  0  0  0  0  0  0
  -11.1908  -41.8565   -9.3455 C   0  0  0  0  0  0  0  0  0  0  0  0
  -11.3883  -40.4757   -9.9254 C   0  0  0  0  0  0  0  0  0  0  0  0
  -11.4229  -41.7263   -7.8418 C   0  0  0  0  0  0  0  0  0  0  0  0
   -9.7452  -42.2464   -9.5647 C   0  0  0  0  0  0  0  0  0  0  0  0
  1  2  1  0
  2  3  1  0
  3  4  1  0
  4  5  2  0
  5  6  1  0
  6  7  2  0
  7  8  1  0
  8  9  2  0
  8 10  1  0
 10 11  2  0
 10 12  1  0
 12 13  1  0
 13 14  1  6
 14 15  1  0
 15 16  1  6
 15 17  1  0
 17 18  1  0
 18 19  1  0
 19 20  1  0
 20 21  1  0
 21 22  2  0
 22 23  1  0
 23 24  1  0
 13 25  1  0
 25 26  1  6
 25 27  1  0
 27 28  1  0
 28 29  1  0
 29 30  1  0
 30 31  1  0
 29 32  1  0
 32 33  2  0
 33 34  1  0
 34 35  2  0
 35 36  1  0
 36 37  2  0
 34 38  1  0
 38 39  1  0
 38 40  1  0
 38 41  1  0
  9  4  1  0
 24  6  1  0
 31 29  1  0
 37 32  1  0
M  END
$$$$
