
     RDKit          3D

 43 46  0  0  0  0  0  0  0  0999 V2000
  -17.7590  -34.4531   -9.1362 C   0  0  0  0  0  0  0  0  0  0  0  0
  -17.0743  -35.7298   -9.6461 C   0  0  2  0  0  0  0  0  0  0  0  0
  -17.8903  -36.4313  -10.6757 C   0  0  0  0  0  0  0  0  0  0  0  0
  -17.2282  -36.3550  -12.0298 C   0  0  0  0  0  0  0  0  0  0  0  0
  -18.2567  -36.1290  -13.1172 C   0  0  0  0  0  0  0  0  0  0  0  0
  -18.6043  -37.4818  -13.7101 C   0  0  0  0  0  0  0  0  0  0  0  0
  -20.0581  -37.5096  -14.1536 C   0  0  0  0  0  0  0  0  0  0  0  0
  -20.4114  -38.8660  -14.6547 C   0  0  0  0  0  0  0  0  0  0  0  0
  -21.5753  -39.4305  -13.8204 C   0  0  0  0  0  0  0  0  0  0  0  0
  -21.0253  -40.1598  -12.7991 O   0  0  0  0  0  0  0  0  0  0  0  0
  -20.9023  -40.0991  -11.4211 C   0  0  0  0  0  0  0  0  0  0  0  0
  -21.3528  -41.2884  -10.8246 C   0  0  0  0  0  0  0  0  0  0  0  0
  -21.3464  -41.5076   -9.4610 C   0  0  0  0  0  0  0  0  0  0  0  0
  -20.8599  -40.4658   -8.7209 C   0  0  0  0  0  0  0  0  0  0  0  0
  -20.3881  -39.2389   -9.2755 C   0  0  0  0  0  0  0  0  0  0  0  0
  -20.4130  -39.0608  -10.6289 C   0  0  0  0  0  0  0  0  0  0  0  0
  -19.9481  -38.3522   -8.1877 C   0  0  0  0  0  0  0  0  0  0  0  0
  -20.6879  -38.3200   -7.0902 O   0  0  0  0  0  0  0  0  0  0  0  0
  -18.8461  -37.4755   -8.0495 N   0  0  0  0  0  0  0  0  0  0  0  0
  -17.4446  -37.7478   -8.1344 C   0  0  1  0  0  0  0  0  0  0  0  0
  -16.6156  -36.5865   -8.5312 C   0  0  0  0  0  0  0  0  0  0  0  0
  -16.9073  -38.2925   -6.8172 C   0  0  2  0  0  0  0  0  0  0  0  0
  -15.5439  -38.5775   -7.0712 O   0  0  0  0  0  0  0  0  0  0  0  0
  -17.5144  -39.6528   -6.5277 C   0  0  0  0  0  0  0  0  0  0  0  0
  -17.3763  -40.0987   -5.1811 N   0  0  0  0  0  0  0  0  0  0  0  0
  -17.9917  -41.4197   -5.0205 C   0  0  0  0  0  0  0  0  0  0  0  0
  -18.2553  -41.9067   -3.6625 C   0  0  0  0  0  0  0  0  0  0  0  0
  -19.3900  -41.2672   -4.3293 C   0  0  0  0  0  0  0  0  0  0  0  0
  -18.0720  -42.2766   -6.2282 C   0  0  0  0  0  0  0  0  0  0  0  0
  -17.0442  -42.2693   -7.1373 C   0  0  0  0  0  0  0  0  0  0  0  0
  -17.0976  -43.0614   -8.2915 C   0  0  0  0  0  0  0  0  0  0  0  0
  -18.1912  -43.8524   -8.5138 C   0  0  0  0  0  0  0  0  0  0  0  0
  -19.2061  -43.8385   -7.5842 C   0  0  0  0  0  0  0  0  0  0  0  0
  -19.1170  -43.0666   -6.4924 N   0  0  0  0  0  0  0  0  0  0  0  0
  -15.9822  -43.0669   -9.2722 C   0  0  0  0  0  0  0  0  0  0  0  0
  -16.1722  -41.9030  -10.2178 C   0  0  0  0  0  0  0  0  0  0  0  0
  -14.6879  -42.8928   -8.5418 C   0  0  0  0  0  0  0  0  0  0  0  0
  -15.9408  -44.3511  -10.0654 C   0  0  0  0  0  0  0  0  0  0  0  0
  -21.8478  -42.7671   -8.9311 C   0  0  0  0  0  0  0  0  0  0  0  0
  -22.1444  -43.6496   -9.8567 O   0  0  0  0  0  0  0  0  0  0  0  0
  -22.0633  -43.1904   -7.6506 N   0  0  0  0  0  0  0  0  0  0  0  0
  -22.3750  -44.5015   -7.1984 C   0  0  0  0  0  0  0  0  0  0  0  0
  -21.9692  -42.1590   -6.5918 C   0  0  0  0  0  0  0  0  0  0  0  0
  2  1  1  1
  2  3  1  0
  3  4  1  0
  4  5  1  0
  5  6  1  0
  6  7  1  0
  7  8  1  0
  8  9  1  0
  9 10  1  0
 10 11  1  0
 11 12  1  0
 12 13  2  0
 13 14  1  0
 14 15  2  0
 15 16  1  0
 15 17  1  0
 17 18  2  0
 17 19  1  0
 19 20  1  0
 20 21  1  1
 20 22  1  0
 22 23  1  6
 22 24  1  0
 24 25  1  0
 25 26  1  0
 26 27  1  0
 27 28  1  0
 26 29  1  0
 29 30  2  0
 30 31  1  0
 31 32  2  0
 32 33  1  0
 33 34  2  0
 31 35  1  0
 35 36  1  0
 35 37  1  0
 35 38  1  0
 13 39  1  0
 39 40  2  0
 39 41  1  0
 41 42  1  0
 41 43  1  0
 16 11  2  0
 21  2  1  0
 28 26  1  0
 34 29  1  0
M  END
$$$$
