
     RDKit          3D

 43 46  0  0  0  0  0  0  0  0999 V2000
  -18.1644  -39.4859   -3.3752 C   0  0  0  0  0  0  0  0  0  0  0  0
  -19.1679  -39.0978   -4.4713 C   0  0  2  0  0  0  0  0  0  0  0  0
  -20.0583  -40.2319   -4.8439 C   0  0  0  0  0  0  0  0  0  0  0  0
  -21.4780  -39.9673   -4.4051 C   0  0  0  0  0  0  0  0  0  0  0  0
  -22.1168  -41.2297   -3.8672 C   0  0  0  0  0  0  0  0  0  0  0  0
  -22.9134  -41.8588   -4.9951 C   0  0  0  0  0  0  0  0  0  0  0  0
  -22.9016  -43.3741   -4.8729 C   0  0  0  0  0  0  0  0  0  0  0  0
  -23.6131  -43.9835   -6.0296 C   0  0  0  0  0  0  0  0  0  0  0  0
  -22.6517  -44.9198   -6.7837 C   0  0  0  0  0  0  0  0  0  0  0  0
  -22.0647  -44.1822   -7.7780 O   0  0  0  0  0  0  0  0  0  0  0  0
  -20.8178  -43.6765   -8.1056 C   0  0  0  0  0  0  0  0  0  0  0  0
  -20.4478  -44.0579   -9.4059 C   0  0  0  0  0  0  0  0  0  0  0  0
  -19.2531  -43.6952   -9.9962 C   0  0  0  0  0  0  0  0  0  0  0  0
  -18.4432  -42.9229   -9.2104 C   0  0  0  0  0  0  0  0  0  0  0  0
  -18.7711  -42.5057   -7.8861 C   0  0  0  0  0  0  0  0  0  0  0  0
  -19.9617  -42.8875   -7.3377 C   0  0  0  0  0  0  0  0  0  0  0  0
  -17.6683  -41.6967   -7.3453 C   0  0  0  0  0  0  0  0  0  0  0  0
  -16.4336  -42.0962   -7.6070 O   0  0  0  0  0  0  0  0  0  0  0  0
  -17.6357  -40.5192   -6.5612 N   0  0  0  0  0  0  0  0  0  0  0  0
  -18.1964  -39.2300   -6.8236 C   0  0  1  0  0  0  0  0  0  0  0  0
  -18.5012  -38.4340   -5.6124 C   0  0  0  0  0  0  0  0  0  0  0  0
  -17.2853  -38.4044   -7.7229 C   0  0  2  0  0  0  0  0  0  0  0  0
  -18.1647  -37.6428   -8.5299 O   0  0  0  0  0  0  0  0  0  0  0  0
  -16.5728  -39.3060   -8.7139 C   0  0  0  0  0  0  0  0  0  0  0  0
  -15.5044  -38.6893   -9.4277 N   0  0  0  0  0  0  0  0  0  0  0  0
  -15.1331  -39.5063  -10.5872 C   0  0  0  0  0  0  0  0  0  0  0  0
  -13.7335  -39.5018  -11.0249 C   0  0  0  0  0  0  0  0  0  0  0  0
  -14.1110  -40.6095  -10.1465 C   0  0  0  0  0  0  0  0  0  0  0  0
  -16.2408  -40.0796  -11.3895 C   0  0  0  0  0  0  0  0  0  0  0  0
  -17.3934  -39.3577  -11.5720 C   0  0  0  0  0  0  0  0  0  0  0  0
  -18.4592  -39.8783  -12.3172 C   0  0  0  0  0  0  0  0  0  0  0  0
  -18.3476  -41.1247  -12.8695 C   0  0  0  0  0  0  0  0  0  0  0  0
  -17.1796  -41.8248  -12.6691 C   0  0  0  0  0  0  0  0  0  0  0  0
  -16.1826  -41.2915  -11.9497 N   0  0  0  0  0  0  0  0  0  0  0  0
  -19.7039  -39.0959  -12.5286 C   0  0  0  0  0  0  0  0  0  0  0  0
  -20.5866  -39.8545  -13.4929 C   0  0  0  0  0  0  0  0  0  0  0  0
  -20.4204  -38.9547  -11.2226 C   0  0  0  0  0  0  0  0  0  0  0  0
  -19.4143  -37.7252  -13.0916 C   0  0  0  0  0  0  0  0  0  0  0  0
  -18.9478  -44.1507  -11.3445 C   0  0  0  0  0  0  0  0  0  0  0  0
  -18.5175  -45.3898  -11.3994 O   0  0  0  0  0  0  0  0  0  0  0  0
  -19.0286  -43.5217  -12.5541 N   0  0  0  0  0  0  0  0  0  0  0  0
  -18.1602  -43.6506  -13.6721 C   0  0  0  0  0  0  0  0  0  0  0  0
  -20.1567  -42.5785  -12.7316 C   0  0  0  0  0  0  0  0  0  0  0  0
  2  1  1  1
  2  3  1  0
  3  4  1  0
  4  5  1  0
  5  6  1  0
  6  7  1  0
  7  8  1  0
  8  9  1  0
  9 10  1  0
 10 11  1  0
 11 12  1  0
 12 13  2  0
 13 14  1  0
 14 15  2  0
 15 16  1  0
 15 17  1  0
 17 18  2  0
 17 19  1  0
 19 20  1  0
 20 21  1  1
 20 22  1  0
 22 23  1  6
 22 24  1  0
 24 25  1  0
 25 26  1  0
 26 27  1  0
 27 28  1  0
 26 29  1  0
 29 30  2  0
 30 31  1  0
 31 32  2  0
 32 33  1  0
 33 34  2  0
 31 35  1  0
 35 36  1  0
 35 37  1  0
 35 38  1  0
 13 39  1  0
 39 40  2  0
 39 41  1  0
 41 42  1  0
 41 43  1  0
 16 11  2  0
 21  2  1  0
 28 26  1  0
 34 29  1  0
M  END
$$$$
