
     RDKit          3D

 43 46  0  0  0  0  0  0  0  0999 V2000
  -19.1161  -37.1718   -6.1211 C   0  0  0  0  0  0  0  0  0  0  0  0
  -18.9070  -37.8408   -7.4877 C   0  0  2  0  0  0  0  0  0  0  0  0
  -20.0661  -38.6895   -7.8803 C   0  0  0  0  0  0  0  0  0  0  0  0
  -20.8004  -38.0871   -9.0533 C   0  0  0  0  0  0  0  0  0  0  0  0
  -22.2968  -38.2420   -8.8856 C   0  0  0  0  0  0  0  0  0  0  0  0
  -22.7204  -39.4788   -9.6559 C   0  0  0  0  0  0  0  0  0  0  0  0
  -23.8896  -40.1609   -8.9640 C   0  0  0  0  0  0  0  0  0  0  0  0
  -24.2418  -41.4176   -9.6797 C   0  0  0  0  0  0  0  0  0  0  0  0
  -24.1185  -42.6076   -8.7113 C   0  0  0  0  0  0  0  0  0  0  0  0
  -22.8513  -43.1107   -8.8469 O   0  0  0  0  0  0  0  0  0  0  0  0
  -21.6821  -43.2079   -8.1112 C   0  0  0  0  0  0  0  0  0  0  0  0
  -21.2344  -44.5381   -8.0543 C   0  0  0  0  0  0  0  0  0  0  0  0
  -20.0908  -44.9300   -7.3866 C   0  0  0  0  0  0  0  0  0  0  0  0
  -19.4129  -43.9115   -6.7758 C   0  0  0  0  0  0  0  0  0  0  0  0
  -19.8217  -42.5450   -6.8045 C   0  0  0  0  0  0  0  0  0  0  0  0
  -20.9600  -42.1990   -7.4741 C   0  0  0  0  0  0  0  0  0  0  0  0
  -18.8610  -41.7351   -6.0401 C   0  0  0  0  0  0  0  0  0  0  0  0
  -18.3974  -42.2446   -4.9096 O   0  0  0  0  0  0  0  0  0  0  0  0
  -18.2923  -40.4581   -6.2598 N   0  0  0  0  0  0  0  0  0  0  0  0
  -17.5233  -39.9775   -7.3657 C   0  0  1  0  0  0  0  0  0  0  0  0
  -17.5921  -38.5125   -7.5719 C   0  0  0  0  0  0  0  0  0  0  0  0
  -16.0587  -40.3747   -7.2338 C   0  0  2  0  0  0  0  0  0  0  0  0
  -15.5335  -39.5038   -6.2487 O   0  0  0  0  0  0  0  0  0  0  0  0
  -15.2996  -39.9983   -8.4926 C   0  0  0  0  0  0  0  0  0  0  0  0
  -13.8807  -40.0793   -8.3862 N   0  0  0  0  0  0  0  0  0  0  0  0
  -13.2623  -39.8642   -9.6981 C   0  0  0  0  0  0  0  0  0  0  0  0
  -11.9068  -40.3765   -9.9234 C   0  0  0  0  0  0  0  0  0  0  0  0
  -12.9893  -41.2471  -10.3830 C   0  0  0  0  0  0  0  0  0  0  0  0
  -13.9475  -38.9259  -10.6198 C   0  0  0  0  0  0  0  0  0  0  0  0
  -14.0147  -37.5917  -10.3066 C   0  0  0  0  0  0  0  0  0  0  0  0
  -14.6637  -36.6845  -11.1541 C   0  0  0  0  0  0  0  0  0  0  0  0
  -15.2386  -37.1374  -12.3096 C   0  0  0  0  0  0  0  0  0  0  0  0
  -15.1550  -38.4809  -12.5968 C   0  0  0  0  0  0  0  0  0  0  0  0
  -14.5249  -39.3167  -11.7599 N   0  0  0  0  0  0  0  0  0  0  0  0
  -14.7282  -35.2373  -10.8261 C   0  0  0  0  0  0  0  0  0  0  0  0
  -15.0998  -34.4797  -12.0801 C   0  0  0  0  0  0  0  0  0  0  0  0
  -15.7884  -35.0167   -9.7934 C   0  0  0  0  0  0  0  0  0  0  0  0
  -13.4076  -34.7221  -10.3060 C   0  0  0  0  0  0  0  0  0  0  0  0
  -19.7126  -46.3354   -7.3685 C   0  0  0  0  0  0  0  0  0  0  0  0
  -20.3836  -47.0525   -6.4973 O   0  0  0  0  0  0  0  0  0  0  0  0
  -18.7894  -47.0353   -8.0919 N   0  0  0  0  0  0  0  0  0  0  0  0
  -18.0232  -46.5915   -9.2038 C   0  0  0  0  0  0  0  0  0  0  0  0
  -18.5542  -48.4377   -7.6777 C   0  0  0  0  0  0  0  0  0  0  0  0
  2  1  1  1
  2  3  1  0
  3  4  1  0
  4  5  1  0
  5  6  1  0
  6  7  1  0
  7  8  1  0
  8  9  1  0
  9 10  1  0
 10 11  1  0
 11 12  1  0
 12 13  2  0
 13 14  1  0
 14 15  2  0
 15 16  1  0
 15 17  1  0
 17 18  2  0
 17 19  1  0
 19 20  1  0
 20 21  1  1
 20 22  1  0
 22 23  1  1
 22 24  1  0
 24 25  1  0
 25 26  1  0
 26 27  1  0
 27 28  1  0
 26 29  1  0
 29 30  2  0
 30 31  1  0
 31 32  2  0
 32 33  1  0
 33 34  2  0
 31 35  1  0
 35 36  1  0
 35 37  1  0
 35 38  1  0
 13 39  1  0
 39 40  2  0
 39 41  1  0
 41 42  1  0
 41 43  1  0
 16 11  2  0
 21  2  1  0
 28 26  1  0
 34 29  1  0
M  END
$$$$
