
     RDKit          3D

 43 46  0  0  0  0  0  0  0  0999 V2000
  -13.8977  -39.8435  -11.1532 C   0  0  0  0  0  0  0  0  0  0  0  0
  -13.6943  -40.6037   -9.8342 C   0  0  2  0  0  0  0  0  0  0  0  0
  -14.0789  -42.0379   -9.9480 C   0  0  0  0  0  0  0  0  0  0  0  0
  -12.8643  -42.9290   -9.8555 C   0  0  0  0  0  0  0  0  0  0  0  0
  -12.9673  -44.0788  -10.8346 C   0  0  0  0  0  0  0  0  0  0  0  0
  -13.5166  -45.2763  -10.0818 C   0  0  0  0  0  0  0  0  0  0  0  0
  -14.3746  -46.1326  -10.9993 C   0  0  0  0  0  0  0  0  0  0  0  0
  -14.9766  -47.2562  -10.2309 C   0  0  0  0  0  0  0  0  0  0  0  0
  -16.5107  -47.1766  -10.3288 C   0  0  0  0  0  0  0  0  0  0  0  0
  -16.9486  -46.4555   -9.2491 O   0  0  0  0  0  0  0  0  0  0  0  0
  -17.5360  -45.2305   -8.9802 C   0  0  0  0  0  0  0  0  0  0  0  0
  -18.6974  -45.3903   -8.2065 C   0  0  0  0  0  0  0  0  0  0  0  0
  -19.4867  -44.3367   -7.7892 C   0  0  0  0  0  0  0  0  0  0  0  0
  -19.0472  -43.1051   -8.1892 C   0  0  0  0  0  0  0  0  0  0  0  0
  -17.8749  -42.8869   -8.9724 C   0  0  0  0  0  0  0  0  0  0  0  0
  -17.1226  -43.9558   -9.3666 C   0  0  0  0  0  0  0  0  0  0  0  0
  -17.7160  -41.4452   -9.2165 C   0  0  0  0  0  0  0  0  0  0  0  0
  -18.8088  -40.7481   -9.4858 O   0  0  0  0  0  0  0  0  0  0  0  0
  -16.5873  -40.5919   -9.2287 N   0  0  0  0  0  0  0  0  0  0  0  0
  -15.6300  -40.3270   -8.1996 C   0  0  1  0  0  0  0  0  0  0  0  0
  -14.3037  -39.8887   -8.6919 C   0  0  0  0  0  0  0  0  0  0  0  0
  -16.1473  -39.2813   -7.2203 C   0  0  2  0  0  0  0  0  0  0  0  0
  -16.1372  -39.9272   -5.9604 O   0  0  0  0  0  0  0  0  0  0  0  0
  -17.6178  -39.0081   -7.4759 C   0  0  0  0  0  0  0  0  0  0  0  0
  -17.8840  -38.0888   -8.5321 N   0  0  0  0  0  0  0  0  0  0  0  0
  -19.1556  -37.3990   -8.2934 C   0  0  0  0  0  0  0  0  0  0  0  0
  -19.1321  -35.9505   -8.0655 C   0  0  0  0  0  0  0  0  0  0  0  0
  -19.4146  -36.3632   -9.4406 C   0  0  0  0  0  0  0  0  0  0  0  0
  -20.3464  -38.2481   -8.0473 C   0  0  0  0  0  0  0  0  0  0  0  0
  -20.7082  -38.5564   -6.7601 C   0  0  0  0  0  0  0  0  0  0  0  0
  -21.8226  -39.3639   -6.4987 C   0  0  0  0  0  0  0  0  0  0  0  0
  -22.5591  -39.8515   -7.5432 C   0  0  0  0  0  0  0  0  0  0  0  0
  -22.1717  -39.5253   -8.8230 C   0  0  0  0  0  0  0  0  0  0  0  0
  -21.0990  -38.7495   -9.0313 N   0  0  0  0  0  0  0  0  0  0  0  0
  -22.2260  -39.6901   -5.1070 C   0  0  0  0  0  0  0  0  0  0  0  0
  -22.2746  -38.4062   -4.3107 C   0  0  0  0  0  0  0  0  0  0  0  0
  -23.5911  -40.3027   -5.1243 C   0  0  0  0  0  0  0  0  0  0  0  0
  -21.2567  -40.6452   -4.4528 C   0  0  0  0  0  0  0  0  0  0  0  0
  -20.6826  -44.5994   -7.0023 C   0  0  0  0  0  0  0  0  0  0  0  0
  -21.5961  -45.2909   -7.6432 O   0  0  0  0  0  0  0  0  0  0  0  0
  -21.0206  -44.2560   -5.7243 N   0  0  0  0  0  0  0  0  0  0  0  0
  -22.1655  -44.6521   -4.9808 C   0  0  0  0  0  0  0  0  0  0  0  0
  -20.0856  -43.3513   -5.0166 C   0  0  0  0  0  0  0  0  0  0  0  0
  2  1  1  6
  2  3  1  0
  3  4  1  0
  4  5  1  0
  5  6  1  0
  6  7  1  0
  7  8  1  0
  8  9  1  0
  9 10  1  0
 10 11  1  0
 11 12  1  0
 12 13  2  0
 13 14  1  0
 14 15  2  0
 15 16  1  0
 15 17  1  0
 17 18  2  0
 17 19  1  0
 19 20  1  0
 20 21  1  6
 20 22  1  0
 22 23  1  1
 22 24  1  0
 24 25  1  0
 25 26  1  0
 26 27  1  0
 27 28  1  0
 26 29  1  0
 29 30  2  0
 30 31  1  0
 31 32  2  0
 32 33  1  0
 33 34  2  0
 31 35  1  0
 35 36  1  0
 35 37  1  0
 35 38  1  0
 13 39  1  0
 39 40  2  0
 39 41  1  0
 41 42  1  0
 41 43  1  0
 16 11  2  0
 21  2  1  0
 28 26  1  0
 34 29  1  0
M  END
$$$$
