
     RDKit          3D

 43 46  0  0  0  0  0  0  0  0999 V2000
  -14.4172  -37.9047  -10.4996 C   0  0  0  0  0  0  0  0  0  0  0  0
  -14.1025  -38.8723   -9.3491 C   0  0  2  0  0  0  0  0  0  0  0  0
  -13.9419  -40.2749   -9.8235 C   0  0  0  0  0  0  0  0  0  0  0  0
  -12.5086  -40.7276   -9.6867 C   0  0  0  0  0  0  0  0  0  0  0  0
  -12.0931  -41.5596  -10.8811 C   0  0  0  0  0  0  0  0  0  0  0  0
  -12.2627  -43.0200  -10.5059 C   0  0  0  0  0  0  0  0  0  0  0  0
  -12.6591  -43.8388  -11.7239 C   0  0  0  0  0  0  0  0  0  0  0  0
  -12.9054  -45.2525  -11.3286 C   0  0  0  0  0  0  0  0  0  0  0  0
  -14.3488  -45.6407  -11.6961 C   0  0  0  0  0  0  0  0  0  0  0  0
  -15.1267  -45.3974  -10.5947 O   0  0  0  0  0  0  0  0  0  0  0  0
  -16.1337  -44.5335  -10.1977 C   0  0  0  0  0  0  0  0  0  0  0  0
  -17.2404  -45.2456   -9.7064 C   0  0  0  0  0  0  0  0  0  0  0  0
  -18.3907  -44.6402   -9.2400 C   0  0  0  0  0  0  0  0  0  0  0  0
  -18.3734  -43.2737   -9.2900 C   0  0  0  0  0  0  0  0  0  0  0  0
  -17.2762  -42.5025   -9.7765 C   0  0  0  0  0  0  0  0  0  0  0  0
  -16.1574  -43.1395  -10.2309 C   0  0  0  0  0  0  0  0  0  0  0  0
  -17.6105  -41.0730   -9.6870 C   0  0  0  0  0  0  0  0  0  0  0  0
  -18.8430  -40.7136  -10.0100 O   0  0  0  0  0  0  0  0  0  0  0  0
  -16.8610  -39.9330   -9.3115 N   0  0  0  0  0  0  0  0  0  0  0  0
  -16.1757  -39.6515   -8.0882 C   0  0  1  0  0  0  0  0  0  0  0  0
  -15.0443  -38.7050   -8.2211 C   0  0  0  0  0  0  0  0  0  0  0  0
  -17.1310  -39.1111   -7.0320 C   0  0  2  0  0  0  0  0  0  0  0  0
  -17.1177  -40.0806   -6.0002 O   0  0  0  0  0  0  0  0  0  0  0  0
  -18.5574  -39.1505   -7.5482 C   0  0  0  0  0  0  0  0  0  0  0  0
  -19.1442  -37.8748   -7.7921 N   0  0  0  0  0  0  0  0  0  0  0  0
  -20.6052  -37.9902   -7.8345 C   0  0  0  0  0  0  0  0  0  0  0  0
  -21.3808  -36.8542   -8.3431 C   0  0  0  0  0  0  0  0  0  0  0  0
  -21.0958  -37.9052   -9.3205 C   0  0  0  0  0  0  0  0  0  0  0  0
  -21.2104  -39.1442   -7.1265 C   0  0  0  0  0  0  0  0  0  0  0  0
  -21.0839  -39.2494   -5.7642 C   0  0  0  0  0  0  0  0  0  0  0  0
  -21.6373  -40.3335   -5.0707 C   0  0  0  0  0  0  0  0  0  0  0  0
  -22.3125  -41.3005   -5.7636 C   0  0  0  0  0  0  0  0  0  0  0  0
  -22.4228  -41.1678   -7.1291 C   0  0  0  0  0  0  0  0  0  0  0  0
  -21.8792  -40.1152   -7.7557 N   0  0  0  0  0  0  0  0  0  0  0  0
  -21.5143  -40.4454   -3.5948 C   0  0  0  0  0  0  0  0  0  0  0  0
  -22.9040  -40.5027   -3.0030 C   0  0  0  0  0  0  0  0  0  0  0  0
  -20.7909  -41.7114   -3.2590 C   0  0  0  0  0  0  0  0  0  0  0  0
  -20.7699  -39.2717   -3.0048 C   0  0  0  0  0  0  0  0  0  0  0  0
  -19.4946  -45.4605   -8.7635 C   0  0  0  0  0  0  0  0  0  0  0  0
  -19.1633  -46.2817   -7.7943 O   0  0  0  0  0  0  0  0  0  0  0  0
  -20.8047  -45.5271   -9.1437 N   0  0  0  0  0  0  0  0  0  0  0  0
  -21.8874  -46.1478   -8.4632 C   0  0  0  0  0  0  0  0  0  0  0  0
  -21.1506  -44.8793  -10.4299 C   0  0  0  0  0  0  0  0  0  0  0  0
  2  1  1  6
  2  3  1  0
  3  4  1  0
  4  5  1  0
  5  6  1  0
  6  7  1  0
  7  8  1  0
  8  9  1  0
  9 10  1  0
 10 11  1  0
 11 12  1  0
 12 13  2  0
 13 14  1  0
 14 15  2  0
 15 16  1  0
 15 17  1  0
 17 18  2  0
 17 19  1  0
 19 20  1  0
 20 21  1  6
 20 22  1  0
 22 23  1  1
 22 24  1  0
 24 25  1  0
 25 26  1  0
 26 27  1  0
 27 28  1  0
 26 29  1  0
 29 30  2  0
 30 31  1  0
 31 32  2  0
 32 33  1  0
 33 34  2  0
 31 35  1  0
 35 36  1  0
 35 37  1  0
 35 38  1  0
 13 39  1  0
 39 40  2  0
 39 41  1  0
 41 42  1  0
 41 43  1  0
 16 11  2  0
 21  2  1  0
 28 26  1  0
 34 29  1  0
M  END
$$$$
