
     RDKit          3D

 43 46  0  0  0  0  0  0  0  0999 V2000
  -14.1153  -40.1790  -11.3698 C   0  0  0  0  0  0  0  0  0  0  0  0
  -13.8876  -41.0232  -10.1071 C   0  0  2  0  0  0  0  0  0  0  0  0
  -14.5235  -42.3661  -10.2076 C   0  0  0  0  0  0  0  0  0  0  0  0
  -13.4775  -43.4509  -10.2927 C   0  0  0  0  0  0  0  0  0  0  0  0
  -13.8938  -44.5204  -11.2798 C   0  0  0  0  0  0  0  0  0  0  0  0
  -14.5454  -45.6431  -10.4940 C   0  0  0  0  0  0  0  0  0  0  0  0
  -15.6420  -46.3002  -11.3167 C   0  0  0  0  0  0  0  0  0  0  0  0
  -16.3307  -47.3422  -10.5069 C   0  0  0  0  0  0  0  0  0  0  0  0
  -17.8288  -47.0029  -10.4072 C   0  0  0  0  0  0  0  0  0  0  0  0
  -18.0028  -46.2700   -9.2626 O   0  0  0  0  0  0  0  0  0  0  0  0
  -18.3344  -44.9780   -8.8903 C   0  0  0  0  0  0  0  0  0  0  0  0
  -19.4040  -44.9774   -7.9797 C   0  0  0  0  0  0  0  0  0  0  0  0
  -19.9445  -43.8273   -7.4389 C   0  0  0  0  0  0  0  0  0  0  0  0
  -19.3518  -42.6692   -7.8600 C   0  0  0  0  0  0  0  0  0  0  0  0
  -18.2628  -42.6136   -8.7799 C   0  0  0  0  0  0  0  0  0  0  0  0
  -17.7582  -43.7736   -9.2935 C   0  0  0  0  0  0  0  0  0  0  0  0
  -17.8895  -41.2089   -9.0054 C   0  0  0  0  0  0  0  0  0  0  0  0
  -18.8709  -40.3273   -9.1160 O   0  0  0  0  0  0  0  0  0  0  0  0
  -16.6410  -40.5565   -9.1391 N   0  0  0  0  0  0  0  0  0  0  0  0
  -15.5353  -40.5036   -8.2335 C   0  0  1  0  0  0  0  0  0  0  0  0
  -14.2227  -40.2706   -8.8788 C   0  0  0  0  0  0  0  0  0  0  0  0
  -15.7433  -39.4331   -7.1701 C   0  0  2  0  0  0  0  0  0  0  0  0
  -15.7223  -40.1339   -5.9401 O   0  0  0  0  0  0  0  0  0  0  0  0
  -17.1556  -38.8840   -7.2506 C   0  0  0  0  0  0  0  0  0  0  0  0
  -17.2466  -37.5091   -7.6147 N   0  0  0  0  0  0  0  0  0  0  0  0
  -18.6522  -37.1016   -7.7035 C   0  0  0  0  0  0  0  0  0  0  0  0
  -19.0221  -35.7629   -7.2325 C   0  0  0  0  0  0  0  0  0  0  0  0
  -18.7836  -35.8762   -8.6717 C   0  0  0  0  0  0  0  0  0  0  0  0
  -19.6408  -38.1589   -8.0261 C   0  0  0  0  0  0  0  0  0  0  0  0
  -20.6644  -37.8900   -8.8994 C   0  0  0  0  0  0  0  0  0  0  0  0
  -21.6176  -38.8668   -9.2150 C   0  0  0  0  0  0  0  0  0  0  0  0
  -21.5252  -40.1057   -8.6427 C   0  0  0  0  0  0  0  0  0  0  0  0
  -20.4878  -40.3457   -7.7705 C   0  0  0  0  0  0  0  0  0  0  0  0
  -19.5958  -39.3843   -7.4947 N   0  0  0  0  0  0  0  0  0  0  0  0
  -22.7200  -38.5849  -10.1695 C   0  0  0  0  0  0  0  0  0  0  0  0
  -22.1614  -37.7780  -11.3192 C   0  0  0  0  0  0  0  0  0  0  0  0
  -23.2521  -39.8796  -10.6984 C   0  0  0  0  0  0  0  0  0  0  0  0
  -23.8411  -37.8119   -9.5172 C   0  0  0  0  0  0  0  0  0  0  0  0
  -21.0638  -43.9230   -6.5135 C   0  0  0  0  0  0  0  0  0  0  0  0
  -20.7907  -44.5982   -5.4212 O   0  0  0  0  0  0  0  0  0  0  0  0
  -22.3391  -43.4386   -6.5798 N   0  0  0  0  0  0  0  0  0  0  0  0
  -23.3674  -43.5324   -5.6028 C   0  0  0  0  0  0  0  0  0  0  0  0
  -22.7101  -42.7297   -7.8262 C   0  0  0  0  0  0  0  0  0  0  0  0
  2  1  1  6
  2  3  1  0
  3  4  1  0
  4  5  1  0
  5  6  1  0
  6  7  1  0
  7  8  1  0
  8  9  1  0
  9 10  1  0
 10 11  1  0
 11 12  1  0
 12 13  2  0
 13 14  1  0
 14 15  2  0
 15 16  1  0
 15 17  1  0
 17 18  2  0
 17 19  1  0
 19 20  1  0
 20 21  1  6
 20 22  1  0
 22 23  1  1
 22 24  1  0
 24 25  1  0
 25 26  1  0
 26 27  1  0
 27 28  1  0
 26 29  1  0
 29 30  2  0
 30 31  1  0
 31 32  2  0
 32 33  1  0
 33 34  2  0
 31 35  1  0
 35 36  1  0
 35 37  1  0
 35 38  1  0
 13 39  1  0
 39 40  2  0
 39 41  1  0
 41 42  1  0
 41 43  1  0
 16 11  2  0
 21  2  1  0
 28 26  1  0
 34 29  1  0
M  END
$$$$
