
     RDKit          3D

 43 46  0  0  0  0  0  0  0  0999 V2000
  -13.2432  -39.4261  -10.7371 C   0  0  0  0  0  0  0  0  0  0  0  0
  -13.3061  -40.2537   -9.4447 C   0  0  2  0  0  0  0  0  0  0  0  0
  -13.6856  -41.6704   -9.7035 C   0  0  0  0  0  0  0  0  0  0  0  0
  -12.5253  -42.5961   -9.4301 C   0  0  0  0  0  0  0  0  0  0  0  0
  -12.4596  -43.6945  -10.4696 C   0  0  0  0  0  0  0  0  0  0  0  0
  -13.1613  -44.9121   -9.8972 C   0  0  0  0  0  0  0  0  0  0  0  0
  -13.8436  -45.7008  -11.0034 C   0  0  0  0  0  0  0  0  0  0  0  0
  -14.5988  -46.8441  -10.4218 C   0  0  0  0  0  0  0  0  0  0  0  0
  -16.0850  -46.7200  -10.8028 C   0  0  0  0  0  0  0  0  0  0  0  0
  -16.7078  -46.0405   -9.7890 O   0  0  0  0  0  0  0  0  0  0  0  0
  -17.3153  -44.8150   -9.5724 C   0  0  0  0  0  0  0  0  0  0  0  0
  -18.6048  -44.9816   -9.0408 C   0  0  0  0  0  0  0  0  0  0  0  0
  -19.4415  -43.9290   -8.7256 C   0  0  0  0  0  0  0  0  0  0  0  0
  -18.9141  -42.6915   -8.9709 C   0  0  0  0  0  0  0  0  0  0  0  0
  -17.6111  -42.4664   -9.5066 C   0  0  0  0  0  0  0  0  0  0  0  0
  -16.8153  -43.5344   -9.8070 C   0  0  0  0  0  0  0  0  0  0  0  0
  -17.3851  -41.0193   -9.6410 C   0  0  0  0  0  0  0  0  0  0  0  0
  -18.3955  -40.2820  -10.0748 O   0  0  0  0  0  0  0  0  0  0  0  0
  -16.2608  -40.1959   -9.3957 N   0  0  0  0  0  0  0  0  0  0  0  0
  -15.5117  -40.0058   -8.1923 C   0  0  1  0  0  0  0  0  0  0  0  0
  -14.1092  -39.5789   -8.4022 C   0  0  0  0  0  0  0  0  0  0  0  0
  -16.1881  -38.9952   -7.2750 C   0  0  2  0  0  0  0  0  0  0  0  0
  -16.3109  -39.6595   -6.0306 O   0  0  0  0  0  0  0  0  0  0  0  0
  -17.6245  -38.7732   -7.7108 C   0  0  0  0  0  0  0  0  0  0  0  0
  -17.8022  -38.5551   -9.1080 N   0  0  0  0  0  0  0  0  0  0  0  0
  -18.8789  -37.5863   -9.3356 C   0  0  0  0  0  0  0  0  0  0  0  0
  -18.5251  -36.2544   -9.8373 C   0  0  0  0  0  0  0  0  0  0  0  0
  -18.9405  -37.2175  -10.8575 C   0  0  0  0  0  0  0  0  0  0  0  0
  -20.2196  -37.9324   -8.8045 C   0  0  0  0  0  0  0  0  0  0  0  0
  -20.3256  -38.6919   -7.6667 C   0  0  0  0  0  0  0  0  0  0  0  0
  -21.5789  -39.0417   -7.1480 C   0  0  0  0  0  0  0  0  0  0  0  0
  -22.7123  -38.6194   -7.7869 C   0  0  0  0  0  0  0  0  0  0  0  0
  -22.5743  -37.8591   -8.9259 C   0  0  0  0  0  0  0  0  0  0  0  0
  -21.3568  -37.5455   -9.3901 N   0  0  0  0  0  0  0  0  0  0  0  0
  -21.6992  -39.8528   -5.9096 C   0  0  0  0  0  0  0  0  0  0  0  0
  -23.1561  -40.2005   -5.7063 C   0  0  0  0  0  0  0  0  0  0  0  0
  -20.9168  -41.1175   -6.0754 C   0  0  0  0  0  0  0  0  0  0  0  0
  -21.1923  -39.1053   -4.6997 C   0  0  0  0  0  0  0  0  0  0  0  0
  -20.7691  -44.1981   -8.1930 C   0  0  0  0  0  0  0  0  0  0  0  0
  -21.7277  -44.0930   -9.0838 O   0  0  0  0  0  0  0  0  0  0  0  0
  -21.1913  -44.5379   -6.9393 N   0  0  0  0  0  0  0  0  0  0  0  0
  -22.0642  -45.5942   -6.5615 C   0  0  0  0  0  0  0  0  0  0  0  0
  -20.6867  -43.7018   -5.8257 C   0  0  0  0  0  0  0  0  0  0  0  0
  2  1  1  6
  2  3  1  0
  3  4  1  0
  4  5  1  0
  5  6  1  0
  6  7  1  0
  7  8  1  0
  8  9  1  0
  9 10  1  0
 10 11  1  0
 11 12  1  0
 12 13  2  0
 13 14  1  0
 14 15  2  0
 15 16  1  0
 15 17  1  0
 17 18  2  0
 17 19  1  0
 19 20  1  0
 20 21  1  6
 20 22  1  0
 22 23  1  1
 22 24  1  0
 24 25  1  0
 25 26  1  0
 26 27  1  0
 27 28  1  0
 26 29  1  0
 29 30  2  0
 30 31  1  0
 31 32  2  0
 32 33  1  0
 33 34  2  0
 31 35  1  0
 35 36  1  0
 35 37  1  0
 35 38  1  0
 13 39  1  0
 39 40  2  0
 39 41  1  0
 41 42  1  0
 41 43  1  0
 16 11  2  0
 21  2  1  0
 28 26  1  0
 34 29  1  0
M  END
$$$$
