
     RDKit          3D

 43 46  0  0  0  0  0  0  0  0999 V2000
  -16.6252  -36.2226   -9.8025 C   0  0  0  0  0  0  0  0  0  0  0  0
  -17.5144  -37.1838  -10.6053 C   0  0  2  0  0  0  0  0  0  0  0  0
  -18.8149  -37.4435   -9.9276 C   0  0  0  0  0  0  0  0  0  0  0  0
  -19.9562  -36.8299  -10.7016 C   0  0  0  0  0  0  0  0  0  0  0  0
  -20.9730  -36.2179   -9.7620 C   0  0  0  0  0  0  0  0  0  0  0  0
  -22.0762  -37.2379   -9.5504 C   0  0  0  0  0  0  0  0  0  0  0  0
  -22.6463  -37.1201   -8.1460 C   0  0  0  0  0  0  0  0  0  0  0  0
  -23.6674  -38.1794   -7.9207 C   0  0  0  0  0  0  0  0  0  0  0  0
  -23.2441  -39.0491   -6.7233 C   0  0  0  0  0  0  0  0  0  0  0  0
  -22.5329  -40.1082   -7.2232 O   0  0  0  0  0  0  0  0  0  0  0  0
  -21.2341  -40.5888   -7.2194 C   0  0  0  0  0  0  0  0  0  0  0  0
  -21.1954  -41.9257   -6.7900 C   0  0  0  0  0  0  0  0  0  0  0  0
  -20.0305  -42.6606   -6.6883 C   0  0  0  0  0  0  0  0  0  0  0  0
  -18.8981  -41.9814   -7.0438 C   0  0  0  0  0  0  0  0  0  0  0  0
  -18.8817  -40.6259   -7.4884 C   0  0  0  0  0  0  0  0  0  0  0  0
  -20.0551  -39.9332   -7.5732 C   0  0  0  0  0  0  0  0  0  0  0  0
  -17.4957  -40.2264   -7.7760 C   0  0  0  0  0  0  0  0  0  0  0  0
  -16.5558  -40.6412   -6.9411 O   0  0  0  0  0  0  0  0  0  0  0  0
  -16.9139  -39.4510   -8.8067 N   0  0  0  0  0  0  0  0  0  0  0  0
  -16.9496  -39.6395  -10.2240 C   0  0  1  0  0  0  0  0  0  0  0  0
  -16.7764  -38.3986  -11.0138 C   0  0  0  0  0  0  0  0  0  0  0  0
  -15.8973  -40.6447  -10.6739 C   0  0  2  0  0  0  0  0  0  0  0  0
  -16.3638  -41.1252  -11.9214 O   0  0  0  0  0  0  0  0  0  0  0  0
  -15.9283  -41.8697   -9.7789 C   0  0  0  0  0  0  0  0  0  0  0  0
  -15.9806  -43.1165  -10.4675 N   0  0  0  0  0  0  0  0  0  0  0  0
  -14.7492  -43.8765  -10.2313 C   0  0  0  0  0  0  0  0  0  0  0  0
  -14.7996  -45.3382  -10.3383 C   0  0  0  0  0  0  0  0  0  0  0  0
  -14.3433  -44.6382  -11.5394 C   0  0  0  0  0  0  0  0  0  0  0  0
  -13.6013  -43.1362   -9.6538 C   0  0  0  0  0  0  0  0  0  0  0  0
  -13.8151  -41.9431   -9.0106 C   0  0  0  0  0  0  0  0  0  0  0  0
  -12.7485  -41.2180   -8.4639 C   0  0  0  0  0  0  0  0  0  0  0  0
  -11.4762  -41.7079   -8.5744 C   0  0  0  0  0  0  0  0  0  0  0  0
  -11.2930  -42.9069   -9.2251 C   0  0  0  0  0  0  0  0  0  0  0  0
  -12.3400  -43.5705   -9.7344 N   0  0  0  0  0  0  0  0  0  0  0  0
  -12.9759  -39.9325   -7.7556 C   0  0  0  0  0  0  0  0  0  0  0  0
  -11.7933  -39.0279   -8.0166 C   0  0  0  0  0  0  0  0  0  0  0  0
  -14.2110  -39.2862   -8.2996 C   0  0  0  0  0  0  0  0  0  0  0  0
  -13.1300  -40.1334   -6.2671 C   0  0  0  0  0  0  0  0  0  0  0  0
  -20.0853  -44.0370   -6.2184 C   0  0  0  0  0  0  0  0  0  0  0  0
  -20.5079  -44.8885   -7.1239 O   0  0  0  0  0  0  0  0  0  0  0  0
  -19.7776  -44.5957   -5.0108 N   0  0  0  0  0  0  0  0  0  0  0  0
  -19.3508  -43.9424   -3.8227 C   0  0  0  0  0  0  0  0  0  0  0  0
  -19.8936  -46.0694   -4.9185 C   0  0  0  0  0  0  0  0  0  0  0  0
  2  1  1  1
  2  3  1  0
  3  4  1  0
  4  5  1  0
  5  6  1  0
  6  7  1  0
  7  8  1  0
  8  9  1  0
  9 10  1  0
 10 11  1  0
 11 12  1  0
 12 13  2  0
 13 14  1  0
 14 15  2  0
 15 16  1  0
 15 17  1  0
 17 18  2  0
 17 19  1  0
 19 20  1  0
 20 21  1  6
 20 22  1  0
 22 23  1  6
 22 24  1  0
 24 25  1  0
 25 26  1  0
 26 27  1  0
 27 28  1  0
 26 29  1  0
 29 30  2  0
 30 31  1  0
 31 32  2  0
 32 33  1  0
 33 34  2  0
 31 35  1  0
 35 36  1  0
 35 37  1  0
 35 38  1  0
 13 39  1  0
 39 40  2  0
 39 41  1  0
 41 42  1  0
 41 43  1  0
 16 11  2  0
 21  2  1  0
 28 26  1  0
 34 29  1  0
M  END
$$$$
