
     RDKit          3D

 43 46  0  0  0  0  0  0  0  0999 V2000
  -16.8179  -36.5037  -10.3796 C   0  0  0  0  0  0  0  0  0  0  0  0
  -17.8036  -37.4128  -11.1285 C   0  0  2  0  0  0  0  0  0  0  0  0
  -19.1800  -37.3322  -10.5656 C   0  0  0  0  0  0  0  0  0  0  0  0
  -20.1201  -36.6628  -11.5383 C   0  0  0  0  0  0  0  0  0  0  0  0
  -21.0768  -35.7419  -10.8116 C   0  0  0  0  0  0  0  0  0  0  0  0
  -22.3649  -36.5089  -10.5772 C   0  0  0  0  0  0  0  0  0  0  0  0
  -23.0142  -36.0710   -9.2742 C   0  0  0  0  0  0  0  0  0  0  0  0
  -24.2303  -36.8882   -9.0119 C   0  0  0  0  0  0  0  0  0  0  0  0
  -24.0753  -37.6148   -7.6638 C   0  0  0  0  0  0  0  0  0  0  0  0
  -23.5370  -38.8470   -7.9273 O   0  0  0  0  0  0  0  0  0  0  0  0
  -22.3558  -39.5377   -7.7141 C   0  0  0  0  0  0  0  0  0  0  0  0
  -22.6028  -40.7749   -7.0965 C   0  0  0  0  0  0  0  0  0  0  0  0
  -21.6081  -41.6739   -6.7653 C   0  0  0  0  0  0  0  0  0  0  0  0
  -20.3437  -41.2663   -7.0893 C   0  0  0  0  0  0  0  0  0  0  0  0
  -20.0380  -40.0230   -7.7185 C   0  0  0  0  0  0  0  0  0  0  0  0
  -21.0503  -39.1607   -8.0280 C   0  0  0  0  0  0  0  0  0  0  0  0
  -18.5831  -39.9201   -7.9083 C   0  0  0  0  0  0  0  0  0  0  0  0
  -17.8079  -40.3518   -6.9258 O   0  0  0  0  0  0  0  0  0  0  0  0
  -17.7852  -39.4320   -8.9701 N   0  0  0  0  0  0  0  0  0  0  0  0
  -17.7411  -39.8360  -10.3413 C   0  0  1  0  0  0  0  0  0  0  0  0
  -17.2756  -38.7863  -11.2768 C   0  0  0  0  0  0  0  0  0  0  0  0
  -16.8628  -41.0666  -10.5263 C   0  0  2  0  0  0  0  0  0  0  0  0
  -17.6027  -42.1301   -9.9551 O   0  0  0  0  0  0  0  0  0  0  0  0
  -15.6315  -40.9672   -9.6451 C   0  0  0  0  0  0  0  0  0  0  0  0
  -14.4805  -40.4162  -10.2799 N   0  0  0  0  0  0  0  0  0  0  0  0
  -13.7606  -41.4601  -11.0158 C   0  0  0  0  0  0  0  0  0  0  0  0
  -14.4489  -42.1371  -12.1197 C   0  0  0  0  0  0  0  0  0  0  0  0
  -13.5848  -41.0227  -12.5105 C   0  0  0  0  0  0  0  0  0  0  0  0
  -12.4820  -41.9347  -10.4333 C   0  0  0  0  0  0  0  0  0  0  0  0
  -11.9878  -41.3392   -9.3003 C   0  0  0  0  0  0  0  0  0  0  0  0
  -10.7779  -41.7608   -8.7339 C   0  0  0  0  0  0  0  0  0  0  0  0
  -10.0804  -42.7807   -9.3208 C   0  0  0  0  0  0  0  0  0  0  0  0
  -10.6012  -43.3583  -10.4564 C   0  0  0  0  0  0  0  0  0  0  0  0
  -11.7623  -42.9261  -10.9672 N   0  0  0  0  0  0  0  0  0  0  0  0
  -10.2449  -41.1282   -7.5003 C   0  0  0  0  0  0  0  0  0  0  0  0
  -10.4027  -39.6301   -7.6256 C   0  0  0  0  0  0  0  0  0  0  0  0
  -11.0393  -41.6034   -6.3246 C   0  0  0  0  0  0  0  0  0  0  0  0
   -8.7873  -41.4591   -7.2866 C   0  0  0  0  0  0  0  0  0  0  0  0
  -21.9574  -42.9270   -6.1123 C   0  0  0  0  0  0  0  0  0  0  0  0
  -22.3951  -43.8493   -6.9376 O   0  0  0  0  0  0  0  0  0  0  0  0
  -21.9111  -43.3104   -4.8022 N   0  0  0  0  0  0  0  0  0  0  0  0
  -22.9028  -43.9988   -4.0518 C   0  0  0  0  0  0  0  0  0  0  0  0
  -20.6782  -42.9640   -4.0581 C   0  0  0  0  0  0  0  0  0  0  0  0
  2  1  1  1
  2  3  1  0
  3  4  1  0
  4  5  1  0
  5  6  1  0
  6  7  1  0
  7  8  1  0
  8  9  1  0
  9 10  1  0
 10 11  1  0
 11 12  1  0
 12 13  2  0
 13 14  1  0
 14 15  2  0
 15 16  1  0
 15 17  1  0
 17 18  2  0
 17 19  1  0
 19 20  1  0
 20 21  1  6
 20 22  1  0
 22 23  1  1
 22 24  1  0
 24 25  1  0
 25 26  1  0
 26 27  1  0
 27 28  1  0
 26 29  1  0
 29 30  2  0
 30 31  1  0
 31 32  2  0
 32 33  1  0
 33 34  2  0
 31 35  1  0
 35 36  1  0
 35 37  1  0
 35 38  1  0
 13 39  1  0
 39 40  2  0
 39 41  1  0
 41 42  1  0
 41 43  1  0
 16 11  2  0
 21  2  1  0
 28 26  1  0
 34 29  1  0
M  END
$$$$
