
     RDKit          3D

 43 46  0  0  0  0  0  0  0  0999 V2000
  -13.2259  -39.0689  -10.7652 C   0  0  0  0  0  0  0  0  0  0  0  0
  -13.3082  -40.0332   -9.5725 C   0  0  2  0  0  0  0  0  0  0  0  0
  -13.6013  -41.4296   -9.9991 C   0  0  0  0  0  0  0  0  0  0  0  0
  -12.4093  -42.3249   -9.7632 C   0  0  0  0  0  0  0  0  0  0  0  0
  -12.2371  -43.3006  -10.9077 C   0  0  0  0  0  0  0  0  0  0  0  0
  -12.9019  -44.6039  -10.5051 C   0  0  0  0  0  0  0  0  0  0  0  0
  -13.4886  -45.2992  -11.7231 C   0  0  0  0  0  0  0  0  0  0  0  0
  -14.2109  -46.5321  -11.3064 C   0  0  0  0  0  0  0  0  0  0  0  0
  -15.6815  -46.4364  -11.7511 C   0  0  0  0  0  0  0  0  0  0  0  0
  -16.3866  -45.8996  -10.7061 O   0  0  0  0  0  0  0  0  0  0  0  0
  -17.0662  -44.7340  -10.3942 C   0  0  0  0  0  0  0  0  0  0  0  0
  -18.3696  -45.0162   -9.9529 C   0  0  0  0  0  0  0  0  0  0  0  0
  -19.2736  -44.0435   -9.5737 C   0  0  0  0  0  0  0  0  0  0  0  0
  -18.7994  -42.7637   -9.6586 C   0  0  0  0  0  0  0  0  0  0  0  0
  -17.4855  -42.4223  -10.0972 C   0  0  0  0  0  0  0  0  0  0  0  0
  -16.6222  -43.4138  -10.4655 C   0  0  0  0  0  0  0  0  0  0  0  0
  -17.3282  -40.9603  -10.0661 C   0  0  0  0  0  0  0  0  0  0  0  0
  -18.3531  -40.2279  -10.4732 O   0  0  0  0  0  0  0  0  0  0  0  0
  -16.2609  -40.1172   -9.6757 N   0  0  0  0  0  0  0  0  0  0  0  0
  -15.5815  -40.0237   -8.4206 C   0  0  1  0  0  0  0  0  0  0  0  0
  -14.1943  -39.5125   -8.5091 C   0  0  0  0  0  0  0  0  0  0  0  0
  -16.3525  -39.1502   -7.4393 C   0  0  2  0  0  0  0  0  0  0  0  0
  -15.9475  -39.5980   -6.1587 O   0  0  0  0  0  0  0  0  0  0  0  0
  -17.8313  -39.4869   -7.4903 C   0  0  0  0  0  0  0  0  0  0  0  0
  -18.7023  -38.4325   -7.0893 N   0  0  0  0  0  0  0  0  0  0  0  0
  -19.8064  -38.9667   -6.2860 C   0  0  0  0  0  0  0  0  0  0  0  0
  -19.7081  -38.8889   -4.8248 C   0  0  0  0  0  0  0  0  0  0  0  0
  -20.4631  -37.8082   -5.4597 C   0  0  0  0  0  0  0  0  0  0  0  0
  -20.8267  -39.7748   -6.9968 C   0  0  0  0  0  0  0  0  0  0  0  0
  -21.1705  -39.4556   -8.2863 C   0  0  0  0  0  0  0  0  0  0  0  0
  -22.1378  -40.1957   -8.9783 C   0  0  0  0  0  0  0  0  0  0  0  0
  -22.7476  -41.2511   -8.3577 C   0  0  0  0  0  0  0  0  0  0  0  0
  -22.3821  -41.5471   -7.0641 C   0  0  0  0  0  0  0  0  0  0  0  0
  -21.4519  -40.8145   -6.4364 N   0  0  0  0  0  0  0  0  0  0  0  0
  -22.5042  -39.8623  -10.3785 C   0  0  0  0  0  0  0  0  0  0  0  0
  -23.2950  -38.5740  -10.3712 C   0  0  0  0  0  0  0  0  0  0  0  0
  -21.2545  -39.6603  -11.1763 C   0  0  0  0  0  0  0  0  0  0  0  0
  -23.3337  -40.9519  -11.0144 C   0  0  0  0  0  0  0  0  0  0  0  0
  -20.6097  -44.4294   -9.1441 C   0  0  0  0  0  0  0  0  0  0  0  0
  -21.5645  -44.0005   -9.9365 O   0  0  0  0  0  0  0  0  0  0  0  0
  -21.0430  -45.1532   -8.0700 N   0  0  0  0  0  0  0  0  0  0  0  0
  -20.2912  -45.5998   -6.9494 C   0  0  0  0  0  0  0  0  0  0  0  0
  -22.4749  -45.5317   -8.0657 C   0  0  0  0  0  0  0  0  0  0  0  0
  2  1  1  6
  2  3  1  0
  3  4  1  0
  4  5  1  0
  5  6  1  0
  6  7  1  0
  7  8  1  0
  8  9  1  0
  9 10  1  0
 10 11  1  0
 11 12  1  0
 12 13  2  0
 13 14  1  0
 14 15  2  0
 15 16  1  0
 15 17  1  0
 17 18  2  0
 17 19  1  0
 19 20  1  0
 20 21  1  6
 20 22  1  0
 22 23  1  1
 22 24  1  0
 24 25  1  0
 25 26  1  0
 26 27  1  0
 27 28  1  0
 26 29  1  0
 29 30  2  0
 30 31  1  0
 31 32  2  0
 32 33  1  0
 33 34  2  0
 31 35  1  0
 35 36  1  0
 35 37  1  0
 35 38  1  0
 13 39  1  0
 39 40  2  0
 39 41  1  0
 41 42  1  0
 41 43  1  0
 16 11  2  0
 21  2  1  0
 28 26  1  0
 34 29  1  0
M  END
$$$$
