
     RDKit          3D

 43 46  0  0  0  0  0  0  0  0999 V2000
  -19.2359  -37.6740   -4.8282 C   0  0  0  0  0  0  0  0  0  0  0  0
  -19.4613  -37.7750   -6.3441 C   0  0  2  0  0  0  0  0  0  0  0  0
  -20.5089  -38.7754   -6.6902 C   0  0  0  0  0  0  0  0  0  0  0  0
  -21.7385  -38.0967   -7.2429 C   0  0  0  0  0  0  0  0  0  0  0  0
  -22.9960  -38.7594   -6.7225 C   0  0  0  0  0  0  0  0  0  0  0  0
  -23.4576  -39.7562   -7.7692 C   0  0  0  0  0  0  0  0  0  0  0  0
  -24.1202  -40.9535   -7.1068 C   0  0  0  0  0  0  0  0  0  0  0  0
  -24.4924  -41.9628   -8.1355 C   0  0  0  0  0  0  0  0  0  0  0  0
  -23.7889  -43.2952   -7.8204 C   0  0  0  0  0  0  0  0  0  0  0  0
  -22.6077  -43.3037   -8.5146 O   0  0  0  0  0  0  0  0  0  0  0  0
  -21.2471  -43.2551   -8.2611 C   0  0  0  0  0  0  0  0  0  0  0  0
  -20.5820  -44.3228   -8.8864 C   0  0  0  0  0  0  0  0  0  0  0  0
  -19.2182  -44.5245   -8.8046 C   0  0  0  0  0  0  0  0  0  0  0  0
  -18.5503  -43.5926   -8.0594 C   0  0  0  0  0  0  0  0  0  0  0  0
  -19.1758  -42.4892   -7.4063 C   0  0  0  0  0  0  0  0  0  0  0  0
  -20.5273  -42.3262   -7.5101 C   0  0  0  0  0  0  0  0  0  0  0  0
  -18.1550  -41.7034   -6.6965 C   0  0  0  0  0  0  0  0  0  0  0  0
  -17.2030  -42.3708   -6.0631 O   0  0  0  0  0  0  0  0  0  0  0  0
  -17.9567  -40.3121   -6.5316 N   0  0  0  0  0  0  0  0  0  0  0  0
  -17.7811  -39.2904   -7.5169 C   0  0  1  0  0  0  0  0  0  0  0  0
  -18.1866  -37.9357   -7.0767 C   0  0  0  0  0  0  0  0  0  0  0  0
  -16.3360  -39.2265   -7.9944 C   0  0  2  0  0  0  0  0  0  0  0  0
  -16.2753  -38.0745   -8.8152 O   0  0  0  0  0  0  0  0  0  0  0  0
  -16.0509  -40.3691   -8.9515 C   0  0  0  0  0  0  0  0  0  0  0  0
  -14.7732  -40.3217   -9.5810 N   0  0  0  0  0  0  0  0  0  0  0  0
  -14.8043  -41.0647  -10.8446 C   0  0  0  0  0  0  0  0  0  0  0  0
  -16.0722  -41.6671  -11.2692 C   0  0  0  0  0  0  0  0  0  0  0  0
  -15.7779  -40.3554  -11.8471 C   0  0  0  0  0  0  0  0  0  0  0  0
  -13.4988  -41.3710  -11.4780 C   0  0  0  0  0  0  0  0  0  0  0  0
  -12.3393  -41.1999  -10.7644 C   0  0  0  0  0  0  0  0  0  0  0  0
  -11.0918  -41.4724  -11.3405 C   0  0  0  0  0  0  0  0  0  0  0  0
  -11.0309  -41.9148  -12.6334 C   0  0  0  0  0  0  0  0  0  0  0  0
  -12.2105  -42.0766  -13.3238 C   0  0  0  0  0  0  0  0  0  0  0  0
  -13.3842  -41.8051  -12.7367 N   0  0  0  0  0  0  0  0  0  0  0  0
   -9.8347  -41.3012  -10.5684 C   0  0  0  0  0  0  0  0  0  0  0  0
   -9.7828  -39.8825  -10.0491 C   0  0  0  0  0  0  0  0  0  0  0  0
   -9.8424  -42.2436   -9.4061 C   0  0  0  0  0  0  0  0  0  0  0  0
   -8.6153  -41.5649  -11.4189 C   0  0  0  0  0  0  0  0  0  0  0  0
  -18.6175  -45.6690   -9.4737 C   0  0  0  0  0  0  0  0  0  0  0  0
  -19.0835  -46.8259   -9.0639 O   0  0  0  0  0  0  0  0  0  0  0  0
  -17.6612  -45.7521  -10.4453 N   0  0  0  0  0  0  0  0  0  0  0  0
  -17.0395  -44.6924  -11.1602 C   0  0  0  0  0  0  0  0  0  0  0  0
  -17.2129  -47.1150  -10.8129 C   0  0  0  0  0  0  0  0  0  0  0  0
  2  1  1  1
  2  3  1  0
  3  4  1  0
  4  5  1  0
  5  6  1  0
  6  7  1  0
  7  8  1  0
  8  9  1  0
  9 10  1  0
 10 11  1  0
 11 12  1  0
 12 13  2  0
 13 14  1  0
 14 15  2  0
 15 16  1  0
 15 17  1  0
 17 18  2  0
 17 19  1  0
 19 20  1  0
 20 21  1  1
 20 22  1  0
 22 23  1  6
 22 24  1  0
 24 25  1  0
 25 26  1  0
 26 27  1  0
 27 28  1  0
 26 29  1  0
 29 30  2  0
 30 31  1  0
 31 32  2  0
 32 33  1  0
 33 34  2  0
 31 35  1  0
 35 36  1  0
 35 37  1  0
 35 38  1  0
 13 39  1  0
 39 40  2  0
 39 41  1  0
 41 42  1  0
 41 43  1  0
 16 11  2  0
 21  2  1  0
 28 26  1  0
 34 29  1  0
M  END
$$$$
