
     RDKit          3D

 43 46  0  0  0  0  0  0  0  0999 V2000
  -12.6793  -40.2086  -10.6322 C   0  0  0  0  0  0  0  0  0  0  0  0
  -12.9091  -41.0114   -9.3431 C   0  0  2  0  0  0  0  0  0  0  0  0
  -13.4166  -42.3839   -9.6198 C   0  0  0  0  0  0  0  0  0  0  0  0
  -12.3783  -43.4216   -9.2691 C   0  0  0  0  0  0  0  0  0  0  0  0
  -12.3617  -44.5320  -10.2978 C   0  0  0  0  0  0  0  0  0  0  0  0
  -13.2206  -45.6643   -9.7664 C   0  0  0  0  0  0  0  0  0  0  0  0
  -13.9101  -46.3900  -10.9105 C   0  0  0  0  0  0  0  0  0  0  0  0
  -14.8151  -47.4428  -10.3736 C   0  0  0  0  0  0  0  0  0  0  0  0
  -16.2534  -47.1699  -10.8492 C   0  0  0  0  0  0  0  0  0  0  0  0
  -16.8649  -46.4188   -9.8800 O   0  0  0  0  0  0  0  0  0  0  0  0
  -17.3542  -45.1348   -9.7076 C   0  0  0  0  0  0  0  0  0  0  0  0
  -18.6851  -45.1615   -9.2587 C   0  0  0  0  0  0  0  0  0  0  0  0
  -19.4261  -44.0247   -9.0019 C   0  0  0  0  0  0  0  0  0  0  0  0
  -18.7586  -42.8510   -9.2180 C   0  0  0  0  0  0  0  0  0  0  0  0
  -17.4081  -42.7677   -9.6705 C   0  0  0  0  0  0  0  0  0  0  0  0
  -16.7102  -43.9153   -9.9151 C   0  0  0  0  0  0  0  0  0  0  0  0
  -17.0251  -41.3532   -9.7961 C   0  0  0  0  0  0  0  0  0  0  0  0
  -17.9240  -40.5201  -10.2965 O   0  0  0  0  0  0  0  0  0  0  0  0
  -15.8390  -40.6479   -9.4829 N   0  0  0  0  0  0  0  0  0  0  0  0
  -15.1516  -40.5233   -8.2350 C   0  0  1  0  0  0  0  0  0  0  0  0
  -13.7018  -40.2460   -8.3567 C   0  0  0  0  0  0  0  0  0  0  0  0
  -15.7758  -39.4385   -7.3668 C   0  0  2  0  0  0  0  0  0  0  0  0
  -16.0107  -40.0630   -6.1180 O   0  0  0  0  0  0  0  0  0  0  0  0
  -17.1668  -39.1015   -7.8710 C   0  0  0  0  0  0  0  0  0  0  0  0
  -18.1115  -38.7733   -6.8556 N   0  0  0  0  0  0  0  0  0  0  0  0
  -19.3661  -38.3161   -7.4611 C   0  0  0  0  0  0  0  0  0  0  0  0
  -20.5923  -38.3800   -6.6592 C   0  0  0  0  0  0  0  0  0  0  0  0
  -19.9149  -37.0830   -6.6646 C   0  0  0  0  0  0  0  0  0  0  0  0
  -19.3546  -38.0596   -8.9217 C   0  0  0  0  0  0  0  0  0  0  0  0
  -20.2991  -37.2321   -9.4748 C   0  0  0  0  0  0  0  0  0  0  0  0
  -20.3177  -36.9795  -10.8526 C   0  0  0  0  0  0  0  0  0  0  0  0
  -19.3804  -37.5679  -11.6565 C   0  0  0  0  0  0  0  0  0  0  0  0
  -18.4460  -38.3930  -11.0730 C   0  0  0  0  0  0  0  0  0  0  0  0
  -18.4618  -38.6091   -9.7505 N   0  0  0  0  0  0  0  0  0  0  0  0
  -21.3299  -36.0744  -11.4545 C   0  0  0  0  0  0  0  0  0  0  0  0
  -21.9556  -35.2554  -10.3488 C   0  0  0  0  0  0  0  0  0  0  0  0
  -20.6504  -35.1520  -12.4170 C   0  0  0  0  0  0  0  0  0  0  0  0
  -22.4101  -36.8441  -12.1762 C   0  0  0  0  0  0  0  0  0  0  0  0
  -20.8054  -44.1494   -8.5539 C   0  0  0  0  0  0  0  0  0  0  0  0
  -20.9266  -44.6632   -7.3519 O   0  0  0  0  0  0  0  0  0  0  0  0
  -21.9875  -43.8293   -9.1585 N   0  0  0  0  0  0  0  0  0  0  0  0
  -22.2095  -43.4496  -10.5102 C   0  0  0  0  0  0  0  0  0  0  0  0
  -23.1968  -43.8738   -8.3045 C   0  0  0  0  0  0  0  0  0  0  0  0
  2  1  1  6
  2  3  1  0
  3  4  1  0
  4  5  1  0
  5  6  1  0
  6  7  1  0
  7  8  1  0
  8  9  1  0
  9 10  1  0
 10 11  1  0
 11 12  1  0
 12 13  2  0
 13 14  1  0
 14 15  2  0
 15 16  1  0
 15 17  1  0
 17 18  2  0
 17 19  1  0
 19 20  1  0
 20 21  1  6
 20 22  1  0
 22 23  1  1
 22 24  1  0
 24 25  1  0
 25 26  1  0
 26 27  1  0
 27 28  1  0
 26 29  1  0
 29 30  2  0
 30 31  1  0
 31 32  2  0
 32 33  1  0
 33 34  2  0
 31 35  1  0
 35 36  1  0
 35 37  1  0
 35 38  1  0
 13 39  1  0
 39 40  2  0
 39 41  1  0
 41 42  1  0
 41 43  1  0
 16 11  2  0
 21  2  1  0
 28 26  1  0
 34 29  1  0
M  END
$$$$
