
     RDKit          3D

 43 46  0  0  0  0  0  0  0  0999 V2000
  -17.7089  -37.1404   -6.2784 C   0  0  0  0  0  0  0  0  0  0  0  0
  -18.6820  -37.6796   -7.3373 C   0  0  2  0  0  0  0  0  0  0  0  0
  -19.7539  -38.5217   -6.7373 C   0  0  0  0  0  0  0  0  0  0  0  0
  -21.0955  -37.8381   -6.8407 C   0  0  0  0  0  0  0  0  0  0  0  0
  -21.9029  -38.0484   -5.5777 C   0  0  0  0  0  0  0  0  0  0  0  0
  -22.8330  -39.2232   -5.8165 C   0  0  0  0  0  0  0  0  0  0  0  0
  -23.0548  -39.9959   -4.5261 C   0  0  0  0  0  0  0  0  0  0  0  0
  -23.8990  -41.1934   -4.7887 C   0  0  0  0  0  0  0  0  0  0  0  0
  -23.1278  -42.4607   -4.3783 C   0  0  0  0  0  0  0  0  0  0  0  0
  -22.4724  -42.9148   -5.4926 O   0  0  0  0  0  0  0  0  0  0  0  0
  -21.1756  -43.0446   -5.9610 C   0  0  0  0  0  0  0  0  0  0  0  0
  -20.9226  -44.3618   -6.3781 C   0  0  0  0  0  0  0  0  0  0  0  0
  -19.7104  -44.7798   -6.8911 C   0  0  0  0  0  0  0  0  0  0  0  0
  -18.7582  -43.8011   -6.9666 C   0  0  0  0  0  0  0  0  0  0  0  0
  -18.9632  -42.4492   -6.5596 C   0  0  0  0  0  0  0  0  0  0  0  0
  -20.1760  -42.0766   -6.0555 C   0  0  0  0  0  0  0  0  0  0  0  0
  -17.7261  -41.6842   -6.7777 C   0  0  0  0  0  0  0  0  0  0  0  0
  -16.5810  -42.2789   -6.4814 O   0  0  0  0  0  0  0  0  0  0  0  0
  -17.4774  -40.3776   -7.2606 N   0  0  0  0  0  0  0  0  0  0  0  0
  -17.8384  -39.7799   -8.5088 C   0  0  1  0  0  0  0  0  0  0  0  0
  -17.9655  -38.3048   -8.4701 C   0  0  0  0  0  0  0  0  0  0  0  0
  -16.8457  -40.1468   -9.6042 C   0  0  2  0  0  0  0  0  0  0  0  0
  -17.4774  -41.1818  -10.3352 O   0  0  0  0  0  0  0  0  0  0  0  0
  -15.6272  -40.8205   -9.0010 C   0  0  0  0  0  0  0  0  0  0  0  0
  -14.4639  -40.8086   -9.8244 N   0  0  0  0  0  0  0  0  0  0  0  0
  -13.5217  -39.7886   -9.3537 C   0  0  0  0  0  0  0  0  0  0  0  0
  -12.6113  -40.1324   -8.2565 C   0  0  0  0  0  0  0  0  0  0  0  0
  -12.0530  -40.2761   -9.6014 C   0  0  0  0  0  0  0  0  0  0  0  0
  -13.7263  -38.4046   -9.8456 C   0  0  0  0  0  0  0  0  0  0  0  0
  -14.6643  -38.1591  -10.8165 C   0  0  0  0  0  0  0  0  0  0  0  0
  -14.8721  -36.8633  -11.3064 C   0  0  0  0  0  0  0  0  0  0  0  0
  -14.1277  -35.8293  -10.8088 C   0  0  0  0  0  0  0  0  0  0  0  0
  -13.1945  -36.1064   -9.8357 C   0  0  0  0  0  0  0  0  0  0  0  0
  -13.0260  -37.3601   -9.3933 N   0  0  0  0  0  0  0  0  0  0  0  0
  -15.8950  -36.5902  -12.3481 C   0  0  0  0  0  0  0  0  0  0  0  0
  -16.6013  -35.3007  -11.9971 C   0  0  0  0  0  0  0  0  0  0  0  0
  -15.2145  -36.4266  -13.6707 C   0  0  0  0  0  0  0  0  0  0  0  0
  -16.9098  -37.7043  -12.4415 C   0  0  0  0  0  0  0  0  0  0  0  0
  -19.5347  -46.1703   -7.2836 C   0  0  0  0  0  0  0  0  0  0  0  0
  -19.9937  -47.0301   -6.4041 O   0  0  0  0  0  0  0  0  0  0  0  0
  -18.9805  -46.7351   -8.3968 N   0  0  0  0  0  0  0  0  0  0  0  0
  -18.4738  -46.0836   -9.5541 C   0  0  0  0  0  0  0  0  0  0  0  0
  -18.8983  -48.2139   -8.4133 C   0  0  0  0  0  0  0  0  0  0  0  0
  2  1  1  1
  2  3  1  0
  3  4  1  0
  4  5  1  0
  5  6  1  0
  6  7  1  0
  7  8  1  0
  8  9  1  0
  9 10  1  0
 10 11  1  0
 11 12  1  0
 12 13  2  0
 13 14  1  0
 14 15  2  0
 15 16  1  0
 15 17  1  0
 17 18  2  0
 17 19  1  0
 19 20  1  0
 20 21  1  1
 20 22  1  0
 22 23  1  6
 22 24  1  0
 24 25  1  0
 25 26  1  0
 26 27  1  0
 27 28  1  0
 26 29  1  0
 29 30  2  0
 30 31  1  0
 31 32  2  0
 32 33  1  0
 33 34  2  0
 31 35  1  0
 35 36  1  0
 35 37  1  0
 35 38  1  0
 13 39  1  0
 39 40  2  0
 39 41  1  0
 41 42  1  0
 41 43  1  0
 16 11  2  0
 21  2  1  0
 28 26  1  0
 34 29  1  0
M  END
$$$$
