
     RDKit          3D

 43 46  0  0  0  0  0  0  0  0999 V2000
  -17.9212  -36.0816   -8.1269 C   0  0  0  0  0  0  0  0  0  0  0  0
  -18.3255  -37.2850   -8.9914 C   0  0  2  0  0  0  0  0  0  0  0  0
  -19.6426  -37.8498   -8.5862 C   0  0  0  0  0  0  0  0  0  0  0  0
  -20.6832  -37.6045   -9.6515 C   0  0  0  0  0  0  0  0  0  0  0  0
  -22.0137  -37.2415   -9.0276 C   0  0  0  0  0  0  0  0  0  0  0  0
  -22.8452  -38.5082   -8.9477 C   0  0  0  0  0  0  0  0  0  0  0  0
  -23.7434  -38.4775   -7.7216 C   0  0  0  0  0  0  0  0  0  0  0  0
  -24.4913  -39.7593   -7.6064 C   0  0  0  0  0  0  0  0  0  0  0  0
  -24.1615  -40.4225   -6.2571 C   0  0  0  0  0  0  0  0  0  0  0  0
  -23.1109  -41.2756   -6.4711 O   0  0  0  0  0  0  0  0  0  0  0  0
  -21.7726  -41.3893   -6.1336 C   0  0  0  0  0  0  0  0  0  0  0  0
  -21.5047  -42.6436   -5.5606 C   0  0  0  0  0  0  0  0  0  0  0  0
  -20.2520  -43.0329   -5.1289 C   0  0  0  0  0  0  0  0  0  0  0  0
  -19.2739  -42.0935   -5.3042 C   0  0  0  0  0  0  0  0  0  0  0  0
  -19.4910  -40.8073   -5.8821 C   0  0  0  0  0  0  0  0  0  0  0  0
  -20.7452  -40.4599   -6.2945 C   0  0  0  0  0  0  0  0  0  0  0  0
  -18.2212  -40.0655   -5.9058 C   0  0  0  0  0  0  0  0  0  0  0  0
  -17.4336  -40.1706   -4.8468 O   0  0  0  0  0  0  0  0  0  0  0  0
  -17.6234  -39.2150   -6.8658 N   0  0  0  0  0  0  0  0  0  0  0  0
  -17.2733  -39.4769   -8.2275 C   0  0  1  0  0  0  0  0  0  0  0  0
  -17.2326  -38.2761   -9.0936 C   0  0  0  0  0  0  0  0  0  0  0  0
  -15.9277  -40.1841   -8.3253 C   0  0  2  0  0  0  0  0  0  0  0  0
  -15.3109  -39.9665   -7.0695 O   0  0  0  0  0  0  0  0  0  0  0  0
  -15.0247  -39.4564   -9.3038 C   0  0  0  0  0  0  0  0  0  0  0  0
  -13.8233  -40.1455   -9.6403 N   0  0  0  0  0  0  0  0  0  0  0  0
  -13.0437  -39.3616  -10.6033 C   0  0  0  0  0  0  0  0  0  0  0  0
  -11.5805  -39.4431  -10.5480 C   0  0  0  0  0  0  0  0  0  0  0  0
  -12.2202  -40.3275  -11.5225 C   0  0  0  0  0  0  0  0  0  0  0  0
  -13.7785  -38.3480  -11.3984 C   0  0  0  0  0  0  0  0  0  0  0  0
  -14.8351  -37.6771  -10.8360 C   0  0  0  0  0  0  0  0  0  0  0  0
  -15.5529  -36.7215  -11.5667 C   0  0  0  0  0  0  0  0  0  0  0  0
  -15.1940  -36.4553  -12.8596 C   0  0  0  0  0  0  0  0  0  0  0  0
  -14.1302  -37.1442  -13.3963 C   0  0  0  0  0  0  0  0  0  0  0  0
  -13.4688  -38.0509  -12.6640 N   0  0  0  0  0  0  0  0  0  0  0  0
  -16.6893  -35.9833  -10.9586 C   0  0  0  0  0  0  0  0  0  0  0  0
  -16.8353  -34.6592  -11.6729 C   0  0  0  0  0  0  0  0  0  0  0  0
  -17.9440  -36.7768  -11.1457 C   0  0  0  0  0  0  0  0  0  0  0  0
  -16.4699  -35.7330   -9.4859 C   0  0  0  0  0  0  0  0  0  0  0  0
  -20.0717  -44.3483   -4.5325 C   0  0  0  0  0  0  0  0  0  0  0  0
  -20.2259  -45.3389   -5.3801 O   0  0  0  0  0  0  0  0  0  0  0  0
  -19.7731  -44.7319   -3.2562 N   0  0  0  0  0  0  0  0  0  0  0  0
  -19.7115  -46.0492   -2.7254 C   0  0  0  0  0  0  0  0  0  0  0  0
  -19.4812  -43.6450   -2.2933 C   0  0  0  0  0  0  0  0  0  0  0  0
  2  1  1  1
  2  3  1  0
  3  4  1  0
  4  5  1  0
  5  6  1  0
  6  7  1  0
  7  8  1  0
  8  9  1  0
  9 10  1  0
 10 11  1  0
 11 12  1  0
 12 13  2  0
 13 14  1  0
 14 15  2  0
 15 16  1  0
 15 17  1  0
 17 18  2  0
 17 19  1  0
 19 20  1  0
 20 21  1  6
 20 22  1  0
 22 23  1  1
 22 24  1  0
 24 25  1  0
 25 26  1  0
 26 27  1  0
 27 28  1  0
 26 29  1  0
 29 30  2  0
 30 31  1  0
 31 32  2  0
 32 33  1  0
 33 34  2  0
 31 35  1  0
 35 36  1  0
 35 37  1  0
 35 38  1  0
 13 39  1  0
 39 40  2  0
 39 41  1  0
 41 42  1  0
 41 43  1  0
 16 11  2  0
 21  2  1  0
 28 26  1  0
 34 29  1  0
M  END
$$$$
