
     RDKit          3D

 43 46  0  0  0  0  0  0  0  0999 V2000
  -16.6456  -36.7789   -9.5924 C   0  0  0  0  0  0  0  0  0  0  0  0
  -17.8040  -37.3916  -10.3934 C   0  0  2  0  0  0  0  0  0  0  0  0
  -19.1191  -37.1848   -9.7257 C   0  0  0  0  0  0  0  0  0  0  0  0
  -19.9796  -36.2306  -10.5174 C   0  0  0  0  0  0  0  0  0  0  0  0
  -20.7331  -35.2969   -9.5946 C   0  0  0  0  0  0  0  0  0  0  0  0
  -22.1185  -35.8785   -9.3827 C   0  0  0  0  0  0  0  0  0  0  0  0
  -22.6224  -35.5549   -7.9853 C   0  0  0  0  0  0  0  0  0  0  0  0
  -23.9439  -36.2012   -7.7586 C   0  0  0  0  0  0  0  0  0  0  0  0
  -23.8480  -37.1467   -6.5477 C   0  0  0  0  0  0  0  0  0  0  0  0
  -23.5363  -38.3911   -7.0291 O   0  0  0  0  0  0  0  0  0  0  0  0
  -22.4781  -39.2842   -7.0074 C   0  0  0  0  0  0  0  0  0  0  0  0
  -22.8984  -40.5488   -6.5631 C   0  0  0  0  0  0  0  0  0  0  0  0
  -22.0531  -41.6342   -6.4420 C   0  0  0  0  0  0  0  0  0  0  0  0
  -20.7554  -41.3851   -6.7937 C   0  0  0  0  0  0  0  0  0  0  0  0
  -20.2769  -40.1219   -7.2528 C   0  0  0  0  0  0  0  0  0  0  0  0
  -21.1446  -39.0730   -7.3566 C   0  0  0  0  0  0  0  0  0  0  0  0
  -18.8360  -40.2210   -7.5311 C   0  0  0  0  0  0  0  0  0  0  0  0
  -18.0976  -40.9191   -6.6826 O   0  0  0  0  0  0  0  0  0  0  0  0
  -18.0196  -39.7034   -8.5645 N   0  0  0  0  0  0  0  0  0  0  0  0
  -18.1094  -39.8877   -9.9799 C   0  0  1  0  0  0  0  0  0  0  0  0
  -17.5205  -38.7903  -10.7814 C   0  0  0  0  0  0  0  0  0  0  0  0
  -17.4588  -41.1966  -10.4085 C   0  0  2  0  0  0  0  0  0  0  0  0
  -17.6893  -41.2772  -11.8032 O   0  0  0  0  0  0  0  0  0  0  0  0
  -18.2324  -42.3740   -9.8446 C   0  0  0  0  0  0  0  0  0  0  0  0
  -17.4473  -43.3188   -9.1219 N   0  0  0  0  0  0  0  0  0  0  0  0
  -17.5930  -44.6533   -9.7114 C   0  0  0  0  0  0  0  0  0  0  0  0
  -18.9303  -45.2533   -9.7592 C   0  0  0  0  0  0  0  0  0  0  0  0
  -18.5072  -44.5694  -10.9816 C   0  0  0  0  0  0  0  0  0  0  0  0
  -16.3461  -45.4075   -9.9869 C   0  0  0  0  0  0  0  0  0  0  0  0
  -15.1550  -44.9659   -9.4683 C   0  0  0  0  0  0  0  0  0  0  0  0
  -13.9606  -45.6532   -9.7200 C   0  0  0  0  0  0  0  0  0  0  0  0
  -13.9842  -46.7803  -10.4947 C   0  0  0  0  0  0  0  0  0  0  0  0
  -15.1938  -47.1987  -11.0010 C   0  0  0  0  0  0  0  0  0  0  0  0
  -16.3146  -46.5132  -10.7368 N   0  0  0  0  0  0  0  0  0  0  0  0
  -12.6706  -45.1867   -9.1506 C   0  0  0  0  0  0  0  0  0  0  0  0
  -11.6926  -44.9857  -10.2855 C   0  0  0  0  0  0  0  0  0  0  0  0
  -12.8865  -43.8779   -8.4582 C   0  0  0  0  0  0  0  0  0  0  0  0
  -12.0984  -46.1831   -8.1710 C   0  0  0  0  0  0  0  0  0  0  0  0
  -22.5750  -42.9037   -5.9577 C   0  0  0  0  0  0  0  0  0  0  0  0
  -23.4473  -43.4598   -6.7661 O   0  0  0  0  0  0  0  0  0  0  0  0
  -22.3202  -43.6137   -4.8192 N   0  0  0  0  0  0  0  0  0  0  0  0
  -22.5141  -45.0026   -4.5869 C   0  0  0  0  0  0  0  0  0  0  0  0
  -21.7790  -42.8476   -3.6729 C   0  0  0  0  0  0  0  0  0  0  0  0
  2  1  1  1
  2  3  1  0
  3  4  1  0
  4  5  1  0
  5  6  1  0
  6  7  1  0
  7  8  1  0
  8  9  1  0
  9 10  1  0
 10 11  1  0
 11 12  1  0
 12 13  2  0
 13 14  1  0
 14 15  2  0
 15 16  1  0
 15 17  1  0
 17 18  2  0
 17 19  1  0
 19 20  1  0
 20 21  1  6
 20 22  1  0
 22 23  1  6
 22 24  1  0
 24 25  1  0
 25 26  1  0
 26 27  1  0
 27 28  1  0
 26 29  1  0
 29 30  2  0
 30 31  1  0
 31 32  2  0
 32 33  1  0
 33 34  2  0
 31 35  1  0
 35 36  1  0
 35 37  1  0
 35 38  1  0
 13 39  1  0
 39 40  2  0
 39 41  1  0
 41 42  1  0
 41 43  1  0
 16 11  2  0
 21  2  1  0
 28 26  1  0
 34 29  1  0
M  END
$$$$
