
     RDKit          3D

 43 46  0  0  0  0  0  0  0  0999 V2000
  -17.1042  -39.4590   -4.6933 C   0  0  0  0  0  0  0  0  0  0  0  0
  -18.4762  -38.8990   -5.0969 C   0  0  2  0  0  0  0  0  0  0  0  0
  -19.5235  -39.9571   -5.1402 C   0  0  0  0  0  0  0  0  0  0  0  0
  -20.5315  -39.7611   -4.0341 C   0  0  0  0  0  0  0  0  0  0  0  0
  -20.9318  -41.0910   -3.4321 C   0  0  0  0  0  0  0  0  0  0  0  0
  -22.2196  -41.5308   -4.1033 C   0  0  0  0  0  0  0  0  0  0  0  0
  -22.2716  -43.0463   -4.2113 C   0  0  0  0  0  0  0  0  0  0  0  0
  -23.4973  -43.4624   -4.9462 C   0  0  0  0  0  0  0  0  0  0  0  0
  -23.0946  -44.2702   -6.1931 C   0  0  0  0  0  0  0  0  0  0  0  0
  -23.0006  -43.3860   -7.2356 O   0  0  0  0  0  0  0  0  0  0  0  0
  -22.0286  -42.8385   -8.0561 C   0  0  0  0  0  0  0  0  0  0  0  0
  -22.3605  -43.0101   -9.4102 C   0  0  0  0  0  0  0  0  0  0  0  0
  -21.5717  -42.5619  -10.4514 C   0  0  0  0  0  0  0  0  0  0  0  0
  -20.4251  -41.9264  -10.0621 C   0  0  0  0  0  0  0  0  0  0  0  0
  -20.0421  -41.7236   -8.7029 C   0  0  0  0  0  0  0  0  0  0  0  0
  -20.8490  -42.1838   -7.7024 C   0  0  0  0  0  0  0  0  0  0  0  0
  -18.7545  -41.0138   -8.6625 C   0  0  0  0  0  0  0  0  0  0  0  0
  -17.8336  -41.3705   -9.5443 O   0  0  0  0  0  0  0  0  0  0  0  0
  -18.2554  -39.9757   -7.8406 N   0  0  0  0  0  0  0  0  0  0  0  0
  -18.7683  -38.6595   -7.6173 C   0  0  1  0  0  0  0  0  0  0  0  0
  -18.3892  -38.0647   -6.3149 C   0  0  0  0  0  0  0  0  0  0  0  0
  -18.3386  -37.7045   -8.7235 C   0  0  2  0  0  0  0  0  0  0  0  0
  -19.5174  -37.4569   -9.4677 O   0  0  0  0  0  0  0  0  0  0  0  0
  -17.4316  -38.4193   -9.7079 C   0  0  0  0  0  0  0  0  0  0  0  0
  -16.8283  -37.5796  -10.6888 N   0  0  0  0  0  0  0  0  0  0  0  0
  -15.8967  -38.3548  -11.5139 C   0  0  0  0  0  0  0  0  0  0  0  0
  -16.4339  -39.4395  -12.3420 C   0  0  0  0  0  0  0  0  0  0  0  0
  -16.2497  -38.1604  -13.0284 C   0  0  0  0  0  0  0  0  0  0  0  0
  -14.4487  -38.1560  -11.2624 C   0  0  0  0  0  0  0  0  0  0  0  0
  -13.7249  -37.3214  -12.0762 C   0  0  0  0  0  0  0  0  0  0  0  0
  -12.3541  -37.1224  -11.8677 C   0  0  0  0  0  0  0  0  0  0  0  0
  -11.7298  -37.7708  -10.8377 C   0  0  0  0  0  0  0  0  0  0  0  0
  -12.4819  -38.6015  -10.0385 C   0  0  0  0  0  0  0  0  0  0  0  0
  -13.7915  -38.7652  -10.2709 N   0  0  0  0  0  0  0  0  0  0  0  0
  -11.5687  -36.2102  -12.7378 C   0  0  0  0  0  0  0  0  0  0  0  0
  -10.8365  -35.2235  -11.8573 C   0  0  0  0  0  0  0  0  0  0  0  0
  -10.5662  -37.0112  -13.5074 C   0  0  0  0  0  0  0  0  0  0  0  0
  -12.4536  -35.4563  -13.7013 C   0  0  0  0  0  0  0  0  0  0  0  0
  -21.9890  -42.7987  -11.8255 C   0  0  0  0  0  0  0  0  0  0  0  0
  -22.0962  -44.0703  -12.1340 O   0  0  0  0  0  0  0  0  0  0  0  0
  -22.2863  -41.9386  -12.8439 N   0  0  0  0  0  0  0  0  0  0  0  0
  -22.2203  -40.5186  -12.8433 C   0  0  0  0  0  0  0  0  0  0  0  0
  -22.7427  -42.5526  -14.1121 C   0  0  0  0  0  0  0  0  0  0  0  0
  2  1  1  6
  2  3  1  0
  3  4  1  0
  4  5  1  0
  5  6  1  0
  6  7  1  0
  7  8  1  0
  8  9  1  0
  9 10  1  0
 10 11  1  0
 11 12  1  0
 12 13  2  0
 13 14  1  0
 14 15  2  0
 15 16  1  0
 15 17  1  0
 17 18  2  0
 17 19  1  0
 19 20  1  0
 20 21  1  1
 20 22  1  0
 22 23  1  6
 22 24  1  0
 24 25  1  0
 25 26  1  0
 26 27  1  0
 27 28  1  0
 26 29  1  0
 29 30  2  0
 30 31  1  0
 31 32  2  0
 32 33  1  0
 33 34  2  0
 31 35  1  0
 35 36  1  0
 35 37  1  0
 35 38  1  0
 13 39  1  0
 39 40  2  0
 39 41  1  0
 41 42  1  0
 41 43  1  0
 16 11  2  0
 21  2  1  0
 28 26  1  0
 34 29  1  0
M  END
$$$$
