
     RDKit          3D

 43 46  0  0  0  0  0  0  0  0999 V2000
  -19.7121  -36.1447   -8.6561 C   0  0  0  0  0  0  0  0  0  0  0  0
  -18.8860  -37.3052   -9.2305 C   0  0  2  0  0  0  0  0  0  0  0  0
  -19.7381  -38.4653   -9.6125 C   0  0  0  0  0  0  0  0  0  0  0  0
  -19.7632  -38.6433  -11.1110 C   0  0  0  0  0  0  0  0  0  0  0  0
  -21.1513  -39.0202  -11.5827 C   0  0  0  0  0  0  0  0  0  0  0  0
  -21.1975  -40.5310  -11.7157 C   0  0  0  0  0  0  0  0  0  0  0  0
  -22.5880  -41.0508  -11.3877 C   0  0  0  0  0  0  0  0  0  0  0  0
  -22.6003  -42.5384  -11.4385 C   0  0  0  0  0  0  0  0  0  0  0  0
  -23.0324  -43.0917  -10.0686 C   0  0  0  0  0  0  0  0  0  0  0  0
  -21.8913  -43.3161   -9.3441 O   0  0  0  0  0  0  0  0  0  0  0  0
  -21.2473  -42.8108   -8.2271 C   0  0  0  0  0  0  0  0  0  0  0  0
  -20.9530  -43.8349   -7.3118 C   0  0  0  0  0  0  0  0  0  0  0  0
  -20.3120  -43.6203   -6.1075 C   0  0  0  0  0  0  0  0  0  0  0  0
  -19.9770  -42.3165   -5.8672 C   0  0  0  0  0  0  0  0  0  0  0  0
  -20.2498  -41.2399   -6.7625 C   0  0  0  0  0  0  0  0  0  0  0  0
  -20.8875  -41.4937   -7.9427 C   0  0  0  0  0  0  0  0  0  0  0  0
  -19.7560  -39.9845   -6.1765 C   0  0  0  0  0  0  0  0  0  0  0  0
  -19.9399  -39.8039   -4.8779 O   0  0  0  0  0  0  0  0  0  0  0  0
  -19.0911  -38.8635   -6.7274 N   0  0  0  0  0  0  0  0  0  0  0  0
  -17.8522  -38.7936   -7.4386 C   0  0  1  0  0  0  0  0  0  0  0  0
  -17.7374  -37.6409   -8.3614 C   0  0  0  0  0  0  0  0  0  0  0  0
  -16.6675  -38.7614   -6.4817 C   0  0  2  0  0  0  0  0  0  0  0  0
  -16.7412  -37.4939   -5.8549 O   0  0  0  0  0  0  0  0  0  0  0  0
  -15.3671  -38.7051   -7.2617 C   0  0  0  0  0  0  0  0  0  0  0  0
  -15.0597  -39.8822   -8.0042 N   0  0  0  0  0  0  0  0  0  0  0  0
  -13.9862  -39.6082   -8.9644 C   0  0  0  0  0  0  0  0  0  0  0  0
  -12.5969  -39.7700   -8.5234 C   0  0  0  0  0  0  0  0  0  0  0  0
  -13.1684  -40.9193   -9.2260 C   0  0  0  0  0  0  0  0  0  0  0  0
  -14.3710  -38.9442  -10.2334 C   0  0  0  0  0  0  0  0  0  0  0  0
  -13.4718  -38.1310  -10.8760 C   0  0  0  0  0  0  0  0  0  0  0  0
  -13.8116  -37.4838  -12.0709 C   0  0  0  0  0  0  0  0  0  0  0  0
  -15.0586  -37.6659  -12.6029 C   0  0  0  0  0  0  0  0  0  0  0  0
  -15.9388  -38.4872  -11.9357 C   0  0  0  0  0  0  0  0  0  0  0  0
  -15.5753  -39.0886  -10.7946 N   0  0  0  0  0  0  0  0  0  0  0  0
  -12.8377  -36.6128  -12.7772 C   0  0  0  0  0  0  0  0  0  0  0  0
  -13.3518  -36.3578  -14.1756 C   0  0  0  0  0  0  0  0  0  0  0  0
  -12.7337  -35.3077  -12.0526 C   0  0  0  0  0  0  0  0  0  0  0  0
  -11.4717  -37.2512  -12.8576 C   0  0  0  0  0  0  0  0  0  0  0  0
  -20.0624  -44.7419   -5.2140 C   0  0  0  0  0  0  0  0  0  0  0  0
  -19.0152  -45.4603   -5.5468 O   0  0  0  0  0  0  0  0  0  0  0  0
  -20.7201  -45.1765   -4.0987 N   0  0  0  0  0  0  0  0  0  0  0  0
  -20.6848  -46.4669   -3.5037 C   0  0  0  0  0  0  0  0  0  0  0  0
  -21.5883  -44.1874   -3.4192 C   0  0  0  0  0  0  0  0  0  0  0  0
  2  1  1  1
  2  3  1  0
  3  4  1  0
  4  5  1  0
  5  6  1  0
  6  7  1  0
  7  8  1  0
  8  9  1  0
  9 10  1  0
 10 11  1  0
 11 12  1  0
 12 13  2  0
 13 14  1  0
 14 15  2  0
 15 16  1  0
 15 17  1  0
 17 18  2  0
 17 19  1  0
 19 20  1  0
 20 21  1  1
 20 22  1  0
 22 23  1  1
 22 24  1  0
 24 25  1  0
 25 26  1  0
 26 27  1  0
 27 28  1  0
 26 29  1  0
 29 30  2  0
 30 31  1  0
 31 32  2  0
 32 33  1  0
 33 34  2  0
 31 35  1  0
 35 36  1  0
 35 37  1  0
 35 38  1  0
 13 39  1  0
 39 40  2  0
 39 41  1  0
 41 42  1  0
 41 43  1  0
 16 11  2  0
 21  2  1  0
 28 26  1  0
 34 29  1  0
M  END
$$$$
