
     RDKit          3D

 43 46  0  0  0  0  0  0  0  0999 V2000
  -18.9660  -37.3664   -4.9333 C   0  0  0  0  0  0  0  0  0  0  0  0
  -19.5975  -37.5333   -6.3233 C   0  0  2  0  0  0  0  0  0  0  0  0
  -20.4858  -38.7264   -6.3966 C   0  0  0  0  0  0  0  0  0  0  0  0
  -21.9300  -38.3129   -6.5430 C   0  0  0  0  0  0  0  0  0  0  0  0
  -22.8291  -39.2033   -5.7122 C   0  0  0  0  0  0  0  0  0  0  0  0
  -23.3723  -40.2877   -6.6241 C   0  0  0  0  0  0  0  0  0  0  0  0
  -23.5691  -41.5821   -5.8514 C   0  0  0  0  0  0  0  0  0  0  0  0
  -24.0208  -42.6608   -6.7723 C   0  0  0  0  0  0  0  0  0  0  0  0
  -23.0119  -43.8226   -6.7303 C   0  0  0  0  0  0  0  0  0  0  0  0
  -22.1047  -43.6078   -7.7343 O   0  0  0  0  0  0  0  0  0  0  0  0
  -20.7654  -43.2871   -7.8805 C   0  0  0  0  0  0  0  0  0  0  0  0
  -20.1167  -44.2115   -8.7159 C   0  0  0  0  0  0  0  0  0  0  0  0
  -18.7757  -44.1381   -9.0381 C   0  0  0  0  0  0  0  0  0  0  0  0
  -18.1141  -43.0811   -8.4768 C   0  0  0  0  0  0  0  0  0  0  0  0
  -18.7246  -42.1134   -7.6247 C   0  0  0  0  0  0  0  0  0  0  0  0
  -20.0529  -42.2227   -7.3287 C   0  0  0  0  0  0  0  0  0  0  0  0
  -17.7143  -41.1304   -7.2050 C   0  0  0  0  0  0  0  0  0  0  0  0
  -16.5091  -41.5864   -6.9011 O   0  0  0  0  0  0  0  0  0  0  0  0
  -17.7502  -39.7250   -7.0443 N   0  0  0  0  0  0  0  0  0  0  0  0
  -18.0694  -38.7040   -7.9935 C   0  0  1  0  0  0  0  0  0  0  0  0
  -18.5843  -37.4497   -7.3974 C   0  0  0  0  0  0  0  0  0  0  0  0
  -16.8661  -38.3628   -8.8629 C   0  0  2  0  0  0  0  0  0  0  0  0
  -17.4161  -37.7989  -10.0394 O   0  0  0  0  0  0  0  0  0  0  0  0
  -16.1954  -39.6341   -9.3493 C   0  0  0  0  0  0  0  0  0  0  0  0
  -14.8277  -39.4878   -9.7222 N   0  0  0  0  0  0  0  0  0  0  0  0
  -14.6160  -40.0014  -11.0791 C   0  0  0  0  0  0  0  0  0  0  0  0
  -15.2557  -39.3019  -12.1981 C   0  0  0  0  0  0  0  0  0  0  0  0
  -13.8661  -38.9253  -11.9369 C   0  0  0  0  0  0  0  0  0  0  0  0
  -13.9805  -41.3356  -11.2025 C   0  0  0  0  0  0  0  0  0  0  0  0
  -13.2928  -41.8630  -10.1387 C   0  0  0  0  0  0  0  0  0  0  0  0
  -12.6747  -43.1168  -10.2304 C   0  0  0  0  0  0  0  0  0  0  0  0
  -12.7588  -43.8237  -11.3984 C   0  0  0  0  0  0  0  0  0  0  0  0
  -13.4552  -43.2689  -12.4480 C   0  0  0  0  0  0  0  0  0  0  0  0
  -14.0327  -42.0664  -12.3203 N   0  0  0  0  0  0  0  0  0  0  0  0
  -11.9400  -43.6977   -9.0777 C   0  0  0  0  0  0  0  0  0  0  0  0
  -12.4544  -45.0992   -8.8411 C   0  0  0  0  0  0  0  0  0  0  0  0
  -10.4827  -43.7651   -9.4105 C   0  0  0  0  0  0  0  0  0  0  0  0
  -12.1299  -42.8792   -7.8232 C   0  0  0  0  0  0  0  0  0  0  0  0
  -18.1851  -45.1512   -9.9002 C   0  0  0  0  0  0  0  0  0  0  0  0
  -18.3163  -44.8971  -11.1815 O   0  0  0  0  0  0  0  0  0  0  0  0
  -17.5237  -46.3114   -9.6144 N   0  0  0  0  0  0  0  0  0  0  0  0
  -17.0135  -47.2794  -10.5218 C   0  0  0  0  0  0  0  0  0  0  0  0
  -17.3116  -46.6119   -8.1797 C   0  0  0  0  0  0  0  0  0  0  0  0
  2  1  1  1
  2  3  1  0
  3  4  1  0
  4  5  1  0
  5  6  1  0
  6  7  1  0
  7  8  1  0
  8  9  1  0
  9 10  1  0
 10 11  1  0
 11 12  1  0
 12 13  2  0
 13 14  1  0
 14 15  2  0
 15 16  1  0
 15 17  1  0
 17 18  2  0
 17 19  1  0
 19 20  1  0
 20 21  1  1
 20 22  1  0
 22 23  1  6
 22 24  1  0
 24 25  1  0
 25 26  1  0
 26 27  1  0
 27 28  1  0
 26 29  1  0
 29 30  2  0
 30 31  1  0
 31 32  2  0
 32 33  1  0
 33 34  2  0
 31 35  1  0
 35 36  1  0
 35 37  1  0
 35 38  1  0
 13 39  1  0
 39 40  2  0
 39 41  1  0
 41 42  1  0
 41 43  1  0
 16 11  2  0
 21  2  1  0
 28 26  1  0
 34 29  1  0
M  END
$$$$
