
     RDKit          3D

 43 46  0  0  0  0  0  0  0  0999 V2000
  -13.9402  -40.7927  -11.5366 C   0  0  0  0  0  0  0  0  0  0  0  0
  -13.8589  -41.4431  -10.1476 C   0  0  2  0  0  0  0  0  0  0  0  0
  -14.5353  -42.7694  -10.1086 C   0  0  0  0  0  0  0  0  0  0  0  0
  -13.5292  -43.8809   -9.9346 C   0  0  0  0  0  0  0  0  0  0  0  0
  -13.8974  -45.0755  -10.7881 C   0  0  0  0  0  0  0  0  0  0  0  0
  -14.6597  -46.0506   -9.9103 C   0  0  0  0  0  0  0  0  0  0  0  0
  -15.7036  -46.7958  -10.7265 C   0  0  0  0  0  0  0  0  0  0  0  0
  -16.5018  -47.6864   -9.8404 C   0  0  0  0  0  0  0  0  0  0  0  0
  -17.9884  -47.2981   -9.9327 C   0  0  0  0  0  0  0  0  0  0  0  0
  -18.2348  -46.3975   -8.9299 O   0  0  0  0  0  0  0  0  0  0  0  0
  -18.5475  -45.0562   -8.7846 C   0  0  0  0  0  0  0  0  0  0  0  0
  -19.6930  -44.8918   -7.9884 C   0  0  0  0  0  0  0  0  0  0  0  0
  -20.2342  -43.6602   -7.6760 C   0  0  0  0  0  0  0  0  0  0  0  0
  -19.5616  -42.5938   -8.2054 C   0  0  0  0  0  0  0  0  0  0  0  0
  -18.3937  -42.7046   -9.0172 C   0  0  0  0  0  0  0  0  0  0  0  0
  -17.8911  -43.9410   -9.3048 C   0  0  0  0  0  0  0  0  0  0  0  0
  -17.9471  -41.3597   -9.4110 C   0  0  0  0  0  0  0  0  0  0  0  0
  -18.8796  -40.4801   -9.7417 O   0  0  0  0  0  0  0  0  0  0  0  0
  -16.6672  -40.7666   -9.5215 N   0  0  0  0  0  0  0  0  0  0  0  0
  -15.6452  -40.6065   -8.5339 C   0  0  1  0  0  0  0  0  0  0  0  0
  -14.2724  -40.5063   -9.0805 C   0  0  0  0  0  0  0  0  0  0  0  0
  -15.9051  -39.3834   -7.6639 C   0  0  2  0  0  0  0  0  0  0  0  0
  -16.6517  -39.8717   -6.5645 O   0  0  0  0  0  0  0  0  0  0  0  0
  -16.8650  -38.4390   -8.3633 C   0  0  0  0  0  0  0  0  0  0  0  0
  -17.2092  -37.2724   -7.6206 N   0  0  0  0  0  0  0  0  0  0  0  0
  -18.5406  -36.7987   -8.0114 C   0  0  0  0  0  0  0  0  0  0  0  0
  -19.7137  -37.4245   -7.3927 C   0  0  0  0  0  0  0  0  0  0  0  0
  -19.2646  -36.1807   -6.7664 C   0  0  0  0  0  0  0  0  0  0  0  0
  -18.6166  -35.8988   -9.1878 C   0  0  0  0  0  0  0  0  0  0  0  0
  -17.7249  -36.0506  -10.2195 C   0  0  0  0  0  0  0  0  0  0  0  0
  -17.7676  -35.2089  -11.3385 C   0  0  0  0  0  0  0  0  0  0  0  0
  -18.7123  -34.2216  -11.4012 C   0  0  0  0  0  0  0  0  0  0  0  0
  -19.5929  -34.0938  -10.3511 C   0  0  0  0  0  0  0  0  0  0  0  0
  -19.5193  -34.9195   -9.2982 N   0  0  0  0  0  0  0  0  0  0  0  0
  -16.8129  -35.3771  -12.4638 C   0  0  0  0  0  0  0  0  0  0  0  0
  -15.5974  -36.1157  -11.9522 C   0  0  0  0  0  0  0  0  0  0  0  0
  -17.4611  -36.1937  -13.5371 C   0  0  0  0  0  0  0  0  0  0  0  0
  -16.3832  -34.0478  -13.0365 C   0  0  0  0  0  0  0  0  0  0  0  0
  -21.4343  -43.5874   -6.8556 C   0  0  0  0  0  0  0  0  0  0  0  0
  -21.2924  -44.1167   -5.6627 O   0  0  0  0  0  0  0  0  0  0  0  0
  -22.6733  -43.0699   -7.1055 N   0  0  0  0  0  0  0  0  0  0  0  0
  -23.8111  -43.0616   -6.2534 C   0  0  0  0  0  0  0  0  0  0  0  0
  -22.8689  -42.4412   -8.4322 C   0  0  0  0  0  0  0  0  0  0  0  0
  2  1  1  6
  2  3  1  0
  3  4  1  0
  4  5  1  0
  5  6  1  0
  6  7  1  0
  7  8  1  0
  8  9  1  0
  9 10  1  0
 10 11  1  0
 11 12  1  0
 12 13  2  0
 13 14  1  0
 14 15  2  0
 15 16  1  0
 15 17  1  0
 17 18  2  0
 17 19  1  0
 19 20  1  0
 20 21  1  6
 20 22  1  0
 22 23  1  1
 22 24  1  0
 24 25  1  0
 25 26  1  0
 26 27  1  0
 27 28  1  0
 26 29  1  0
 29 30  2  0
 30 31  1  0
 31 32  2  0
 32 33  1  0
 33 34  2  0
 31 35  1  0
 35 36  1  0
 35 37  1  0
 35 38  1  0
 13 39  1  0
 39 40  2  0
 39 41  1  0
 41 42  1  0
 41 43  1  0
 16 11  2  0
 21  2  1  0
 28 26  1  0
 34 29  1  0
M  END
$$$$
