
     RDKit          3D

 43 46  0  0  0  0  0  0  0  0999 V2000
  -15.8578  -36.0381   -9.9429 C   0  0  0  0  0  0  0  0  0  0  0  0
  -14.8220  -37.0962   -9.5349 C   0  0  2  0  0  0  0  0  0  0  0  0
  -14.6838  -38.1699  -10.5576 C   0  0  0  0  0  0  0  0  0  0  0  0
  -13.3355  -38.0992  -11.2322 C   0  0  0  0  0  0  0  0  0  0  0  0
  -13.4623  -38.3805  -12.7141 C   0  0  0  0  0  0  0  0  0  0  0  0
  -13.1463  -39.8484  -12.9324 C   0  0  0  0  0  0  0  0  0  0  0  0
  -13.9652  -40.4019  -14.0875 C   0  0  0  0  0  0  0  0  0  0  0  0
  -13.7111  -41.8608  -14.2383 C   0  0  0  0  0  0  0  0  0  0  0  0
  -15.0375  -42.6274  -14.0888 C   0  0  0  0  0  0  0  0  0  0  0  0
  -15.1560  -42.9785  -12.7697 O   0  0  0  0  0  0  0  0  0  0  0  0
  -15.9442  -42.6695  -11.6736 C   0  0  0  0  0  0  0  0  0  0  0  0
  -16.4839  -43.8327  -11.1002 C   0  0  0  0  0  0  0  0  0  0  0  0
  -17.3090  -43.8248   -9.9928 C   0  0  0  0  0  0  0  0  0  0  0  0
  -17.5656  -42.5813   -9.4850 C   0  0  0  0  0  0  0  0  0  0  0  0
  -17.0419  -41.3698  -10.0265 C   0  0  0  0  0  0  0  0  0  0  0  0
  -16.2311  -41.4204  -11.1237 C   0  0  0  0  0  0  0  0  0  0  0  0
  -17.5306  -40.2324   -9.2322 C   0  0  0  0  0  0  0  0  0  0  0  0
  -18.7917  -40.2657   -8.8310 O   0  0  0  0  0  0  0  0  0  0  0  0
  -16.9139  -39.0424   -8.7783 N   0  0  0  0  0  0  0  0  0  0  0  0
  -15.7549  -38.8683   -7.9586 C   0  0  1  0  0  0  0  0  0  0  0  0
  -15.0499  -37.5808   -8.1563 C   0  0  0  0  0  0  0  0  0  0  0  0
  -16.0983  -39.0047   -6.4809 C   0  0  2  0  0  0  0  0  0  0  0  0
  -15.0880  -39.8419   -5.9490 O   0  0  0  0  0  0  0  0  0  0  0  0
  -17.3686  -39.8174   -6.3124 C   0  0  0  0  0  0  0  0  0  0  0  0
  -18.5526  -39.0489   -6.1154 N   0  0  0  0  0  0  0  0  0  0  0  0
  -19.4665  -39.7516   -5.2095 C   0  0  0  0  0  0  0  0  0  0  0  0
  -18.9025  -40.4362   -4.0417 C   0  0  0  0  0  0  0  0  0  0  0  0
  -19.4128  -39.0880   -3.7907 C   0  0  0  0  0  0  0  0  0  0  0  0
  -20.8635  -39.9359   -5.6719 C   0  0  0  0  0  0  0  0  0  0  0  0
  -21.2064  -39.5928   -6.9554 C   0  0  0  0  0  0  0  0  0  0  0  0
  -22.5203  -39.7474   -7.4160 C   0  0  0  0  0  0  0  0  0  0  0  0
  -23.4739  -40.2471   -6.5721 C   0  0  0  0  0  0  0  0  0  0  0  0
  -23.0999  -40.5822   -5.2906 C   0  0  0  0  0  0  0  0  0  0  0  0
  -21.8321  -40.4194   -4.8882 N   0  0  0  0  0  0  0  0  0  0  0  0
  -22.8939  -39.3896   -8.8083 C   0  0  0  0  0  0  0  0  0  0  0  0
  -22.6459  -37.9114   -9.0042 C   0  0  0  0  0  0  0  0  0  0  0  0
  -22.0301  -40.1570   -9.7590 C   0  0  0  0  0  0  0  0  0  0  0  0
  -24.3452  -39.6930   -9.0937 C   0  0  0  0  0  0  0  0  0  0  0  0
  -17.8346  -45.0801   -9.4766 C   0  0  0  0  0  0  0  0  0  0  0  0
  -17.0110  -45.7056   -8.6678 O   0  0  0  0  0  0  0  0  0  0  0  0
  -19.0242  -45.7184   -9.6834 N   0  0  0  0  0  0  0  0  0  0  0  0
  -20.0449  -45.3948  -10.6183 C   0  0  0  0  0  0  0  0  0  0  0  0
  -19.2983  -46.8941   -8.8254 C   0  0  0  0  0  0  0  0  0  0  0  0
  2  1  1  6
  2  3  1  0
  3  4  1  0
  4  5  1  0
  5  6  1  0
  6  7  1  0
  7  8  1  0
  8  9  1  0
  9 10  1  0
 10 11  1  0
 11 12  1  0
 12 13  2  0
 13 14  1  0
 14 15  2  0
 15 16  1  0
 15 17  1  0
 17 18  2  0
 17 19  1  0
 19 20  1  0
 20 21  1  1
 20 22  1  0
 22 23  1  1
 22 24  1  0
 24 25  1  0
 25 26  1  0
 26 27  1  0
 27 28  1  0
 26 29  1  0
 29 30  2  0
 30 31  1  0
 31 32  2  0
 32 33  1  0
 33 34  2  0
 31 35  1  0
 35 36  1  0
 35 37  1  0
 35 38  1  0
 13 39  1  0
 39 40  2  0
 39 41  1  0
 41 42  1  0
 41 43  1  0
 16 11  2  0
 21  2  1  0
 28 26  1  0
 34 29  1  0
M  END
$$$$
