
     RDKit          3D

 36 37  0  0  0  0  0  0  0  0999 V2000
  -11.2678  -34.9105  -12.6929 C   0  0  0  0  0  0  0  0  0  0  0  0
  -12.5563  -34.9457  -11.8688 C   0  0  0  0  0  0  0  0  0  0  0  0
  -12.3520  -35.8643  -10.6757 C   0  0  0  0  0  0  0  0  0  0  0  0
  -12.5748  -37.2683  -11.1754 C   0  0  0  0  0  0  0  0  0  0  0  0
  -12.4649  -38.2807  -10.1771 N   0  0  0  0  0  0  0  0  0  0  0  0
  -13.3569  -39.3812  -10.1189 C   0  0  0  0  0  0  0  0  0  0  0  0
  -13.8595  -39.7760  -11.2007 O   0  0  0  0  0  0  0  0  0  0  0  0
  -13.6849  -40.0493   -8.7969 C   0  0  2  0  0  0  0  0  0  0  0  0
  -13.0395  -41.4442   -8.8204 C   0  0  0  0  0  0  0  0  0  0  0  0
  -15.1461  -40.1553   -8.7381 C   0  0  0  0  0  0  0  0  0  0  0  0
  -15.9456  -39.0265   -8.1383 C   0  0  2  0  0  0  0  0  0  0  0  0
  -15.8907  -39.4662   -6.7120 O   0  0  0  0  0  0  0  0  0  0  0  0
  -17.4204  -39.1142   -8.3486 C   0  0  2  0  0  0  0  0  0  0  0  0
  -18.3300  -38.0372   -7.9417 C   0  0  0  0  0  0  0  0  0  0  0  0
  -19.7727  -38.1838   -8.2703 C   0  0  0  0  0  0  0  0  0  0  0  0
  -20.7086  -38.0515   -7.2784 C   0  0  0  0  0  0  0  0  0  0  0  0
  -22.0392  -38.2064   -7.5431 C   0  0  0  0  0  0  0  0  0  0  0  0
  -22.4933  -38.5031   -8.8230 C   0  0  0  0  0  0  0  0  0  0  0  0
  -21.5279  -38.6307   -9.7989 C   0  0  0  0  0  0  0  0  0  0  0  0
  -20.1909  -38.4754   -9.5321 C   0  0  0  0  0  0  0  0  0  0  0  0
  -17.9150  -40.3810   -7.7312 N   0  0  0  0  0  0  0  0  0  0  0  0
  -18.3116  -41.4973   -8.4777 C   0  0  0  0  0  0  0  0  0  0  0  0
  -17.9985  -41.5154   -9.6931 O   0  0  0  0  0  0  0  0  0  0  0  0
  -19.0549  -42.6327   -7.9519 C   0  0  0  0  0  0  0  0  0  0  0  0
  -20.0064  -42.5039   -6.9720 C   0  0  0  0  0  0  0  0  0  0  0  0
  -20.7206  -43.5831   -6.4690 C   0  0  0  0  0  0  0  0  0  0  0  0
  -21.7183  -43.4088   -5.4812 N   0  0  0  0  0  0  0  0  0  0  0  0
  -21.6325  -42.4427   -4.4372 C   0  0  0  0  0  0  0  0  0  0  0  0
  -22.1992  -41.0916   -4.7187 C   0  0  0  0  0  0  0  0  0  0  0  0
  -22.0432  -40.0539   -3.6614 C   0  0  0  0  0  0  0  0  0  0  0  0
  -23.4420  -39.4636   -3.4304 C   0  0  0  0  0  0  0  0  0  0  0  0
  -20.4258  -44.7801   -7.0011 N   0  0  0  0  0  0  0  0  0  0  0  0
  -19.5188  -45.0019   -7.9543 C   0  0  0  0  0  0  0  0  0  0  0  0
  -18.8262  -43.9021   -8.4319 C   0  0  0  0  0  0  0  0  0  0  0  0
  -19.3181  -46.2855   -8.4087 O   0  0  0  0  0  0  0  0  0  0  0  0
  -20.3908  -46.9750   -9.0077 C   0  0  0  0  0  0  0  0  0  0  0  0
  1  2  1  0
  2  3  1  0
  3  4  1  0
  4  5  1  0
  5  6  1  0
  6  7  2  0
  6  8  1  0
  8  9  1  6
  8 10  1  0
 10 11  1  0
 11 12  1  1
 11 13  1  0
 13 14  1  1
 14 15  1  0
 15 16  2  0
 16 17  1  0
 17 18  2  0
 18 19  1  0
 19 20  2  0
 13 21  1  0
 21 22  1  0
 22 23  2  0
 22 24  1  0
 24 25  2  0
 25 26  1  0
 26 27  1  0
 27 28  1  0
 28 29  1  0
 29 30  1  0
 30 31  1  0
 26 32  2  0
 32 33  1  0
 33 34  2  0
 33 35  1  0
 35 36  1  0
 20 15  1  0
 34 24  1  0
M  END
$$$$
