
     RDKit          3D

 36 37  0  0  0  0  0  0  0  0999 V2000
  -22.8251  -48.0372  -10.9964 C   0  0  0  0  0  0  0  0  0  0  0  0
  -22.0143  -49.3164  -10.7805 C   0  0  0  0  0  0  0  0  0  0  0  0
  -20.8012  -48.9913   -9.9251 C   0  0  0  0  0  0  0  0  0  0  0  0
  -19.7292  -48.5126  -10.8698 C   0  0  0  0  0  0  0  0  0  0  0  0
  -18.4770  -48.2222  -10.2524 N   0  0  0  0  0  0  0  0  0  0  0  0
  -18.3120  -47.1334   -9.3594 C   0  0  0  0  0  0  0  0  0  0  0  0
  -19.1215  -47.0422   -8.4028 O   0  0  0  0  0  0  0  0  0  0  0  0
  -17.1979  -46.1232   -9.5598 C   0  0  2  0  0  0  0  0  0  0  0  0
  -16.1311  -46.4054   -8.4897 C   0  0  0  0  0  0  0  0  0  0  0  0
  -17.7974  -44.8005   -9.3578 C   0  0  0  0  0  0  0  0  0  0  0  0
  -17.9745  -43.8808  -10.5394 C   0  0  2  0  0  0  0  0  0  0  0  0
  -16.8613  -42.9327  -10.2352 O   0  0  0  0  0  0  0  0  0  0  0  0
  -19.1202  -42.9303  -10.4352 C   0  0  2  0  0  0  0  0  0  0  0  0
  -19.4114  -41.9449  -11.4826 C   0  0  0  0  0  0  0  0  0  0  0  0
  -20.3390  -40.8310  -11.1511 C   0  0  0  0  0  0  0  0  0  0  0  0
  -21.4278  -41.0725  -10.3551 C   0  0  0  0  0  0  0  0  0  0  0  0
  -22.3123  -40.0767  -10.0541 C   0  0  0  0  0  0  0  0  0  0  0  0
  -22.1432  -38.7859  -10.5416 C   0  0  0  0  0  0  0  0  0  0  0  0
  -21.0392  -38.5748  -11.3400 C   0  0  0  0  0  0  0  0  0  0  0  0
  -20.1510  -39.5759  -11.6424 C   0  0  0  0  0  0  0  0  0  0  0  0
  -19.0125  -42.1948   -9.1399 N   0  0  0  0  0  0  0  0  0  0  0  0
  -19.7769  -42.5104   -8.0098 C   0  0  0  0  0  0  0  0  0  0  0  0
  -20.6000  -43.4518   -8.1186 O   0  0  0  0  0  0  0  0  0  0  0  0
  -19.6877  -41.8326   -6.7251 C   0  0  0  0  0  0  0  0  0  0  0  0
  -19.2529  -40.5373   -6.6009 C   0  0  0  0  0  0  0  0  0  0  0  0
  -19.1688  -39.8849   -5.3783 C   0  0  0  0  0  0  0  0  0  0  0  0
  -18.7468  -38.5374   -5.2911 N   0  0  0  0  0  0  0  0  0  0  0  0
  -18.2823  -37.7837   -6.4077 C   0  0  0  0  0  0  0  0  0  0  0  0
  -19.3030  -37.0082   -7.1711 C   0  0  0  0  0  0  0  0  0  0  0  0
  -20.7207  -37.4503   -7.0556 C   0  0  0  0  0  0  0  0  0  0  0  0
  -21.4959  -36.6934   -8.1439 C   0  0  0  0  0  0  0  0  0  0  0  0
  -19.5416  -40.6008   -4.3053 N   0  0  0  0  0  0  0  0  0  0  0  0
  -19.9761  -41.8621   -4.3284 C   0  0  0  0  0  0  0  0  0  0  0  0
  -20.0469  -42.4806   -5.5653 C   0  0  0  0  0  0  0  0  0  0  0  0
  -20.3260  -42.4767   -3.1476 O   0  0  0  0  0  0  0  0  0  0  0  0
  -20.3616  -41.7141   -1.9635 C   0  0  0  0  0  0  0  0  0  0  0  0
  1  2  1  0
  2  3  1  0
  3  4  1  0
  4  5  1  0
  5  6  1  0
  6  7  2  0
  6  8  1  0
  8  9  1  1
  8 10  1  0
 10 11  1  0
 11 12  1  1
 11 13  1  0
 13 14  1  6
 14 15  1  0
 15 16  2  0
 16 17  1  0
 17 18  2  0
 18 19  1  0
 19 20  2  0
 13 21  1  0
 21 22  1  0
 22 23  2  0
 22 24  1  0
 24 25  2  0
 25 26  1  0
 26 27  1  0
 27 28  1  0
 28 29  1  0
 29 30  1  0
 30 31  1  0
 26 32  2  0
 32 33  1  0
 33 34  2  0
 33 35  1  0
 35 36  1  0
 20 15  1  0
 34 24  1  0
M  END
$$$$
