
     RDKit          3D

 36 37  0  0  0  0  0  0  0  0999 V2000
  -13.1656  -34.5120  -12.8709 C   0  0  0  0  0  0  0  0  0  0  0  0
  -12.7614  -35.9875  -12.8741 C   0  0  0  0  0  0  0  0  0  0  0  0
  -12.7837  -36.5066  -11.4462 C   0  0  0  0  0  0  0  0  0  0  0  0
  -12.4077  -37.9641  -11.5163 C   0  0  0  0  0  0  0  0  0  0  0  0
  -12.4364  -38.6479  -10.2653 N   0  0  0  0  0  0  0  0  0  0  0  0
  -13.4771  -39.5477   -9.9224 C   0  0  0  0  0  0  0  0  0  0  0  0
  -14.2493  -39.9165  -10.8423 O   0  0  0  0  0  0  0  0  0  0  0  0
  -13.6430  -40.0403   -8.4970 C   0  0  2  0  0  0  0  0  0  0  0  0
  -12.8165  -41.3295   -8.3629 C   0  0  0  0  0  0  0  0  0  0  0  0
  -15.0714  -40.3196   -8.3193 C   0  0  0  0  0  0  0  0  0  0  0  0
  -15.9381  -39.3136   -7.6054 C   0  0  2  0  0  0  0  0  0  0  0  0
  -15.9949  -39.9923   -6.2762 O   0  0  0  0  0  0  0  0  0  0  0  0
  -17.3884  -39.3682   -7.9529 C   0  0  2  0  0  0  0  0  0  0  0  0
  -18.3006  -38.2563   -7.6626 C   0  0  0  0  0  0  0  0  0  0  0  0
  -19.7022  -38.3616   -8.1478 C   0  0  0  0  0  0  0  0  0  0  0  0
  -20.7369  -38.2100   -7.2625 C   0  0  0  0  0  0  0  0  0  0  0  0
  -22.0343  -38.3270   -7.6720 C   0  0  0  0  0  0  0  0  0  0  0  0
  -22.3537  -38.6034   -8.9964 C   0  0  0  0  0  0  0  0  0  0  0  0
  -21.2912  -38.7512   -9.8624 C   0  0  0  0  0  0  0  0  0  0  0  0
  -19.9877  -38.6339   -9.4502 C   0  0  0  0  0  0  0  0  0  0  0  0
  -17.9757  -40.6032   -7.3528 N   0  0  0  0  0  0  0  0  0  0  0  0
  -18.4169  -41.6934   -8.1128 C   0  0  0  0  0  0  0  0  0  0  0  0
  -18.1092  -41.7064   -9.3296 O   0  0  0  0  0  0  0  0  0  0  0  0
  -19.2006  -42.8071   -7.5995 C   0  0  0  0  0  0  0  0  0  0  0  0
  -20.0621  -42.6787   -6.5395 C   0  0  0  0  0  0  0  0  0  0  0  0
  -20.8144  -43.7370   -6.0477 C   0  0  0  0  0  0  0  0  0  0  0  0
  -21.7178  -43.5606   -4.9735 N   0  0  0  0  0  0  0  0  0  0  0  0
  -21.6065  -42.5121   -4.0149 C   0  0  0  0  0  0  0  0  0  0  0  0
  -22.3145  -41.2358   -4.3243 C   0  0  0  0  0  0  0  0  0  0  0  0
  -22.0934  -40.0921   -3.3959 C   0  0  0  0  0  0  0  0  0  0  0  0
  -22.8769  -38.9077   -3.9805 C   0  0  0  0  0  0  0  0  0  0  0  0
  -20.6512  -44.9130   -6.6747 N   0  0  0  0  0  0  0  0  0  0  0  0
  -19.8388  -45.1328   -7.7102 C   0  0  0  0  0  0  0  0  0  0  0  0
  -19.1045  -44.0542   -8.1736 C   0  0  0  0  0  0  0  0  0  0  0  0
  -19.7698  -46.3937   -8.2576 O   0  0  0  0  0  0  0  0  0  0  0  0
  -19.6134  -47.5030   -7.4032 C   0  0  0  0  0  0  0  0  0  0  0  0
  1  2  1  0
  2  3  1  0
  3  4  1  0
  4  5  1  0
  5  6  1  0
  6  7  2  0
  6  8  1  0
  8  9  1  6
  8 10  1  0
 10 11  1  0
 11 12  1  1
 11 13  1  0
 13 14  1  1
 14 15  1  0
 15 16  2  0
 16 17  1  0
 17 18  2  0
 18 19  1  0
 19 20  2  0
 13 21  1  0
 21 22  1  0
 22 23  2  0
 22 24  1  0
 24 25  2  0
 25 26  1  0
 26 27  1  0
 27 28  1  0
 28 29  1  0
 29 30  1  0
 30 31  1  0
 26 32  2  0
 32 33  1  0
 33 34  2  0
 33 35  1  0
 35 36  1  0
 20 15  1  0
 34 24  1  0
M  END
$$$$
