
     RDKit          3D

 36 37  0  0  0  0  0  0  0  0999 V2000
   -9.5972  -36.0279  -10.9671 C   0  0  0  0  0  0  0  0  0  0  0  0
  -11.0342  -35.9689  -10.4455 C   0  0  0  0  0  0  0  0  0  0  0  0
  -11.9850  -36.2920  -11.5860 C   0  0  0  0  0  0  0  0  0  0  0  0
  -12.4835  -37.6929  -11.3418 C   0  0  0  0  0  0  0  0  0  0  0  0
  -13.4071  -37.8172  -10.2625 N   0  0  0  0  0  0  0  0  0  0  0  0
  -13.9974  -39.0587   -9.9154 C   0  0  0  0  0  0  0  0  0  0  0  0
  -14.7641  -39.5900  -10.7572 O   0  0  0  0  0  0  0  0  0  0  0  0
  -13.7077  -39.7122   -8.5771 C   0  0  2  0  0  0  0  0  0  0  0  0
  -12.8863  -40.9805   -8.8594 C   0  0  0  0  0  0  0  0  0  0  0  0
  -15.0085  -40.0562   -7.9944 C   0  0  0  0  0  0  0  0  0  0  0  0
  -15.9345  -38.9525   -7.5499 C   0  0  2  0  0  0  0  0  0  0  0  0
  -16.2529  -39.4816   -6.1900 O   0  0  0  0  0  0  0  0  0  0  0  0
  -17.3041  -38.9994   -8.1406 C   0  0  2  0  0  0  0  0  0  0  0  0
  -18.2843  -37.9304   -7.9186 C   0  0  0  0  0  0  0  0  0  0  0  0
  -19.7158  -38.2333   -8.1836 C   0  0  0  0  0  0  0  0  0  0  0  0
  -20.5447  -38.5472   -7.1387 C   0  0  0  0  0  0  0  0  0  0  0  0
  -21.8576  -38.8557   -7.3521 C   0  0  0  0  0  0  0  0  0  0  0  0
  -22.4012  -38.8633   -8.6315 C   0  0  0  0  0  0  0  0  0  0  0  0
  -21.5422  -38.5441   -9.6615 C   0  0  0  0  0  0  0  0  0  0  0  0
  -20.2228  -38.2347   -9.4465 C   0  0  0  0  0  0  0  0  0  0  0  0
  -17.9468  -40.2900   -7.7513 N   0  0  0  0  0  0  0  0  0  0  0  0
  -18.3513  -41.2587   -8.6779 C   0  0  0  0  0  0  0  0  0  0  0  0
  -18.1021  -41.0348   -9.8876 O   0  0  0  0  0  0  0  0  0  0  0  0
  -19.0346  -42.4997   -8.3447 C   0  0  0  0  0  0  0  0  0  0  0  0
  -20.1674  -42.5357   -7.5717 C   0  0  0  0  0  0  0  0  0  0  0  0
  -20.8250  -43.7163   -7.2533 C   0  0  0  0  0  0  0  0  0  0  0  0
  -22.0100  -43.7129   -6.4805 N   0  0  0  0  0  0  0  0  0  0  0  0
  -22.5398  -42.5466   -5.8563 C   0  0  0  0  0  0  0  0  0  0  0  0
  -21.9353  -42.1439   -4.5531 C   0  0  0  0  0  0  0  0  0  0  0  0
  -22.3791  -40.8478   -3.9682 C   0  0  0  0  0  0  0  0  0  0  0  0
  -21.5132  -40.6218   -2.7202 C   0  0  0  0  0  0  0  0  0  0  0  0
  -20.2843  -44.8404   -7.7501 N   0  0  0  0  0  0  0  0  0  0  0  0
  -19.1884  -44.9034   -8.5086 C   0  0  0  0  0  0  0  0  0  0  0  0
  -18.5593  -43.7062   -8.8058 C   0  0  0  0  0  0  0  0  0  0  0  0
  -18.7436  -46.1286   -8.9507 O   0  0  0  0  0  0  0  0  0  0  0  0
  -19.5559  -47.2629   -8.7549 C   0  0  0  0  0  0  0  0  0  0  0  0
  1  2  1  0
  2  3  1  0
  3  4  1  0
  4  5  1  0
  5  6  1  0
  6  7  2  0
  6  8  1  0
  8  9  1  6
  8 10  1  0
 10 11  1  0
 11 12  1  1
 11 13  1  0
 13 14  1  1
 14 15  1  0
 15 16  2  0
 16 17  1  0
 17 18  2  0
 18 19  1  0
 19 20  2  0
 13 21  1  0
 21 22  1  0
 22 23  2  0
 22 24  1  0
 24 25  2  0
 25 26  1  0
 26 27  1  0
 27 28  1  0
 28 29  1  0
 29 30  1  0
 30 31  1  0
 26 32  2  0
 32 33  1  0
 33 34  2  0
 33 35  1  0
 35 36  1  0
 20 15  1  0
 34 24  1  0
M  END
$$$$
