
     RDKit          3D

 36 37  0  0  0  0  0  0  0  0999 V2000
  -13.8277  -35.5941  -13.7180 C   0  0  0  0  0  0  0  0  0  0  0  0
  -12.6500  -36.3212  -13.0664 C   0  0  0  0  0  0  0  0  0  0  0  0
  -13.1888  -37.3592  -12.0962 C   0  0  0  0  0  0  0  0  0  0  0  0
  -11.9887  -38.0146  -11.4630 C   0  0  0  0  0  0  0  0  0  0  0  0
  -12.2283  -38.5803  -10.1762 N   0  0  0  0  0  0  0  0  0  0  0  0
  -13.1956  -39.5958   -9.9679 C   0  0  0  0  0  0  0  0  0  0  0  0
  -13.7899  -40.0447  -10.9799 O   0  0  0  0  0  0  0  0  0  0  0  0
  -13.4940  -40.1136   -8.5734 C   0  0  2  0  0  0  0  0  0  0  0  0
  -12.3603  -41.0805   -8.1957 C   0  0  0  0  0  0  0  0  0  0  0  0
  -14.7736  -40.8241   -8.6608 C   0  0  0  0  0  0  0  0  0  0  0  0
  -16.0307  -40.1448   -8.1798 C   0  0  2  0  0  0  0  0  0  0  0  0
  -15.9512  -40.5499   -6.7444 O   0  0  0  0  0  0  0  0  0  0  0  0
  -17.3022  -40.8363   -8.5431 C   0  0  2  0  0  0  0  0  0  0  0  0
  -18.6049  -40.3832   -8.0426 C   0  0  0  0  0  0  0  0  0  0  0  0
  -19.8241  -40.8484   -8.7555 C   0  0  0  0  0  0  0  0  0  0  0  0
  -20.9022  -41.2888   -8.0338 C   0  0  0  0  0  0  0  0  0  0  0  0
  -22.0263  -41.7468   -8.6593 C   0  0  0  0  0  0  0  0  0  0  0  0
  -22.1195  -41.7839  -10.0458 C   0  0  0  0  0  0  0  0  0  0  0  0
  -21.0185  -41.3352  -10.7437 C   0  0  0  0  0  0  0  0  0  0  0  0
  -19.8891  -40.8755  -10.1146 C   0  0  0  0  0  0  0  0  0  0  0  0
  -17.1686  -42.2856   -8.2085 N   0  0  0  0  0  0  0  0  0  0  0  0
  -18.2240  -43.2000   -8.3127 C   0  0  0  0  0  0  0  0  0  0  0  0
  -17.9444  -44.3551   -8.7166 O   0  0  0  0  0  0  0  0  0  0  0  0
  -19.6133  -42.9128   -7.9884 C   0  0  0  0  0  0  0  0  0  0  0  0
  -20.0378  -41.6711   -7.5881 C   0  0  0  0  0  0  0  0  0  0  0  0
  -21.3624  -41.3908   -7.2805 C   0  0  0  0  0  0  0  0  0  0  0  0
  -21.7703  -40.0900   -6.9025 N   0  0  0  0  0  0  0  0  0  0  0  0
  -21.0586  -38.9074   -7.2567 C   0  0  0  0  0  0  0  0  0  0  0  0
  -20.3746  -38.1740   -6.1521 C   0  0  0  0  0  0  0  0  0  0  0  0
  -21.2329  -37.3855   -5.2244 C   0  0  0  0  0  0  0  0  0  0  0  0
  -20.3596  -37.0614   -4.0036 C   0  0  0  0  0  0  0  0  0  0  0  0
  -22.2207  -42.4168   -7.3970 N   0  0  0  0  0  0  0  0  0  0  0  0
  -21.9009  -43.6550   -7.7775 C   0  0  0  0  0  0  0  0  0  0  0  0
  -20.5708  -43.8975   -8.0765 C   0  0  0  0  0  0  0  0  0  0  0  0
  -22.8863  -44.6130   -7.8535 O   0  0  0  0  0  0  0  0  0  0  0  0
  -23.6491  -44.9027   -6.7050 C   0  0  0  0  0  0  0  0  0  0  0  0
  1  2  1  0
  2  3  1  0
  3  4  1  0
  4  5  1  0
  5  6  1  0
  6  7  2  0
  6  8  1  0
  8  9  1  6
  8 10  1  0
 10 11  1  0
 11 12  1  1
 11 13  1  0
 13 14  1  1
 14 15  1  0
 15 16  2  0
 16 17  1  0
 17 18  2  0
 18 19  1  0
 19 20  2  0
 13 21  1  0
 21 22  1  0
 22 23  2  0
 22 24  1  0
 24 25  2  0
 25 26  1  0
 26 27  1  0
 27 28  1  0
 28 29  1  0
 29 30  1  0
 30 31  1  0
 26 32  2  0
 32 33  1  0
 33 34  2  0
 33 35  1  0
 35 36  1  0
 20 15  1  0
 34 24  1  0
M  END
$$$$
