
     RDKit          3D

 36 37  0  0  0  0  0  0  0  0999 V2000
  -13.6820  -34.8308  -13.1122 C   0  0  0  0  0  0  0  0  0  0  0  0
  -12.6141  -35.9150  -12.9555 C   0  0  0  0  0  0  0  0  0  0  0  0
  -13.2987  -37.2433  -12.6796 C   0  0  0  0  0  0  0  0  0  0  0  0
  -12.3722  -38.0224  -11.7823 C   0  0  0  0  0  0  0  0  0  0  0  0
  -12.8028  -39.3499  -11.4894 N   0  0  0  0  0  0  0  0  0  0  0  0
  -13.5540  -39.6590  -10.3274 C   0  0  0  0  0  0  0  0  0  0  0  0
  -14.4153  -40.5691  -10.4207 O   0  0  0  0  0  0  0  0  0  0  0  0
  -13.3193  -38.9141   -9.0267 C   0  0  2  0  0  0  0  0  0  0  0  0
  -12.8540  -39.9481   -7.9888 C   0  0  0  0  0  0  0  0  0  0  0  0
  -14.6111  -38.3377   -8.6410 C   0  0  0  0  0  0  0  0  0  0  0  0
  -15.2879  -38.8168   -7.3818 C   0  0  2  0  0  0  0  0  0  0  0  0
  -14.7604  -40.2140   -7.3794 O   0  0  0  0  0  0  0  0  0  0  0  0
  -16.7422  -39.1210   -7.5216 C   0  0  2  0  0  0  0  0  0  0  0  0
  -17.7274  -38.6864   -6.5250 C   0  0  0  0  0  0  0  0  0  0  0  0
  -19.1275  -38.4729   -6.9781 C   0  0  0  0  0  0  0  0  0  0  0  0
  -20.0973  -38.1734   -6.0577 C   0  0  0  0  0  0  0  0  0  0  0  0
  -21.3967  -37.9974   -6.4388 C   0  0  0  0  0  0  0  0  0  0  0  0
  -21.7837  -38.1151   -7.7687 C   0  0  0  0  0  0  0  0  0  0  0  0
  -20.7857  -38.4178   -8.6704 C   0  0  0  0  0  0  0  0  0  0  0  0
  -19.4802  -38.5950   -8.2867 C   0  0  0  0  0  0  0  0  0  0  0  0
  -16.9050  -40.5940   -7.7058 N   0  0  0  0  0  0  0  0  0  0  0  0
  -17.9247  -41.1652   -8.4771 C   0  0  0  0  0  0  0  0  0  0  0  0
  -18.1654  -40.6382   -9.5906 O   0  0  0  0  0  0  0  0  0  0  0  0
  -18.7213  -42.3188   -8.0864 C   0  0  0  0  0  0  0  0  0  0  0  0
  -19.7934  -42.2233   -7.2357 C   0  0  0  0  0  0  0  0  0  0  0  0
  -20.5587  -43.3199   -6.8622 C   0  0  0  0  0  0  0  0  0  0  0  0
  -21.6780  -43.1793   -6.0084 N   0  0  0  0  0  0  0  0  0  0  0  0
  -21.9966  -41.9731   -5.3198 C   0  0  0  0  0  0  0  0  0  0  0  0
  -23.2026  -41.9948   -4.4417 C   0  0  0  0  0  0  0  0  0  0  0  0
  -23.2312  -41.0380   -3.3004 C   0  0  0  0  0  0  0  0  0  0  0  0
  -23.1913  -41.8915   -2.0244 C   0  0  0  0  0  0  0  0  0  0  0  0
  -20.1876  -44.4991   -7.3861 N   0  0  0  0  0  0  0  0  0  0  0  0
  -19.1624  -44.6886   -8.2188 C   0  0  0  0  0  0  0  0  0  0  0  0
  -18.4220  -43.5722   -8.5694 C   0  0  0  0  0  0  0  0  0  0  0  0
  -18.8941  -45.9572   -8.6806 O   0  0  0  0  0  0  0  0  0  0  0  0
  -19.9093  -46.9327   -8.6303 C   0  0  0  0  0  0  0  0  0  0  0  0
  1  2  1  0
  2  3  1  0
  3  4  1  0
  4  5  1  0
  5  6  1  0
  6  7  2  0
  6  8  1  0
  8  9  1  1
  8 10  1  0
 10 11  1  0
 11 12  1  6
 11 13  1  0
 13 14  1  1
 14 15  1  0
 15 16  2  0
 16 17  1  0
 17 18  2  0
 18 19  1  0
 19 20  2  0
 13 21  1  0
 21 22  1  0
 22 23  2  0
 22 24  1  0
 24 25  2  0
 25 26  1  0
 26 27  1  0
 27 28  1  0
 28 29  1  0
 29 30  1  0
 30 31  1  0
 26 32  2  0
 32 33  1  0
 33 34  2  0
 33 35  1  0
 35 36  1  0
 20 15  1  0
 34 24  1  0
M  END
$$$$
