
     RDKit          3D

 36 37  0  0  0  0  0  0  0  0999 V2000
  -11.2061  -34.7019  -11.8522 C   0  0  0  0  0  0  0  0  0  0  0  0
  -10.3720  -35.9781  -11.9795 C   0  0  0  0  0  0  0  0  0  0  0  0
  -10.5402  -36.8037  -10.7149 C   0  0  0  0  0  0  0  0  0  0  0  0
  -11.9720  -37.2730  -10.6993 C   0  0  0  0  0  0  0  0  0  0  0  0
  -12.3215  -38.0833   -9.5791 N   0  0  0  0  0  0  0  0  0  0  0  0
  -13.1076  -39.2556   -9.7134 C   0  0  0  0  0  0  0  0  0  0  0  0
  -13.5389  -39.5345  -10.8601 O   0  0  0  0  0  0  0  0  0  0  0  0
  -13.4103  -40.1325   -8.5129 C   0  0  2  0  0  0  0  0  0  0  0  0
  -12.7339  -41.4904   -8.7603 C   0  0  0  0  0  0  0  0  0  0  0  0
  -14.8683  -40.2807   -8.4658 C   0  0  0  0  0  0  0  0  0  0  0  0
  -15.7177  -39.1062   -8.0510 C   0  0  2  0  0  0  0  0  0  0  0  0
  -15.5148  -39.2121   -6.5751 O   0  0  0  0  0  0  0  0  0  0  0  0
  -17.1904  -39.3427   -8.0974 C   0  0  2  0  0  0  0  0  0  0  0  0
  -18.1364  -38.5098   -7.3463 C   0  0  0  0  0  0  0  0  0  0  0  0
  -19.5830  -38.6398   -7.6652 C   0  0  0  0  0  0  0  0  0  0  0  0
  -20.0293  -38.3214   -8.9208 C   0  0  0  0  0  0  0  0  0  0  0  0
  -21.3551  -38.4051   -9.2370 C   0  0  0  0  0  0  0  0  0  0  0  0
  -22.2984  -38.8143   -8.3016 C   0  0  0  0  0  0  0  0  0  0  0  0
  -21.8185  -39.1268   -7.0474 C   0  0  0  0  0  0  0  0  0  0  0  0
  -20.4863  -39.0421   -6.7302 C   0  0  0  0  0  0  0  0  0  0  0  0
  -17.4557  -40.7670   -7.7353 N   0  0  0  0  0  0  0  0  0  0  0  0
  -18.1360  -41.6601   -8.5722 C   0  0  0  0  0  0  0  0  0  0  0  0
  -18.1873  -41.3758   -9.7937 O   0  0  0  0  0  0  0  0  0  0  0  0
  -18.7835  -42.8875   -8.1339 C   0  0  0  0  0  0  0  0  0  0  0  0
  -19.8813  -42.8914   -7.3110 C   0  0  0  0  0  0  0  0  0  0  0  0
  -20.5048  -44.0591   -6.8923 C   0  0  0  0  0  0  0  0  0  0  0  0
  -21.6554  -44.0244   -6.0698 N   0  0  0  0  0  0  0  0  0  0  0  0
  -21.9351  -42.9718   -5.1509 C   0  0  0  0  0  0  0  0  0  0  0  0
  -23.0939  -43.1674   -4.2318 C   0  0  0  0  0  0  0  0  0  0  0  0
  -23.3714  -42.0857   -3.2461 C   0  0  0  0  0  0  0  0  0  0  0  0
  -22.8931  -40.7796   -3.8969 C   0  0  0  0  0  0  0  0  0  0  0  0
  -19.9673  -45.2042   -7.3426 N   0  0  0  0  0  0  0  0  0  0  0  0
  -18.9041  -45.2987   -8.1432 C   0  0  0  0  0  0  0  0  0  0  0  0
  -18.3085  -44.1135   -8.5406 C   0  0  0  0  0  0  0  0  0  0  0  0
  -18.4584  -46.5426   -8.5285 O   0  0  0  0  0  0  0  0  0  0  0  0
  -19.3835  -47.6004   -8.6282 C   0  0  0  0  0  0  0  0  0  0  0  0
  1  2  1  0
  2  3  1  0
  3  4  1  0
  4  5  1  0
  5  6  1  0
  6  7  2  0
  6  8  1  0
  8  9  1  6
  8 10  1  0
 10 11  1  0
 11 12  1  1
 11 13  1  0
 13 14  1  1
 14 15  1  0
 15 16  2  0
 16 17  1  0
 17 18  2  0
 18 19  1  0
 19 20  2  0
 13 21  1  0
 21 22  1  0
 22 23  2  0
 22 24  1  0
 24 25  2  0
 25 26  1  0
 26 27  1  0
 27 28  1  0
 28 29  1  0
 29 30  1  0
 30 31  1  0
 26 32  2  0
 32 33  1  0
 33 34  2  0
 33 35  1  0
 35 36  1  0
 20 15  1  0
 34 24  1  0
M  END
$$$$
