
     RDKit          3D

 36 37  0  0  0  0  0  0  0  0999 V2000
  -10.4711  -36.9684  -13.9902 C   0  0  0  0  0  0  0  0  0  0  0  0
  -11.7207  -36.5389  -13.2192 C   0  0  0  0  0  0  0  0  0  0  0  0
  -11.7001  -37.1909  -11.8468 C   0  0  0  0  0  0  0  0  0  0  0  0
  -12.9905  -36.8043  -11.1714 C   0  0  0  0  0  0  0  0  0  0  0  0
  -13.1267  -37.2750   -9.8323 N   0  0  0  0  0  0  0  0  0  0  0  0
  -13.5173  -38.6058   -9.5378 C   0  0  0  0  0  0  0  0  0  0  0  0
  -13.7720  -39.3620  -10.5083 O   0  0  0  0  0  0  0  0  0  0  0  0
  -13.6204  -39.0881   -8.1030 C   0  0  2  0  0  0  0  0  0  0  0  0
  -12.4452  -40.0490   -7.8613 C   0  0  0  0  0  0  0  0  0  0  0  0
  -14.8996  -39.7966   -7.9955 C   0  0  0  0  0  0  0  0  0  0  0  0
  -16.0372  -39.1579   -7.2399 C   0  0  2  0  0  0  0  0  0  0  0  0
  -16.2530  -40.2396   -6.2330 O   0  0  0  0  0  0  0  0  0  0  0  0
  -17.3621  -39.2142   -7.9244 C   0  0  2  0  0  0  0  0  0  0  0  0
  -18.3171  -38.1020   -7.8640 C   0  0  0  0  0  0  0  0  0  0  0  0
  -19.7674  -38.4272   -7.9093 C   0  0  0  0  0  0  0  0  0  0  0  0
  -20.3399  -38.7983   -9.0975 C   0  0  0  0  0  0  0  0  0  0  0  0
  -21.6741  -39.0778   -9.1770 C   0  0  0  0  0  0  0  0  0  0  0  0
  -22.4990  -38.9967   -8.0611 C   0  0  0  0  0  0  0  0  0  0  0  0
  -21.8939  -38.6200   -6.8809 C   0  0  0  0  0  0  0  0  0  0  0  0
  -20.5532  -38.3389   -6.8017 C   0  0  0  0  0  0  0  0  0  0  0  0
  -18.0762  -40.4479   -7.4790 N   0  0  0  0  0  0  0  0  0  0  0  0
  -18.2310  -41.5815   -8.2863 C   0  0  0  0  0  0  0  0  0  0  0  0
  -17.7456  -41.5327   -9.4428 O   0  0  0  0  0  0  0  0  0  0  0  0
  -18.9082  -42.8059   -7.8862 C   0  0  0  0  0  0  0  0  0  0  0  0
  -20.0603  -42.8043   -7.1413 C   0  0  0  0  0  0  0  0  0  0  0  0
  -20.7121  -43.9692   -6.7594 C   0  0  0  0  0  0  0  0  0  0  0  0
  -21.9168  -43.9290   -6.0187 N   0  0  0  0  0  0  0  0  0  0  0  0
  -22.5188  -42.7219   -5.5591 C   0  0  0  0  0  0  0  0  0  0  0  0
  -21.9662  -42.1248   -4.3085 C   0  0  0  0  0  0  0  0  0  0  0  0
  -22.5207  -40.8109   -3.8785 C   0  0  0  0  0  0  0  0  0  0  0  0
  -21.3394  -39.8296   -3.8682 C   0  0  0  0  0  0  0  0  0  0  0  0
  -20.1457  -45.1172   -7.1643 N   0  0  0  0  0  0  0  0  0  0  0  0
  -19.0296  -45.2171   -7.8888 C   0  0  0  0  0  0  0  0  0  0  0  0
  -18.4071  -44.0346   -8.2514 C   0  0  0  0  0  0  0  0  0  0  0  0
  -18.5593  -46.4635   -8.2346 O   0  0  0  0  0  0  0  0  0  0  0  0
  -18.9411  -47.5777   -7.4615 C   0  0  0  0  0  0  0  0  0  0  0  0
  1  2  1  0
  2  3  1  0
  3  4  1  0
  4  5  1  0
  5  6  1  0
  6  7  2  0
  6  8  1  0
  8  9  1  6
  8 10  1  0
 10 11  1  0
 11 12  1  1
 11 13  1  0
 13 14  1  1
 14 15  1  0
 15 16  2  0
 16 17  1  0
 17 18  2  0
 18 19  1  0
 19 20  2  0
 13 21  1  0
 21 22  1  0
 22 23  2  0
 22 24  1  0
 24 25  2  0
 25 26  1  0
 26 27  1  0
 27 28  1  0
 28 29  1  0
 29 30  1  0
 30 31  1  0
 26 32  2  0
 32 33  1  0
 33 34  2  0
 33 35  1  0
 35 36  1  0
 20 15  1  0
 34 24  1  0
M  END
$$$$
