
     RDKit          3D

 36 37  0  0  0  0  0  0  0  0999 V2000
  -11.3304  -40.3475  -15.9951 C   0  0  0  0  0  0  0  0  0  0  0  0
  -12.3436  -41.1411  -15.1680 C   0  0  0  0  0  0  0  0  0  0  0  0
  -13.0498  -40.1928  -14.2136 C   0  0  0  0  0  0  0  0  0  0  0  0
  -12.7064  -40.6552  -12.8211 C   0  0  0  0  0  0  0  0  0  0  0  0
  -13.4468  -40.0184  -11.7820 N   0  0  0  0  0  0  0  0  0  0  0  0
  -13.2916  -40.3756  -10.4188 C   0  0  0  0  0  0  0  0  0  0  0  0
  -12.7671  -41.4897  -10.1689 O   0  0  0  0  0  0  0  0  0  0  0  0
  -13.7442  -39.4416   -9.3121 C   0  0  2  0  0  0  0  0  0  0  0  0
  -12.6384  -39.4330   -8.2444 C   0  0  0  0  0  0  0  0  0  0  0  0
  -14.9825  -40.0106   -8.7711 C   0  0  0  0  0  0  0  0  0  0  0  0
  -15.9098  -39.1340   -7.9682 C   0  0  2  0  0  0  0  0  0  0  0  0
  -15.9970  -39.9867   -6.7451 O   0  0  0  0  0  0  0  0  0  0  0  0
  -17.3425  -39.1812   -8.3831 C   0  0  2  0  0  0  0  0  0  0  0  0
  -18.2272  -38.0173   -8.2595 C   0  0  0  0  0  0  0  0  0  0  0  0
  -19.6950  -38.2557   -8.2627 C   0  0  0  0  0  0  0  0  0  0  0  0
  -20.3490  -38.4596   -7.0761 C   0  0  0  0  0  0  0  0  0  0  0  0
  -21.6916  -38.7070   -7.0479 C   0  0  0  0  0  0  0  0  0  0  0  0
  -22.4428  -38.7617   -8.2162 C   0  0  0  0  0  0  0  0  0  0  0  0
  -21.7563  -38.5535   -9.3935 C   0  0  0  0  0  0  0  0  0  0  0  0
  -20.4071  -38.3053   -9.4213 C   0  0  0  0  0  0  0  0  0  0  0  0
  -18.0023  -40.3264   -7.6876 N   0  0  0  0  0  0  0  0  0  0  0  0
  -18.2340  -41.5661   -8.2960 C   0  0  0  0  0  0  0  0  0  0  0  0
  -17.8370  -41.7081   -9.4782 O   0  0  0  0  0  0  0  0  0  0  0  0
  -18.8965  -42.6966   -7.6628 C   0  0  0  0  0  0  0  0  0  0  0  0
  -19.8922  -42.5435   -6.7314 C   0  0  0  0  0  0  0  0  0  0  0  0
  -20.5297  -43.6184   -6.1265 C   0  0  0  0  0  0  0  0  0  0  0  0
  -21.5755  -43.4234   -5.1939 N   0  0  0  0  0  0  0  0  0  0  0  0
  -21.9487  -42.1458   -4.6848 C   0  0  0  0  0  0  0  0  0  0  0  0
  -23.1257  -42.1009   -3.7692 C   0  0  0  0  0  0  0  0  0  0  0  0
  -23.5525  -40.7625   -3.2739 C   0  0  0  0  0  0  0  0  0  0  0  0
  -25.0691  -40.6844   -3.5021 C   0  0  0  0  0  0  0  0  0  0  0  0
  -20.1129  -44.8366   -6.5073 N   0  0  0  0  0  0  0  0  0  0  0  0
  -19.1546  -45.0828   -7.4025 C   0  0  0  0  0  0  0  0  0  0  0  0
  -18.5414  -43.9866   -7.9852 C   0  0  0  0  0  0  0  0  0  0  0  0
  -18.8272  -46.3864   -7.6987 O   0  0  0  0  0  0  0  0  0  0  0  0
  -19.4940  -47.4293   -7.0259 C   0  0  0  0  0  0  0  0  0  0  0  0
  1  2  1  0
  2  3  1  0
  3  4  1  0
  4  5  1  0
  5  6  1  0
  6  7  2  0
  6  8  1  0
  8  9  1  1
  8 10  1  0
 10 11  1  0
 11 12  1  1
 11 13  1  0
 13 14  1  1
 14 15  1  0
 15 16  2  0
 16 17  1  0
 17 18  2  0
 18 19  1  0
 19 20  2  0
 13 21  1  0
 21 22  1  0
 22 23  2  0
 22 24  1  0
 24 25  2  0
 25 26  1  0
 26 27  1  0
 27 28  1  0
 28 29  1  0
 29 30  1  0
 30 31  1  0
 26 32  2  0
 32 33  1  0
 33 34  2  0
 33 35  1  0
 35 36  1  0
 20 15  1  0
 34 24  1  0
M  END
$$$$
