
     RDKit          3D

 36 37  0  0  0  0  0  0  0  0999 V2000
  -18.8085  -41.1765  -12.1029 C   0  0  0  0  0  0  0  0  0  0  0  0
  -17.7227  -41.8254  -12.9634 C   0  0  0  0  0  0  0  0  0  0  0  0
  -16.5141  -42.1198  -12.0906 C   0  0  0  0  0  0  0  0  0  0  0  0
  -15.5100  -41.0320  -12.3716 C   0  0  0  0  0  0  0  0  0  0  0  0
  -14.2766  -41.1631  -11.6681 N   0  0  0  0  0  0  0  0  0  0  0  0
  -14.1994  -41.0548  -10.2565 C   0  0  0  0  0  0  0  0  0  0  0  0
  -14.3648  -42.1044   -9.5859 O   0  0  0  0  0  0  0  0  0  0  0  0
  -13.9269  -39.7187   -9.5913 C   0  0  2  0  0  0  0  0  0  0  0  0
  -12.4189  -39.4482   -9.7166 C   0  0  0  0  0  0  0  0  0  0  0  0
  -14.3110  -39.8708   -8.1845 C   0  0  0  0  0  0  0  0  0  0  0  0
  -15.3135  -38.9178   -7.5847 C   0  0  2  0  0  0  0  0  0  0  0  0
  -15.2166  -39.3772   -6.1669 O   0  0  0  0  0  0  0  0  0  0  0  0
  -16.7434  -39.2605   -7.8396 C   0  0  2  0  0  0  0  0  0  0  0  0
  -17.8436  -38.4189   -7.3558 C   0  0  0  0  0  0  0  0  0  0  0  0
  -19.2202  -38.7409   -7.8165 C   0  0  0  0  0  0  0  0  0  0  0  0
  -19.5267  -38.6451   -9.1485 C   0  0  0  0  0  0  0  0  0  0  0  0
  -20.7884  -38.9087   -9.5995 C   0  0  0  0  0  0  0  0  0  0  0  0
  -21.8055  -39.2822   -8.7288 C   0  0  0  0  0  0  0  0  0  0  0  0
  -21.4663  -39.3689   -7.3953 C   0  0  0  0  0  0  0  0  0  0  0  0
  -20.1984  -39.1036   -6.9427 C   0  0  0  0  0  0  0  0  0  0  0  0
  -16.9929  -40.6518   -7.3574 N   0  0  0  0  0  0  0  0  0  0  0  0
  -17.6886  -41.6116   -8.1028 C   0  0  0  0  0  0  0  0  0  0  0  0
  -17.8505  -41.3811   -9.3260 O   0  0  0  0  0  0  0  0  0  0  0  0
  -18.2340  -42.8504   -7.5681 C   0  0  0  0  0  0  0  0  0  0  0  0
  -19.3246  -42.8799   -6.7363 C   0  0  0  0  0  0  0  0  0  0  0  0
  -19.8510  -44.0589   -6.2258 C   0  0  0  0  0  0  0  0  0  0  0  0
  -20.9973  -44.0544   -5.3967 N   0  0  0  0  0  0  0  0  0  0  0  0
  -21.5480  -42.8730   -4.8208 C   0  0  0  0  0  0  0  0  0  0  0  0
  -22.7453  -43.0422   -3.9469 C   0  0  0  0  0  0  0  0  0  0  0  0
  -23.2359  -41.8362   -3.2230 C   0  0  0  0  0  0  0  0  0  0  0  0
  -23.7694  -40.8783   -4.2982 C   0  0  0  0  0  0  0  0  0  0  0  0
  -19.2254  -45.1881   -6.5952 N   0  0  0  0  0  0  0  0  0  0  0  0
  -18.1613  -45.2574   -7.3972 C   0  0  0  0  0  0  0  0  0  0  0  0
  -17.6640  -44.0617   -7.8874 C   0  0  0  0  0  0  0  0  0  0  0  0
  -17.6191  -46.4873   -7.6935 O   0  0  0  0  0  0  0  0  0  0  0  0
  -18.4701  -47.6063   -7.7853 C   0  0  0  0  0  0  0  0  0  0  0  0
  1  2  1  0
  2  3  1  0
  3  4  1  0
  4  5  1  0
  5  6  1  0
  6  7  2  0
  6  8  1  0
  8  9  1  1
  8 10  1  0
 10 11  1  0
 11 12  1  1
 11 13  1  0
 13 14  1  1
 14 15  1  0
 15 16  2  0
 16 17  1  0
 17 18  2  0
 18 19  1  0
 19 20  2  0
 13 21  1  0
 21 22  1  0
 22 23  2  0
 22 24  1  0
 24 25  2  0
 25 26  1  0
 26 27  1  0
 27 28  1  0
 28 29  1  0
 29 30  1  0
 30 31  1  0
 26 32  2  0
 32 33  1  0
 33 34  2  0
 33 35  1  0
 35 36  1  0
 20 15  1  0
 34 24  1  0
M  END
$$$$
