
     RDKit          3D

 36 37  0  0  0  0  0  0  0  0999 V2000
  -11.4904  -34.9626   -9.0267 C   0  0  0  0  0  0  0  0  0  0  0  0
  -11.8167  -35.3963  -10.4570 C   0  0  0  0  0  0  0  0  0  0  0  0
  -13.2896  -35.7612  -10.5364 C   0  0  0  0  0  0  0  0  0  0  0  0
  -13.3478  -37.2301  -10.8676 C   0  0  0  0  0  0  0  0  0  0  0  0
  -13.2631  -38.0991   -9.7402 N   0  0  0  0  0  0  0  0  0  0  0  0
  -14.0082  -39.3026   -9.6591 C   0  0  0  0  0  0  0  0  0  0  0  0
  -14.7133  -39.6143  -10.6513 O   0  0  0  0  0  0  0  0  0  0  0  0
  -13.9495  -40.1734   -8.4181 C   0  0  2  0  0  0  0  0  0  0  0  0
  -13.2549  -41.4855   -8.8164 C   0  0  0  0  0  0  0  0  0  0  0  0
  -15.3388  -40.4221   -8.0210 C   0  0  0  0  0  0  0  0  0  0  0  0
  -16.1357  -39.3120   -7.3841 C   0  0  2  0  0  0  0  0  0  0  0  0
  -16.3158  -39.9303   -6.0365 O   0  0  0  0  0  0  0  0  0  0  0  0
  -17.5678  -39.2433   -7.7980 C   0  0  2  0  0  0  0  0  0  0  0  0
  -18.3940  -38.0568   -7.5481 C   0  0  0  0  0  0  0  0  0  0  0  0
  -19.8352  -38.1243   -7.9080 C   0  0  0  0  0  0  0  0  0  0  0  0
  -20.7835  -37.9207   -6.9403 C   0  0  0  0  0  0  0  0  0  0  0  0
  -22.1147  -38.0019   -7.2335 C   0  0  0  0  0  0  0  0  0  0  0  0
  -22.5568  -38.2932   -8.5188 C   0  0  0  0  0  0  0  0  0  0  0  0
  -21.5790  -38.4937   -9.4698 C   0  0  0  0  0  0  0  0  0  0  0  0
  -20.2415  -38.4123   -9.1744 C   0  0  0  0  0  0  0  0  0  0  0  0
  -18.2856  -40.4221   -7.2275 N   0  0  0  0  0  0  0  0  0  0  0  0
  -18.6609  -41.5366   -7.9877 C   0  0  0  0  0  0  0  0  0  0  0  0
  -17.9809  -41.7873   -9.0126 O   0  0  0  0  0  0  0  0  0  0  0  0
  -19.7741  -42.4218   -7.6792 C   0  0  0  0  0  0  0  0  0  0  0  0
  -20.2225  -42.6276   -6.3991 C   0  0  0  0  0  0  0  0  0  0  0  0
  -21.2859  -43.4685   -6.0994 C   0  0  0  0  0  0  0  0  0  0  0  0
  -21.7427  -43.6317   -4.7705 N   0  0  0  0  0  0  0  0  0  0  0  0
  -21.1489  -42.9842   -3.6485 C   0  0  0  0  0  0  0  0  0  0  0  0
  -21.5457  -41.5681   -3.3975 C   0  0  0  0  0  0  0  0  0  0  0  0
  -20.7871  -40.8230   -2.3543 C   0  0  0  0  0  0  0  0  0  0  0  0
  -21.3641  -39.4000   -2.3388 C   0  0  0  0  0  0  0  0  0  0  0  0
  -21.8620  -44.0805   -7.1465 N   0  0  0  0  0  0  0  0  0  0  0  0
  -21.4957  -43.9425   -8.4221 C   0  0  0  0  0  0  0  0  0  0  0  0
  -20.4316  -43.0957   -8.6830 C   0  0  0  0  0  0  0  0  0  0  0  0
  -22.1775  -44.6331   -9.3981 O   0  0  0  0  0  0  0  0  0  0  0  0
  -23.2906  -45.4153   -9.0320 C   0  0  0  0  0  0  0  0  0  0  0  0
  1  2  1  0
  2  3  1  0
  3  4  1  0
  4  5  1  0
  5  6  1  0
  6  7  2  0
  6  8  1  0
  8  9  1  6
  8 10  1  0
 10 11  1  0
 11 12  1  1
 11 13  1  0
 13 14  1  1
 14 15  1  0
 15 16  2  0
 16 17  1  0
 17 18  2  0
 18 19  1  0
 19 20  2  0
 13 21  1  0
 21 22  1  0
 22 23  2  0
 22 24  1  0
 24 25  2  0
 25 26  1  0
 26 27  1  0
 27 28  1  0
 28 29  1  0
 29 30  1  0
 30 31  1  0
 26 32  2  0
 32 33  1  0
 33 34  2  0
 33 35  1  0
 35 36  1  0
 20 15  1  0
 34 24  1  0
M  END
$$$$
