
     RDKit          3D

 36 37  0  0  0  0  0  0  0  0999 V2000
  -11.9118  -36.1685  -13.6951 C   0  0  0  0  0  0  0  0  0  0  0  0
  -12.3409  -35.3597  -12.4695 C   0  0  0  0  0  0  0  0  0  0  0  0
  -12.0574  -36.1745  -11.2186 C   0  0  0  0  0  0  0  0  0  0  0  0
  -13.0277  -37.3274  -11.2317 C   0  0  0  0  0  0  0  0  0  0  0  0
  -12.9676  -38.1701  -10.0829 N   0  0  0  0  0  0  0  0  0  0  0  0
  -13.7563  -39.3425   -9.9666 C   0  0  0  0  0  0  0  0  0  0  0  0
  -14.4811  -39.6513  -10.9454 O   0  0  0  0  0  0  0  0  0  0  0  0
  -13.7192  -40.1846   -8.7051 C   0  0  2  0  0  0  0  0  0  0  0  0
  -13.0730  -41.5293   -9.0756 C   0  0  0  0  0  0  0  0  0  0  0  0
  -15.1135  -40.3756   -8.2939 C   0  0  0  0  0  0  0  0  0  0  0  0
  -15.8185  -39.2776   -7.5386 C   0  0  2  0  0  0  0  0  0  0  0  0
  -15.8249  -39.9214   -6.1910 O   0  0  0  0  0  0  0  0  0  0  0  0
  -17.2918  -39.2004   -7.7629 C   0  0  2  0  0  0  0  0  0  0  0  0
  -18.0482  -37.9621   -7.5457 C   0  0  0  0  0  0  0  0  0  0  0  0
  -19.5258  -38.0124   -7.7054 C   0  0  0  0  0  0  0  0  0  0  0  0
  -20.0658  -38.1508   -8.9570 C   0  0  0  0  0  0  0  0  0  0  0  0
  -21.4189  -38.1740   -9.1393 C   0  0  0  0  0  0  0  0  0  0  0  0
  -22.2963  -38.0583   -8.0674 C   0  0  0  0  0  0  0  0  0  0  0  0
  -21.7227  -37.9195   -6.8214 C   0  0  0  0  0  0  0  0  0  0  0  0
  -20.3630  -37.8959   -6.6389 C   0  0  0  0  0  0  0  0  0  0  0  0
  -17.9517  -40.2786   -6.9676 N   0  0  0  0  0  0  0  0  0  0  0  0
  -18.6687  -41.3329   -7.5465 C   0  0  0  0  0  0  0  0  0  0  0  0
  -18.5519  -41.4937   -8.7859 O   0  0  0  0  0  0  0  0  0  0  0  0
  -19.5338  -42.2519   -6.8220 C   0  0  0  0  0  0  0  0  0  0  0  0
  -19.8080  -43.5189   -7.2712 C   0  0  0  0  0  0  0  0  0  0  0  0
  -20.6300  -44.4009   -6.5825 C   0  0  0  0  0  0  0  0  0  0  0  0
  -20.8646  -45.7122   -7.0589 N   0  0  0  0  0  0  0  0  0  0  0  0
  -20.7455  -46.0854   -8.4290 C   0  0  0  0  0  0  0  0  0  0  0  0
  -19.4510  -46.6937   -8.8535 C   0  0  0  0  0  0  0  0  0  0  0  0
  -19.4135  -47.3518  -10.1893 C   0  0  0  0  0  0  0  0  0  0  0  0
  -17.9741  -47.8514  -10.3808 C   0  0  0  0  0  0  0  0  0  0  0  0
  -21.1518  -43.9403   -5.4343 N   0  0  0  0  0  0  0  0  0  0  0  0
  -20.9427  -42.7270   -4.9200 C   0  0  0  0  0  0  0  0  0  0  0  0
  -20.1174  -41.8747   -5.6341 C   0  0  0  0  0  0  0  0  0  0  0  0
  -21.5440  -42.3862   -3.7297 O   0  0  0  0  0  0  0  0  0  0  0  0
  -22.9032  -42.7015   -3.5347 C   0  0  0  0  0  0  0  0  0  0  0  0
  1  2  1  0
  2  3  1  0
  3  4  1  0
  4  5  1  0
  5  6  1  0
  6  7  2  0
  6  8  1  0
  8  9  1  6
  8 10  1  0
 10 11  1  0
 11 12  1  1
 11 13  1  0
 13 14  1  1
 14 15  1  0
 15 16  2  0
 16 17  1  0
 17 18  2  0
 18 19  1  0
 19 20  2  0
 13 21  1  0
 21 22  1  0
 22 23  2  0
 22 24  1  0
 24 25  2  0
 25 26  1  0
 26 27  1  0
 27 28  1  0
 28 29  1  0
 29 30  1  0
 30 31  1  0
 26 32  2  0
 32 33  1  0
 33 34  2  0
 33 35  1  0
 35 36  1  0
 20 15  1  0
 34 24  1  0
M  END
$$$$
