
     RDKit          3D

 36 37  0  0  0  0  0  0  0  0999 V2000
  -13.4410  -33.6710  -11.8409 C   0  0  0  0  0  0  0  0  0  0  0  0
  -14.1599  -34.9519  -12.2687 C   0  0  0  0  0  0  0  0  0  0  0  0
  -14.4129  -35.8080  -11.0390 C   0  0  0  0  0  0  0  0  0  0  0  0
  -13.1294  -36.5474  -10.7627 C   0  0  0  0  0  0  0  0  0  0  0  0
  -13.1803  -37.4333   -9.6464 N   0  0  0  0  0  0  0  0  0  0  0  0
  -13.9969  -38.5923   -9.6412 C   0  0  0  0  0  0  0  0  0  0  0  0
  -14.5994  -38.8801  -10.7055 O   0  0  0  0  0  0  0  0  0  0  0  0
  -14.1310  -39.4454   -8.3937 C   0  0  2  0  0  0  0  0  0  0  0  0
  -13.2953  -40.7155   -8.6201 C   0  0  0  0  0  0  0  0  0  0  0  0
  -15.5540  -39.7765   -8.2699 C   0  0  0  0  0  0  0  0  0  0  0  0
  -16.4873  -38.7927   -7.6110 C   0  0  2  0  0  0  0  0  0  0  0  0
  -16.5873  -39.4596   -6.2784 O   0  0  0  0  0  0  0  0  0  0  0  0
  -17.9161  -38.8990   -8.0284 C   0  0  2  0  0  0  0  0  0  0  0  0
  -18.9274  -37.9279   -7.5961 C   0  0  0  0  0  0  0  0  0  0  0  0
  -20.3520  -38.2237   -7.9031 C   0  0  0  0  0  0  0  0  0  0  0  0
  -20.6604  -39.2541   -8.7519 C   0  0  0  0  0  0  0  0  0  0  0  0
  -21.9575  -39.5342   -9.0740 C   0  0  0  0  0  0  0  0  0  0  0  0
  -23.0098  -38.7882   -8.5559 C   0  0  0  0  0  0  0  0  0  0  0  0
  -22.6674  -37.7581   -7.7060 C   0  0  0  0  0  0  0  0  0  0  0  0
  -21.3638  -37.4769   -7.3830 C   0  0  0  0  0  0  0  0  0  0  0  0
  -18.4160  -40.2607   -7.6730 N   0  0  0  0  0  0  0  0  0  0  0  0
  -18.7199  -41.2417   -8.6249 C   0  0  0  0  0  0  0  0  0  0  0  0
  -18.6979  -40.8965   -9.8315 O   0  0  0  0  0  0  0  0  0  0  0  0
  -19.0566  -42.6246   -8.3212 C   0  0  0  0  0  0  0  0  0  0  0  0
  -18.4286  -43.6872   -8.9202 C   0  0  0  0  0  0  0  0  0  0  0  0
  -18.7436  -45.0084   -8.6320 C   0  0  0  0  0  0  0  0  0  0  0  0
  -18.0526  -46.0799   -9.2450 N   0  0  0  0  0  0  0  0  0  0  0  0
  -16.9898  -45.9009  -10.1772 C   0  0  0  0  0  0  0  0  0  0  0  0
  -15.6064  -46.1613   -9.6829 C   0  0  0  0  0  0  0  0  0  0  0  0
  -14.4891  -45.9564  -10.6466 C   0  0  0  0  0  0  0  0  0  0  0  0
  -13.1925  -46.0972   -9.8359 C   0  0  0  0  0  0  0  0  0  0  0  0
  -19.7120  -45.1944   -7.7207 N   0  0  0  0  0  0  0  0  0  0  0  0
  -20.3769  -44.2259   -7.0880 C   0  0  0  0  0  0  0  0  0  0  0  0
  -20.0358  -42.9209   -7.4007 C   0  0  0  0  0  0  0  0  0  0  0  0
  -21.3497  -44.5616   -6.1740 O   0  0  0  0  0  0  0  0  0  0  0  0
  -21.2744  -45.8077   -5.5210 C   0  0  0  0  0  0  0  0  0  0  0  0
  1  2  1  0
  2  3  1  0
  3  4  1  0
  4  5  1  0
  5  6  1  0
  6  7  2  0
  6  8  1  0
  8  9  1  6
  8 10  1  0
 10 11  1  0
 11 12  1  1
 11 13  1  0
 13 14  1  1
 14 15  1  0
 15 16  2  0
 16 17  1  0
 17 18  2  0
 18 19  1  0
 19 20  2  0
 13 21  1  0
 21 22  1  0
 22 23  2  0
 22 24  1  0
 24 25  2  0
 25 26  1  0
 26 27  1  0
 27 28  1  0
 28 29  1  0
 29 30  1  0
 30 31  1  0
 26 32  2  0
 32 33  1  0
 33 34  2  0
 33 35  1  0
 35 36  1  0
 20 15  1  0
 34 24  1  0
M  END
$$$$
