
     RDKit          3D

 36 37  0  0  0  0  0  0  0  0999 V2000
  -14.1374  -34.9503  -12.9497 C   0  0  0  0  0  0  0  0  0  0  0  0
  -12.7007  -35.3676  -12.6298 C   0  0  0  0  0  0  0  0  0  0  0  0
  -12.7019  -36.2005  -11.3589 C   0  0  0  0  0  0  0  0  0  0  0  0
  -13.1335  -37.5878  -11.7586 C   0  0  0  0  0  0  0  0  0  0  0  0
  -12.5690  -38.6367  -10.9747 N   0  0  0  0  0  0  0  0  0  0  0  0
  -13.3737  -39.5790  -10.2857 C   0  0  0  0  0  0  0  0  0  0  0  0
  -13.5983  -40.6753  -10.8572 O   0  0  0  0  0  0  0  0  0  0  0  0
  -13.9369  -39.2662   -8.9121 C   0  0  2  0  0  0  0  0  0  0  0  0
  -12.9789  -39.8795   -7.8781 C   0  0  0  0  0  0  0  0  0  0  0  0
  -15.2518  -39.9117   -8.8471 C   0  0  0  0  0  0  0  0  0  0  0  0
  -16.1692  -39.6057   -7.6905 C   0  0  2  0  0  0  0  0  0  0  0  0
  -16.1505  -40.9532   -7.0465 O   0  0  0  0  0  0  0  0  0  0  0  0
  -17.6196  -39.5360   -8.0345 C   0  0  2  0  0  0  0  0  0  0  0  0
  -18.4105  -38.3174   -7.8289 C   0  0  0  0  0  0  0  0  0  0  0  0
  -19.8857  -38.4099   -7.9911 C   0  0  0  0  0  0  0  0  0  0  0  0
  -20.6897  -38.3949   -6.8818 C   0  0  0  0  0  0  0  0  0  0  0  0
  -22.0460  -38.5045   -6.9961 C   0  0  0  0  0  0  0  0  0  0  0  0
  -22.6602  -38.6352   -8.2362 C   0  0  0  0  0  0  0  0  0  0  0  0
  -21.8247  -38.6479   -9.3328 C   0  0  0  0  0  0  0  0  0  0  0  0
  -20.4619  -38.5381   -9.2173 C   0  0  0  0  0  0  0  0  0  0  0  0
  -18.3270  -40.6558   -7.3445 N   0  0  0  0  0  0  0  0  0  0  0  0
  -18.2353  -41.9920   -7.7531 C   0  0  0  0  0  0  0  0  0  0  0  0
  -17.6128  -42.2248   -8.8179 O   0  0  0  0  0  0  0  0  0  0  0  0
  -18.8039  -43.1250   -7.0384 C   0  0  0  0  0  0  0  0  0  0  0  0
  -19.7214  -42.9778   -6.0290 C   0  0  0  0  0  0  0  0  0  0  0  0
  -20.2693  -44.0552   -5.3460 C   0  0  0  0  0  0  0  0  0  0  0  0
  -21.2380  -43.8677   -4.3322 N   0  0  0  0  0  0  0  0  0  0  0  0
  -21.3483  -42.6758   -3.5590 C   0  0  0  0  0  0  0  0  0  0  0  0
  -22.2818  -41.6270   -4.0637 C   0  0  0  0  0  0  0  0  0  0  0  0
  -22.2691  -40.3112   -3.3656 C   0  0  0  0  0  0  0  0  0  0  0  0
  -23.7037  -39.7692   -3.4463 C   0  0  0  0  0  0  0  0  0  0  0  0
  -19.8465  -45.2698   -5.7318 N   0  0  0  0  0  0  0  0  0  0  0  0
  -18.9601  -45.5103   -6.6997 C   0  0  0  0  0  0  0  0  0  0  0  0
  -18.4351  -44.4116   -7.3590 C   0  0  0  0  0  0  0  0  0  0  0  0
  -18.6162  -46.8106   -6.9915 O   0  0  0  0  0  0  0  0  0  0  0  0
  -19.6090  -47.8090   -6.9404 C   0  0  0  0  0  0  0  0  0  0  0  0
  1  2  1  0
  2  3  1  0
  3  4  1  0
  4  5  1  0
  5  6  1  0
  6  7  2  0
  6  8  1  0
  8  9  1  1
  8 10  1  0
 10 11  1  0
 11 12  1  1
 11 13  1  0
 13 14  1  1
 14 15  1  0
 15 16  2  0
 16 17  1  0
 17 18  2  0
 18 19  1  0
 19 20  2  0
 13 21  1  0
 21 22  1  0
 22 23  2  0
 22 24  1  0
 24 25  2  0
 25 26  1  0
 26 27  1  0
 27 28  1  0
 28 29  1  0
 29 30  1  0
 30 31  1  0
 26 32  2  0
 32 33  1  0
 33 34  2  0
 33 35  1  0
 35 36  1  0
 20 15  1  0
 34 24  1  0
M  END
$$$$
