
     RDKit          3D

 42 45  0  0  0  0  0  0  0  0999 V2000
   -8.2601  -39.8558  -12.0291 C   0  0  0  0  0  0  0  0  0  0  0  0
   -9.4907  -40.3318  -11.2931 C   0  0  0  0  0  0  0  0  0  0  0  0
   -9.0637  -40.5879   -9.8567 C   0  0  0  0  0  0  0  0  0  0  0  0
  -10.4789  -39.1969  -11.2443 C   0  0  0  0  0  0  0  0  0  0  0  0
  -11.8024  -39.4289  -10.9226 C   0  0  0  0  0  0  0  0  0  0  0  0
  -12.7452  -38.4248  -10.8640 C   0  0  0  0  0  0  0  0  0  0  0  0
  -12.3558  -37.1353  -11.1369 C   0  0  0  0  0  0  0  0  0  0  0  0
  -11.0299  -36.9013  -11.4595 C   0  0  0  0  0  0  0  0  0  0  0  0
  -10.0891  -37.9052  -11.5176 C   0  0  0  0  0  0  0  0  0  0  0  0
  -13.2996  -36.1332  -11.0780 O   0  0  0  0  0  0  0  0  0  0  0  0
  -14.6545  -36.3400  -11.4151 C   0  0  0  0  0  0  0  0  0  0  0  0
  -15.5638  -35.4708  -10.5598 C   0  0  0  0  0  0  0  0  0  0  0  0
  -14.8450  -35.8805  -12.8466 C   0  0  0  0  0  0  0  0  0  0  0  0
  -15.0744  -37.7968  -11.3483 C   0  0  0  0  0  0  0  0  0  0  0  0
  -14.1784  -38.6536  -10.5133 C   0  0  2  0  0  0  0  0  0  0  0  0
  -14.4162  -38.6341   -9.1180 N   0  0  0  0  0  0  0  0  0  0  0  0
  -15.4440  -39.4567   -8.5826 C   0  0  0  0  0  0  0  0  0  0  0  0
  -16.7198  -38.7797   -8.2556 C   0  0  1  0  0  0  0  0  0  0  0  0
  -16.6871  -37.4611   -8.6676 O   0  0  0  0  0  0  0  0  0  0  0  0
  -17.9222  -39.5100   -8.8997 C   0  0  2  0  0  0  0  0  0  0  0  0
  -19.0283  -38.5404   -8.9781 C   0  0  0  0  0  0  0  0  0  0  0  0
  -20.2186  -38.7019   -8.0963 C   0  0  0  0  0  0  0  0  0  0  0  0
  -20.3347  -38.7932   -6.7318 C   0  0  0  0  0  0  0  0  0  0  0  0
  -21.6029  -38.9597   -6.1936 C   0  0  0  0  0  0  0  0  0  0  0  0
  -22.7363  -39.0277   -7.0287 C   0  0  0  0  0  0  0  0  0  0  0  0
  -22.6493  -38.9379   -8.3909 C   0  0  0  0  0  0  0  0  0  0  0  0
  -21.3890  -38.7772   -8.8941 C   0  0  0  0  0  0  0  0  0  0  0  0
  -21.9840  -39.0821   -4.8706 O   0  0  0  0  0  0  0  0  0  0  0  0
  -21.7091  -39.9466   -3.8191 C   0  0  0  0  0  0  0  0  0  0  0  0
  -20.8662  -41.0879   -4.2781 C   0  0  0  0  0  0  0  0  0  0  0  0
  -21.6001  -42.3565   -4.5586 C   0  0  0  0  0  0  0  0  0  0  0  0
  -21.9355  -42.6326   -5.9742 C   0  0  0  0  0  0  0  0  0  0  0  0
  -20.7582  -42.8965   -6.8815 C   0  0  0  0  0  0  0  0  0  0  0  0
  -21.2334  -42.7863   -8.2795 C   0  0  0  0  0  0  0  0  0  0  0  0
  -22.4671  -43.0662   -8.4779 O   0  0  0  0  0  0  0  0  0  0  0  0
  -20.4616  -42.4052   -9.4054 N   0  0  0  0  0  0  0  0  0  0  0  0
  -21.1983  -41.7469  -10.5022 C   0  0  0  0  0  0  0  0  0  0  0  0
  -19.0357  -42.6357   -9.5345 C   0  0  1  0  0  0  0  0  0  0  0  0
  -18.5337  -42.2943  -10.9165 C   0  0  0  0  0  0  0  0  0  0  0  0
  -18.2197  -42.0204   -8.4657 C   0  0  0  0  0  0  0  0  0  0  0  0
  -17.4613  -42.8142   -7.7817 O   0  0  0  0  0  0  0  0  0  0  0  0
  -18.1579  -40.6824   -8.0920 N   0  0  0  0  0  0  0  0  0  0  0  0
  1  2  1  0
  2  3  1  0
  2  4  1  0
  4  5  2  0
  5  6  1  0
  6  7  2  0
  7  8  1  0
  8  9  2  0
  7 10  1  0
 10 11  1  0
 11 12  1  0
 11 13  1  0
 11 14  1  0
 14 15  1  0
 15 16  1  1
 16 17  1  0
 17 18  1  0
 18 19  1  6
 18 20  1  0
 20 21  1  1
 21 22  1  0
 22 23  2  0
 23 24  1  0
 24 25  2  0
 25 26  1  0
 26 27  2  0
 24 28  1  0
 28 29  1  0
 29 30  1  0
 30 31  1  0
 31 32  1  0
 32 33  1  0
 33 34  1  0
 34 35  2  0
 34 36  1  0
 36 37  1  0
 36 38  1  0
 38 39  1  6
 38 40  1  0
 40 41  2  0
 40 42  1  0
  9  4  1  0
 15  6  1  0
 27 22  1  0
 42 20  1  0
M  END
$$$$
