
     RDKit          3D

 42 45  0  0  0  0  0  0  0  0999 V2000
   -8.5051  -37.4954  -12.6850 C   0  0  0  0  0  0  0  0  0  0  0  0
   -9.3473  -38.3045  -11.7265 C   0  0  0  0  0  0  0  0  0  0  0  0
   -8.8545  -37.9688  -10.3282 C   0  0  0  0  0  0  0  0  0  0  0  0
  -10.7649  -37.8035  -11.8067 C   0  0  0  0  0  0  0  0  0  0  0  0
  -11.7962  -38.5112  -11.2196 C   0  0  0  0  0  0  0  0  0  0  0  0
  -13.1097  -38.0950  -11.2644 C   0  0  0  0  0  0  0  0  0  0  0  0
  -13.4109  -36.9257  -11.9208 C   0  0  0  0  0  0  0  0  0  0  0  0
  -12.3786  -36.2155  -12.5098 C   0  0  0  0  0  0  0  0  0  0  0  0
  -11.0669  -36.6323  -12.4642 C   0  0  0  0  0  0  0  0  0  0  0  0
  -14.7242  -36.5115  -11.9647 O   0  0  0  0  0  0  0  0  0  0  0  0
  -15.8083  -37.4144  -12.0058 C   0  0  0  0  0  0  0  0  0  0  0  0
  -17.0104  -36.8511  -11.2632 C   0  0  0  0  0  0  0  0  0  0  0  0
  -16.2288  -37.5587  -13.4546 C   0  0  0  0  0  0  0  0  0  0  0  0
  -15.4555  -38.8002  -11.4974 C   0  0  0  0  0  0  0  0  0  0  0  0
  -14.2374  -38.8419  -10.6322 C   0  0  2  0  0  0  0  0  0  0  0  0
  -14.4262  -38.5088   -9.2694 N   0  0  0  0  0  0  0  0  0  0  0  0
  -15.0906  -39.4340   -8.4195 C   0  0  0  0  0  0  0  0  0  0  0  0
  -16.3690  -38.9771   -7.8280 C   0  0  1  0  0  0  0  0  0  0  0  0
  -16.4912  -37.6052   -7.9410 O   0  0  0  0  0  0  0  0  0  0  0  0
  -17.5766  -39.6768   -8.4957 C   0  0  2  0  0  0  0  0  0  0  0  0
  -18.6035  -38.6461   -8.7258 C   0  0  0  0  0  0  0  0  0  0  0  0
  -19.8563  -38.6560   -7.9191 C   0  0  0  0  0  0  0  0  0  0  0  0
  -20.0659  -38.6273   -6.5630 C   0  0  0  0  0  0  0  0  0  0  0  0
  -21.3747  -38.6651   -6.1031 C   0  0  0  0  0  0  0  0  0  0  0  0
  -22.4542  -38.7266   -7.0073 C   0  0  0  0  0  0  0  0  0  0  0  0
  -22.2739  -38.7547   -8.3630 C   0  0  0  0  0  0  0  0  0  0  0  0
  -20.9757  -38.7192   -8.7882 C   0  0  0  0  0  0  0  0  0  0  0  0
  -21.8476  -38.6533   -4.8043 O   0  0  0  0  0  0  0  0  0  0  0  0
  -21.7029  -39.4449   -3.6725 C   0  0  0  0  0  0  0  0  0  0  0  0
  -20.9157  -40.6731   -3.9821 C   0  0  0  0  0  0  0  0  0  0  0  0
  -21.7187  -41.9093   -4.2140 C   0  0  0  0  0  0  0  0  0  0  0  0
  -21.9815  -42.2778   -5.6238 C   0  0  0  0  0  0  0  0  0  0  0  0
  -20.7702  -42.6922   -6.4239 C   0  0  0  0  0  0  0  0  0  0  0  0
  -21.1458  -42.6659   -7.8559 C   0  0  0  0  0  0  0  0  0  0  0  0
  -22.3811  -42.8792   -8.1174 O   0  0  0  0  0  0  0  0  0  0  0  0
  -20.2782  -42.4301   -8.9514 N   0  0  0  0  0  0  0  0  0  0  0  0
  -20.8944  -41.8168  -10.1445 C   0  0  0  0  0  0  0  0  0  0  0  0
  -18.8670  -42.7638   -8.9628 C   0  0  1  0  0  0  0  0  0  0  0  0
  -18.2544  -42.5707  -10.3288 C   0  0  0  0  0  0  0  0  0  0  0  0
  -18.0795  -42.1182   -7.8906 C   0  0  0  0  0  0  0  0  0  0  0  0
  -17.4250  -42.9014   -7.0961 O   0  0  0  0  0  0  0  0  0  0  0  0
  -17.9466  -40.7610   -7.6182 N   0  0  0  0  0  0  0  0  0  0  0  0
  1  2  1  0
  2  3  1  0
  2  4  1  0
  4  5  2  0
  5  6  1  0
  6  7  2  0
  7  8  1  0
  8  9  2  0
  7 10  1  0
 10 11  1  0
 11 12  1  0
 11 13  1  0
 11 14  1  0
 14 15  1  0
 15 16  1  1
 16 17  1  0
 17 18  1  0
 18 19  1  6
 18 20  1  0
 20 21  1  1
 21 22  1  0
 22 23  2  0
 23 24  1  0
 24 25  2  0
 25 26  1  0
 26 27  2  0
 24 28  1  0
 28 29  1  0
 29 30  1  0
 30 31  1  0
 31 32  1  0
 32 33  1  0
 33 34  1  0
 34 35  2  0
 34 36  1  0
 36 37  1  0
 36 38  1  0
 38 39  1  6
 38 40  1  0
 40 41  2  0
 40 42  1  0
  9  4  1  0
 15  6  1  0
 27 22  1  0
 42 20  1  0
M  END
$$$$
