
     RDKit          3D

 42 45  0  0  0  0  0  0  0  0999 V2000
  -14.2818  -33.0589  -12.2468 C   0  0  0  0  0  0  0  0  0  0  0  0
  -14.9824  -33.9863  -11.2816 C   0  0  0  0  0  0  0  0  0  0  0  0
  -16.4210  -34.1015  -11.7592 C   0  0  0  0  0  0  0  0  0  0  0  0
  -14.3785  -35.3582  -11.4241 C   0  0  0  0  0  0  0  0  0  0  0  0
  -14.3194  -36.2173  -10.3436 C   0  0  0  0  0  0  0  0  0  0  0  0
  -13.7775  -37.4825  -10.4225 C   0  0  0  0  0  0  0  0  0  0  0  0
  -13.2727  -37.9118  -11.6266 C   0  0  0  0  0  0  0  0  0  0  0  0
  -13.3311  -37.0519  -12.7102 C   0  0  0  0  0  0  0  0  0  0  0  0
  -13.8729  -35.7884  -12.6300 C   0  0  0  0  0  0  0  0  0  0  0  0
  -12.7313  -39.1764  -11.7034 O   0  0  0  0  0  0  0  0  0  0  0  0
  -12.0609  -39.7866  -10.6215 C   0  0  0  0  0  0  0  0  0  0  0  0
  -12.2877  -41.2908  -10.6232 C   0  0  0  0  0  0  0  0  0  0  0  0
  -10.5742  -39.5773  -10.8278 C   0  0  0  0  0  0  0  0  0  0  0  0
  -12.4197  -39.1841   -9.2756 C   0  0  0  0  0  0  0  0  0  0  0  0
  -13.7089  -38.4277   -9.2688 C   0  0  2  0  0  0  0  0  0  0  0  0
  -14.8860  -39.1989   -9.1150 N   0  0  0  0  0  0  0  0  0  0  0  0
  -16.0697  -38.5643   -8.6506 C   0  0  0  0  0  0  0  0  0  0  0  0
  -16.8316  -39.2857   -7.6056 C   0  0  1  0  0  0  0  0  0  0  0  0
  -17.3434  -38.3968   -6.6796 O   0  0  0  0  0  0  0  0  0  0  0  0
  -17.9731  -40.1266   -8.2250 C   0  0  2  0  0  0  0  0  0  0  0  0
  -19.0348  -39.1884   -8.6279 C   0  0  0  0  0  0  0  0  0  0  0  0
  -20.3221  -39.1603   -7.8779 C   0  0  0  0  0  0  0  0  0  0  0  0
  -20.5958  -38.9699   -6.5466 C   0  0  0  0  0  0  0  0  0  0  0  0
  -21.9214  -39.0166   -6.1387 C   0  0  0  0  0  0  0  0  0  0  0  0
  -22.9536  -39.2488   -7.0700 C   0  0  0  0  0  0  0  0  0  0  0  0
  -22.7091  -39.4402   -8.4023 C   0  0  0  0  0  0  0  0  0  0  0  0
  -21.3955  -39.3919   -8.7758 C   0  0  0  0  0  0  0  0  0  0  0  0
  -22.4544  -38.8638   -4.8725 O   0  0  0  0  0  0  0  0  0  0  0  0
  -22.3261  -39.4960   -3.6427 C   0  0  0  0  0  0  0  0  0  0  0  0
  -21.4694  -40.7111   -3.7584 C   0  0  0  0  0  0  0  0  0  0  0  0
  -22.2026  -42.0068   -3.8602 C   0  0  0  0  0  0  0  0  0  0  0  0
  -22.3820  -42.5652   -5.2198 C   0  0  0  0  0  0  0  0  0  0  0  0
  -21.1169  -43.0148   -5.9100 C   0  0  0  0  0  0  0  0  0  0  0  0
  -21.4261  -43.1909   -7.3473 C   0  0  0  0  0  0  0  0  0  0  0  0
  -22.6367  -43.4996   -7.6284 O   0  0  0  0  0  0  0  0  0  0  0  0
  -20.5202  -43.0520   -8.4282 N   0  0  0  0  0  0  0  0  0  0  0  0
  -21.1078  -42.6287   -9.7146 C   0  0  0  0  0  0  0  0  0  0  0  0
  -19.0961  -43.3108   -8.3394 C   0  0  1  0  0  0  0  0  0  0  0  0
  -18.4300  -43.2619   -9.6931 C   0  0  0  0  0  0  0  0  0  0  0  0
  -18.3902  -42.4937   -7.3292 C   0  0  0  0  0  0  0  0  0  0  0  0
  -17.7378  -43.1342   -6.4141 O   0  0  0  0  0  0  0  0  0  0  0  0
  -18.3330  -41.1078   -7.2299 N   0  0  0  0  0  0  0  0  0  0  0  0
  1  2  1  0
  2  3  1  0
  2  4  1  0
  4  5  2  0
  5  6  1  0
  6  7  2  0
  7  8  1  0
  8  9  2  0
  7 10  1  0
 10 11  1  0
 11 12  1  0
 11 13  1  0
 11 14  1  0
 14 15  1  0
 15 16  1  6
 16 17  1  0
 17 18  1  0
 18 19  1  1
 18 20  1  0
 20 21  1  1
 21 22  1  0
 22 23  2  0
 23 24  1  0
 24 25  2  0
 25 26  1  0
 26 27  2  0
 24 28  1  0
 28 29  1  0
 29 30  1  0
 30 31  1  0
 31 32  1  0
 32 33  1  0
 33 34  1  0
 34 35  2  0
 34 36  1  0
 36 37  1  0
 36 38  1  0
 38 39  1  6
 38 40  1  0
 40 41  2  0
 40 42  1  0
  9  4  1  0
 15  6  1  0
 27 22  1  0
 42 20  1  0
M  END
$$$$
