
     RDKit          3D

 42 45  0  0  0  0  0  0  0  0999 V2000
  -16.3587  -33.7405  -11.3455 C   0  0  0  0  0  0  0  0  0  0  0  0
  -14.8883  -33.4309  -11.5021 C   0  0  0  0  0  0  0  0  0  0  0  0
  -14.4754  -32.6536  -10.2626 C   0  0  0  0  0  0  0  0  0  0  0  0
  -14.1265  -34.7290  -11.4602 C   0  0  0  0  0  0  0  0  0  0  0  0
  -14.4002  -35.6752  -10.4911 C   0  0  0  0  0  0  0  0  0  0  0  0
  -13.7320  -36.8783  -10.4104 C   0  0  0  0  0  0  0  0  0  0  0  0
  -12.7499  -37.1525  -11.3320 C   0  0  0  0  0  0  0  0  0  0  0  0
  -12.4745  -36.2053  -12.3035 C   0  0  0  0  0  0  0  0  0  0  0  0
  -13.1428  -35.0039  -12.3831 C   0  0  0  0  0  0  0  0  0  0  0  0
  -12.0831  -38.3553  -11.2495 O   0  0  0  0  0  0  0  0  0  0  0  0
  -11.8274  -39.0037  -10.0221 C   0  0  0  0  0  0  0  0  0  0  0  0
  -11.8642  -40.5151  -10.1903 C   0  0  0  0  0  0  0  0  0  0  0  0
  -10.4131  -38.6533   -9.6056 C   0  0  0  0  0  0  0  0  0  0  0  0
  -12.7515  -38.5583   -8.9037 C   0  0  0  0  0  0  0  0  0  0  0  0
  -14.0161  -37.9158   -9.3749 C   0  0  2  0  0  0  0  0  0  0  0  0
  -15.0639  -38.7931   -9.7441 N   0  0  0  0  0  0  0  0  0  0  0  0
  -16.3870  -38.5064   -9.3121 C   0  0  0  0  0  0  0  0  0  0  0  0
  -16.9007  -39.3255   -8.1904 C   0  0  1  0  0  0  0  0  0  0  0  0
  -17.5120  -38.5231   -7.2458 O   0  0  0  0  0  0  0  0  0  0  0  0
  -17.8883  -40.4056   -8.6922 C   0  0  2  0  0  0  0  0  0  0  0  0
  -19.1380  -39.7163   -9.0564 C   0  0  0  0  0  0  0  0  0  0  0  0
  -20.3564  -39.9000   -8.2184 C   0  0  0  0  0  0  0  0  0  0  0  0
  -20.5798  -39.6951   -6.8799 C   0  0  0  0  0  0  0  0  0  0  0  0
  -21.8419  -39.9781   -6.3772 C   0  0  0  0  0  0  0  0  0  0  0  0
  -22.8628  -40.4576   -7.2224 C   0  0  0  0  0  0  0  0  0  0  0  0
  -22.6679  -40.6692   -8.5597 C   0  0  0  0  0  0  0  0  0  0  0  0
  -21.4158  -40.3851   -9.0275 C   0  0  0  0  0  0  0  0  0  0  0  0
  -22.3154  -39.8642   -5.0835 O   0  0  0  0  0  0  0  0  0  0  0  0
  -21.9884  -40.3918   -3.8412 C   0  0  0  0  0  0  0  0  0  0  0  0
  -20.9161  -41.4203   -3.9680 C   0  0  0  0  0  0  0  0  0  0  0  0
  -21.3820  -42.8380   -3.9644 C   0  0  0  0  0  0  0  0  0  0  0  0
  -21.5304  -43.4933   -5.2839 C   0  0  0  0  0  0  0  0  0  0  0  0
  -20.2462  -43.7234   -6.0434 C   0  0  0  0  0  0  0  0  0  0  0  0
  -20.6024  -44.0339   -7.4467 C   0  0  0  0  0  0  0  0  0  0  0  0
  -21.7424  -44.5882   -7.6281 O   0  0  0  0  0  0  0  0  0  0  0  0
  -19.8107  -43.7792   -8.5942 N   0  0  0  0  0  0  0  0  0  0  0  0
  -20.5489  -43.5491   -9.8516 C   0  0  0  0  0  0  0  0  0  0  0  0
  -18.3608  -43.7493   -8.5964 C   0  0  1  0  0  0  0  0  0  0  0  0
  -17.8026  -43.6443   -9.9950 C   0  0  0  0  0  0  0  0  0  0  0  0
  -17.7704  -42.7565   -7.6732 C   0  0  0  0  0  0  0  0  0  0  0  0
  -16.9486  -43.2067   -6.7815 O   0  0  0  0  0  0  0  0  0  0  0  0
  -17.9838  -41.3829   -7.6348 N   0  0  0  0  0  0  0  0  0  0  0  0
  1  2  1  0
  2  3  1  0
  2  4  1  0
  4  5  2  0
  5  6  1  0
  6  7  2  0
  7  8  1  0
  8  9  2  0
  7 10  1  0
 10 11  1  0
 11 12  1  0
 11 13  1  0
 11 14  1  0
 14 15  1  0
 15 16  1  6
 16 17  1  0
 17 18  1  0
 18 19  1  1
 18 20  1  0
 20 21  1  1
 21 22  1  0
 22 23  2  0
 23 24  1  0
 24 25  2  0
 25 26  1  0
 26 27  2  0
 24 28  1  0
 28 29  1  0
 29 30  1  0
 30 31  1  0
 31 32  1  0
 32 33  1  0
 33 34  1  0
 34 35  2  0
 34 36  1  0
 36 37  1  0
 36 38  1  0
 38 39  1  6
 38 40  1  0
 40 41  2  0
 40 42  1  0
  9  4  1  0
 15  6  1  0
 27 22  1  0
 42 20  1  0
M  END
$$$$
