
     RDKit          3D

 42 45  0  0  0  0  0  0  0  0999 V2000
  -15.9160  -32.2722  -10.6089 C   0  0  0  0  0  0  0  0  0  0  0  0
  -16.5417  -33.5926  -10.9933 C   0  0  0  0  0  0  0  0  0  0  0  0
  -17.2537  -33.3649  -12.3169 C   0  0  0  0  0  0  0  0  0  0  0  0
  -15.4351  -34.5748  -11.2721 C   0  0  0  0  0  0  0  0  0  0  0  0
  -15.1953  -35.6285  -10.4111 C   0  0  0  0  0  0  0  0  0  0  0  0
  -14.1957  -36.5542  -10.6218 C   0  0  0  0  0  0  0  0  0  0  0  0
  -13.4006  -36.4270  -11.7356 C   0  0  0  0  0  0  0  0  0  0  0  0
  -13.6397  -35.3716  -12.5993 C   0  0  0  0  0  0  0  0  0  0  0  0
  -14.6386  -34.4476  -12.3877 C   0  0  0  0  0  0  0  0  0  0  0  0
  -12.4020  -37.3531  -11.9444 O   0  0  0  0  0  0  0  0  0  0  0  0
  -11.7040  -37.9744  -10.8866 C   0  0  0  0  0  0  0  0  0  0  0  0
  -11.3206  -39.3997  -11.2545 C   0  0  0  0  0  0  0  0  0  0  0  0
  -10.4053  -37.2188  -10.6893 C   0  0  0  0  0  0  0  0  0  0  0  0
  -12.4540  -37.9361   -9.5678 C   0  0  0  0  0  0  0  0  0  0  0  0
  -13.9237  -37.7024   -9.7070 C   0  0  2  0  0  0  0  0  0  0  0  0
  -14.7134  -38.8406   -9.9982 N   0  0  0  0  0  0  0  0  0  0  0  0
  -15.3886  -39.5008   -8.9362 C   0  0  0  0  0  0  0  0  0  0  0  0
  -16.8104  -39.1368   -8.7387 C   0  0  1  0  0  0  0  0  0  0  0  0
  -17.1373  -38.0321   -9.5019 O   0  0  0  0  0  0  0  0  0  0  0  0
  -17.7448  -40.3202   -9.0857 C   0  0  2  0  0  0  0  0  0  0  0  0
  -18.9555  -39.7516   -9.7026 C   0  0  0  0  0  0  0  0  0  0  0  0
  -20.2473  -39.7784   -8.9604 C   0  0  0  0  0  0  0  0  0  0  0  0
  -20.5963  -39.2973   -7.7233 C   0  0  0  0  0  0  0  0  0  0  0  0
  -21.8999  -39.4936   -7.2898 C   0  0  0  0  0  0  0  0  0  0  0  0
  -22.8358  -40.1644   -8.1026 C   0  0  0  0  0  0  0  0  0  0  0  0
  -22.5152  -40.6524   -9.3397 C   0  0  0  0  0  0  0  0  0  0  0  0
  -21.2248  -40.4478   -9.7404 C   0  0  0  0  0  0  0  0  0  0  0  0
  -22.4936  -39.1165   -6.0999 O   0  0  0  0  0  0  0  0  0  0  0  0
  -22.2846  -39.3595   -4.7486 C   0  0  0  0  0  0  0  0  0  0  0  0
  -21.2037  -40.3680   -4.5526 C   0  0  0  0  0  0  0  0  0  0  0  0
  -21.6660  -41.7619   -4.2878 C   0  0  0  0  0  0  0  0  0  0  0  0
  -21.6883  -42.6869   -5.4438 C   0  0  0  0  0  0  0  0  0  0  0  0
  -20.3378  -43.0461   -6.0150 C   0  0  0  0  0  0  0  0  0  0  0  0
  -20.5595  -43.6566   -7.3456 C   0  0  0  0  0  0  0  0  0  0  0  0
  -21.6766  -44.2613   -7.5079 O   0  0  0  0  0  0  0  0  0  0  0  0
  -19.6633  -43.6357   -8.4432 N   0  0  0  0  0  0  0  0  0  0  0  0
  -20.2799  -43.6953   -9.7832 C   0  0  0  0  0  0  0  0  0  0  0  0
  -18.2197  -43.5757   -8.3185 C   0  0  1  0  0  0  0  0  0  0  0  0
  -17.5321  -43.7598   -9.6496 C   0  0  0  0  0  0  0  0  0  0  0  0
  -17.7205  -42.3963   -7.5795 C   0  0  0  0  0  0  0  0  0  0  0  0
  -16.9859  -42.6279   -6.5403 O   0  0  0  0  0  0  0  0  0  0  0  0
  -17.9384  -41.0511   -7.8566 N   0  0  0  0  0  0  0  0  0  0  0  0
  1  2  1  0
  2  3  1  0
  2  4  1  0
  4  5  2  0
  5  6  1  0
  6  7  2  0
  7  8  1  0
  8  9  2  0
  7 10  1  0
 10 11  1  0
 11 12  1  0
 11 13  1  0
 11 14  1  0
 14 15  1  0
 15 16  1  6
 16 17  1  0
 17 18  1  0
 18 19  1  6
 18 20  1  0
 20 21  1  1
 21 22  1  0
 22 23  2  0
 23 24  1  0
 24 25  2  0
 25 26  1  0
 26 27  2  0
 24 28  1  0
 28 29  1  0
 29 30  1  0
 30 31  1  0
 31 32  1  0
 32 33  1  0
 33 34  1  0
 34 35  2  0
 34 36  1  0
 36 37  1  0
 36 38  1  0
 38 39  1  6
 38 40  1  0
 40 41  2  0
 40 42  1  0
  9  4  1  0
 15  6  1  0
 27 22  1  0
 42 20  1  0
M  END
$$$$
