
     RDKit          3D

 42 45  0  0  0  0  0  0  0  0999 V2000
  -14.9792  -34.0004  -12.3211 C   0  0  0  0  0  0  0  0  0  0  0  0
  -15.7910  -35.2306  -11.9887 C   0  0  0  0  0  0  0  0  0  0  0  0
  -16.6292  -35.5411  -13.2183 C   0  0  0  0  0  0  0  0  0  0  0  0
  -14.8436  -36.3885  -11.8195 C   0  0  0  0  0  0  0  0  0  0  0  0
  -14.8204  -37.1134  -10.6434 C   0  0  0  0  0  0  0  0  0  0  0  0
  -13.9729  -38.1814  -10.4394 C   0  0  0  0  0  0  0  0  0  0  0  0
  -13.1118  -38.5442  -11.4472 C   0  0  0  0  0  0  0  0  0  0  0  0
  -13.1338  -37.8187  -12.6263 C   0  0  0  0  0  0  0  0  0  0  0  0
  -13.9810  -36.7521  -12.8288 C   0  0  0  0  0  0  0  0  0  0  0  0
  -12.2654  -39.6118  -11.2414 O   0  0  0  0  0  0  0  0  0  0  0  0
  -11.7313  -39.9289   -9.9740 C   0  0  0  0  0  0  0  0  0  0  0  0
  -11.5633  -41.4328   -9.8182 C   0  0  0  0  0  0  0  0  0  0  0  0
  -10.3399  -39.3327   -9.9017 C   0  0  0  0  0  0  0  0  0  0  0  0
  -12.5319  -39.3490   -8.8225 C   0  0  0  0  0  0  0  0  0  0  0  0
  -13.9360  -38.9806   -9.1787 C   0  0  2  0  0  0  0  0  0  0  0  0
  -14.8822  -40.0334   -9.1635 N   0  0  0  0  0  0  0  0  0  0  0  0
  -16.2489  -39.7351   -9.4141 C   0  0  0  0  0  0  0  0  0  0  0  0
  -17.1373  -39.6950   -8.2300 C   0  0  1  0  0  0  0  0  0  0  0  0
  -17.3105  -38.3934   -7.7992 O   0  0  0  0  0  0  0  0  0  0  0  0
  -18.5088  -40.3421   -8.5368 C   0  0  2  0  0  0  0  0  0  0  0  0
  -19.5251  -39.2821   -8.4215 C   0  0  0  0  0  0  0  0  0  0  0  0
  -20.4870  -39.2992   -7.2835 C   0  0  0  0  0  0  0  0  0  0  0  0
  -20.2900  -39.3215   -5.9255 C   0  0  0  0  0  0  0  0  0  0  0  0
  -21.4077  -39.3513   -5.1035 C   0  0  0  0  0  0  0  0  0  0  0  0
  -22.7057  -39.3538   -5.6527 C   0  0  0  0  0  0  0  0  0  0  0  0
  -22.9306  -39.3303   -7.0019 C   0  0  0  0  0  0  0  0  0  0  0  0
  -21.8129  -39.3041   -7.7877 C   0  0  0  0  0  0  0  0  0  0  0  0
  -21.4796  -39.3827   -3.7234 O   0  0  0  0  0  0  0  0  0  0  0  0
  -21.0354  -40.2225   -2.7106 C   0  0  0  0  0  0  0  0  0  0  0  0
  -20.4122  -41.4529   -3.2777 C   0  0  0  0  0  0  0  0  0  0  0  0
  -21.2864  -42.6620   -3.3045 C   0  0  0  0  0  0  0  0  0  0  0  0
  -21.9613  -42.9673   -4.5866 C   0  0  0  0  0  0  0  0  0  0  0  0
  -21.0505  -43.3734   -5.7199 C   0  0  0  0  0  0  0  0  0  0  0  0
  -21.8273  -43.2811   -6.9771 C   0  0  0  0  0  0  0  0  0  0  0  0
  -23.0911  -43.4583   -6.8717 O   0  0  0  0  0  0  0  0  0  0  0  0
  -21.3108  -43.0187   -8.2705 N   0  0  0  0  0  0  0  0  0  0  0  0
  -22.2292  -42.3449   -9.2095 C   0  0  0  0  0  0  0  0  0  0  0  0
  -19.9758  -43.3805   -8.7063 C   0  0  1  0  0  0  0  0  0  0  0  0
  -19.7835  -43.1445  -10.1847 C   0  0  0  0  0  0  0  0  0  0  0  0
  -18.8894  -42.7953   -7.8916 C   0  0  0  0  0  0  0  0  0  0  0  0
  -18.0562  -43.6235   -7.3502 O   0  0  0  0  0  0  0  0  0  0  0  0
  -18.6399  -41.4533   -7.6256 N   0  0  0  0  0  0  0  0  0  0  0  0
  1  2  1  0
  2  3  1  0
  2  4  1  0
  4  5  2  0
  5  6  1  0
  6  7  2  0
  7  8  1  0
  8  9  2  0
  7 10  1  0
 10 11  1  0
 11 12  1  0
 11 13  1  0
 11 14  1  0
 14 15  1  0
 15 16  1  6
 16 17  1  0
 17 18  1  0
 18 19  1  6
 18 20  1  0
 20 21  1  1
 21 22  1  0
 22 23  2  0
 23 24  1  0
 24 25  2  0
 25 26  1  0
 26 27  2  0
 24 28  1  0
 28 29  1  0
 29 30  1  0
 30 31  1  0
 31 32  1  0
 32 33  1  0
 33 34  1  0
 34 35  2  0
 34 36  1  0
 36 37  1  0
 36 38  1  0
 38 39  1  6
 38 40  1  0
 40 41  2  0
 40 42  1  0
  9  4  1  0
 15  6  1  0
 27 22  1  0
 42 20  1  0
M  END
$$$$
