
     RDKit          3D

 42 45  0  0  0  0  0  0  0  0999 V2000
  -16.3024  -35.0333  -12.1558 C   0  0  0  0  0  0  0  0  0  0  0  0
  -14.9385  -35.0940  -12.8029 C   0  0  0  0  0  0  0  0  0  0  0  0
  -14.0704  -34.0776  -12.0789 C   0  0  0  0  0  0  0  0  0  0  0  0
  -14.3392  -36.4445  -12.5129 C   0  0  0  0  0  0  0  0  0  0  0  0
  -14.1414  -36.8622  -11.2108 C   0  0  0  0  0  0  0  0  0  0  0  0
  -13.5973  -38.0884  -10.8929 C   0  0  0  0  0  0  0  0  0  0  0  0
  -13.2344  -38.9353  -11.9127 C   0  0  0  0  0  0  0  0  0  0  0  0
  -13.4319  -38.5180  -13.2180 C   0  0  0  0  0  0  0  0  0  0  0  0
  -13.9756  -37.2929  -13.5342 C   0  0  0  0  0  0  0  0  0  0  0  0
  -12.6906  -40.1602  -11.5930 O   0  0  0  0  0  0  0  0  0  0  0  0
  -11.8888  -40.3643  -10.4495 C   0  0  0  0  0  0  0  0  0  0  0  0
  -12.0958  -41.7618   -9.8856 C   0  0  0  0  0  0  0  0  0  0  0  0
  -10.4399  -40.2893  -10.8874 C   0  0  0  0  0  0  0  0  0  0  0  0
  -12.0920  -39.3096   -9.3773 C   0  0  0  0  0  0  0  0  0  0  0  0
  -13.3803  -38.5606   -9.4932 C   0  0  2  0  0  0  0  0  0  0  0  0
  -14.5213  -39.1885   -8.9383 N   0  0  0  0  0  0  0  0  0  0  0  0
  -15.4404  -38.4075   -8.1867 C   0  0  0  0  0  0  0  0  0  0  0  0
  -16.3549  -39.1542   -7.2927 C   0  0  1  0  0  0  0  0  0  0  0  0
  -17.1003  -38.2804   -6.5242 O   0  0  0  0  0  0  0  0  0  0  0  0
  -17.2902  -40.0856   -8.0999 C   0  0  2  0  0  0  0  0  0  0  0  0
  -18.3211  -39.2353   -8.7196 C   0  0  0  0  0  0  0  0  0  0  0  0
  -19.7272  -39.3007   -8.2305 C   0  0  0  0  0  0  0  0  0  0  0  0
  -20.2653  -39.1214   -6.9808 C   0  0  0  0  0  0  0  0  0  0  0  0
  -21.6375  -39.2670   -6.8332 C   0  0  0  0  0  0  0  0  0  0  0  0
  -22.4510  -39.5856   -7.9392 C   0  0  0  0  0  0  0  0  0  0  0  0
  -21.9411  -39.7681   -9.1954 C   0  0  0  0  0  0  0  0  0  0  0  0
  -20.5875  -39.6215   -9.3118 C   0  0  0  0  0  0  0  0  0  0  0  0
  -22.4141  -39.1457   -5.6961 O   0  0  0  0  0  0  0  0  0  0  0  0
  -22.4784  -39.7564   -4.4505 C   0  0  0  0  0  0  0  0  0  0  0  0
  -21.5276  -40.9026   -4.3726 C   0  0  0  0  0  0  0  0  0  0  0  0
  -22.1293  -42.2518   -4.5835 C   0  0  0  0  0  0  0  0  0  0  0  0
  -22.0017  -42.8332   -5.9393 C   0  0  0  0  0  0  0  0  0  0  0  0
  -20.5976  -43.1893   -6.3643 C   0  0  0  0  0  0  0  0  0  0  0  0
  -20.6104  -43.4001   -7.8298 C   0  0  0  0  0  0  0  0  0  0  0  0
  -21.7179  -43.8036   -8.3303 O   0  0  0  0  0  0  0  0  0  0  0  0
  -19.5263  -43.2003   -8.7204 N   0  0  0  0  0  0  0  0  0  0  0  0
  -19.8850  -42.8338  -10.1047 C   0  0  0  0  0  0  0  0  0  0  0  0
  -18.1306  -43.3477   -8.3549 C   0  0  1  0  0  0  0  0  0  0  0  0
  -17.2220  -43.2583   -9.5569 C   0  0  0  0  0  0  0  0  0  0  0  0
  -17.6950  -42.4705   -7.2470 C   0  0  0  0  0  0  0  0  0  0  0  0
  -17.1853  -43.0515   -6.2098 O   0  0  0  0  0  0  0  0  0  0  0  0
  -17.7611  -41.0836   -7.1701 N   0  0  0  0  0  0  0  0  0  0  0  0
  1  2  1  0
  2  3  1  0
  2  4  1  0
  4  5  2  0
  5  6  1  0
  6  7  2  0
  7  8  1  0
  8  9  2  0
  7 10  1  0
 10 11  1  0
 11 12  1  0
 11 13  1  0
 11 14  1  0
 14 15  1  0
 15 16  1  6
 16 17  1  0
 17 18  1  0
 18 19  1  6
 18 20  1  0
 20 21  1  1
 21 22  1  0
 22 23  2  0
 23 24  1  0
 24 25  2  0
 25 26  1  0
 26 27  2  0
 24 28  1  0
 28 29  1  0
 29 30  1  0
 30 31  1  0
 31 32  1  0
 32 33  1  0
 33 34  1  0
 34 35  2  0
 34 36  1  0
 36 37  1  0
 36 38  1  0
 38 39  1  6
 38 40  1  0
 40 41  2  0
 40 42  1  0
  9  4  1  0
 15  6  1  0
 27 22  1  0
 42 20  1  0
M  END
$$$$
