
     RDKit          3D

 42 45  0  0  0  0  0  0  0  0999 V2000
  -14.1593  -36.5315  -15.9045 C   0  0  0  0  0  0  0  0  0  0  0  0
  -14.7558  -37.4062  -14.8266 C   0  0  0  0  0  0  0  0  0  0  0  0
  -14.5866  -38.8432  -15.2926 C   0  0  0  0  0  0  0  0  0  0  0  0
  -13.9160  -37.2627  -13.5852 C   0  0  0  0  0  0  0  0  0  0  0  0
  -14.5010  -37.2775  -12.3336 C   0  0  0  0  0  0  0  0  0  0  0  0
  -13.7766  -37.1505  -11.1675 C   0  0  0  0  0  0  0  0  0  0  0  0
  -12.4127  -37.0022  -11.2492 C   0  0  0  0  0  0  0  0  0  0  0  0
  -11.8250  -36.9871  -12.5027 C   0  0  0  0  0  0  0  0  0  0  0  0
  -12.5498  -37.1143  -13.6667 C   0  0  0  0  0  0  0  0  0  0  0  0
  -11.6904  -36.8753  -10.0827 O   0  0  0  0  0  0  0  0  0  0  0  0
  -12.2053  -36.2415   -8.9314 C   0  0  0  0  0  0  0  0  0  0  0  0
  -11.6676  -36.8952   -7.6675 C   0  0  0  0  0  0  0  0  0  0  0  0
  -11.6936  -34.8151   -8.9270 C   0  0  0  0  0  0  0  0  0  0  0  0
  -13.7214  -36.1779   -8.9081 C   0  0  0  0  0  0  0  0  0  0  0  0
  -14.3887  -37.1693   -9.8058 C   0  0  2  0  0  0  0  0  0  0  0  0
  -14.5442  -38.4774   -9.2875 N   0  0  0  0  0  0  0  0  0  0  0  0
  -15.6451  -39.2642   -9.7217 C   0  0  0  0  0  0  0  0  0  0  0  0
  -16.9522  -38.9627   -9.0944 C   0  0  1  0  0  0  0  0  0  0  0  0
  -17.2990  -37.6425   -9.3098 O   0  0  0  0  0  0  0  0  0  0  0  0
  -18.0602  -39.8996   -9.6312 C   0  0  2  0  0  0  0  0  0  0  0  0
  -19.2748  -39.0837   -9.8010 C   0  0  0  0  0  0  0  0  0  0  0  0
  -20.4346  -39.2829   -8.8869 C   0  0  0  0  0  0  0  0  0  0  0  0
  -20.5350  -39.2301   -7.5192 C   0  0  0  0  0  0  0  0  0  0  0  0
  -21.7727  -39.4830   -6.9446 C   0  0  0  0  0  0  0  0  0  0  0  0
  -22.8921  -39.7806   -7.7476 C   0  0  0  0  0  0  0  0  0  0  0  0
  -22.8204  -39.8382   -9.1125 C   0  0  0  0  0  0  0  0  0  0  0  0
  -21.5899  -39.5878   -9.6515 C   0  0  0  0  0  0  0  0  0  0  0  0
  -22.1326  -39.4971   -5.6101 O   0  0  0  0  0  0  0  0  0  0  0  0
  -21.7530  -40.1963   -4.4719 C   0  0  0  0  0  0  0  0  0  0  0  0
  -20.7807  -41.2746   -4.8120 C   0  0  0  0  0  0  0  0  0  0  0  0
  -21.3581  -42.6451   -4.9343 C   0  0  0  0  0  0  0  0  0  0  0  0
  -21.6621  -43.1198   -6.3036 C   0  0  0  0  0  0  0  0  0  0  0  0
  -20.4642  -43.3445   -7.1944 C   0  0  0  0  0  0  0  0  0  0  0  0
  -20.9533  -43.4528   -8.5878 C   0  0  0  0  0  0  0  0  0  0  0  0
  -22.1451  -43.8981   -8.7326 O   0  0  0  0  0  0  0  0  0  0  0  0
  -20.2359  -43.1146   -9.7623 N   0  0  0  0  0  0  0  0  0  0  0  0
  -21.0493  -42.6788  -10.9145 C   0  0  0  0  0  0  0  0  0  0  0  0
  -18.7930  -43.1875   -9.8880 C   0  0  1  0  0  0  0  0  0  0  0  0
  -18.3394  -42.9499  -11.3080 C   0  0  0  0  0  0  0  0  0  0  0  0
  -18.0536  -42.3611   -8.9098 C   0  0  0  0  0  0  0  0  0  0  0  0
  -17.2036  -42.9754   -8.1526 O   0  0  0  0  0  0  0  0  0  0  0  0
  -18.1515  -40.9912   -8.6917 N   0  0  0  0  0  0  0  0  0  0  0  0
  1  2  1  0
  2  3  1  0
  2  4  1  0
  4  5  2  0
  5  6  1  0
  6  7  2  0
  7  8  1  0
  8  9  2  0
  7 10  1  0
 10 11  1  0
 11 12  1  0
 11 13  1  0
 11 14  1  0
 14 15  1  0
 15 16  1  1
 16 17  1  0
 17 18  1  0
 18 19  1  6
 18 20  1  0
 20 21  1  1
 21 22  1  0
 22 23  2  0
 23 24  1  0
 24 25  2  0
 25 26  1  0
 26 27  2  0
 24 28  1  0
 28 29  1  0
 29 30  1  0
 30 31  1  0
 31 32  1  0
 32 33  1  0
 33 34  1  0
 34 35  2  0
 34 36  1  0
 36 37  1  0
 36 38  1  0
 38 39  1  6
 38 40  1  0
 40 41  2  0
 40 42  1  0
  9  4  1  0
 15  6  1  0
 27 22  1  0
 42 20  1  0
M  END
$$$$
