
     RDKit          3D

 42 45  0  0  0  0  0  0  0  0999 V2000
  -18.3427  -35.4062  -10.8798 C   0  0  0  0  0  0  0  0  0  0  0  0
  -17.0516  -34.7394  -10.4664 C   0  0  0  0  0  0  0  0  0  0  0  0
  -17.2212  -34.3328   -9.0114 C   0  0  0  0  0  0  0  0  0  0  0  0
  -15.9580  -35.7741  -10.4913 C   0  0  0  0  0  0  0  0  0  0  0  0
  -16.0070  -36.8709   -9.6524 C   0  0  0  0  0  0  0  0  0  0  0  0
  -15.0320  -37.8454   -9.6373 C   0  0  0  0  0  0  0  0  0  0  0  0
  -13.9629  -37.7245  -10.4924 C   0  0  0  0  0  0  0  0  0  0  0  0
  -13.9124  -36.6260  -11.3336 C   0  0  0  0  0  0  0  0  0  0  0  0
  -14.8870  -35.6533  -11.3478 C   0  0  0  0  0  0  0  0  0  0  0  0
  -12.9894  -38.6994  -10.4758 O   0  0  0  0  0  0  0  0  0  0  0  0
  -12.6298  -39.3989   -9.3038 C   0  0  0  0  0  0  0  0  0  0  0  0
  -12.2292  -40.8299   -9.6289 C   0  0  0  0  0  0  0  0  0  0  0  0
  -11.3972  -38.7287   -8.7310 C   0  0  0  0  0  0  0  0  0  0  0  0
  -13.7026  -39.3649   -8.2309 C   0  0  0  0  0  0  0  0  0  0  0  0
  -15.0689  -39.0403   -8.7429 C   0  0  2  0  0  0  0  0  0  0  0  0
  -15.8044  -40.1187   -9.2907 N   0  0  0  0  0  0  0  0  0  0  0  0
  -16.5951  -40.9230   -8.4262 C   0  0  0  0  0  0  0  0  0  0  0  0
  -18.0164  -40.5313   -8.2867 C   0  0  1  0  0  0  0  0  0  0  0  0
  -18.3355  -39.5379   -9.1929 O   0  0  0  0  0  0  0  0  0  0  0  0
  -18.9536  -41.7476   -8.4768 C   0  0  2  0  0  0  0  0  0  0  0  0
  -20.2258  -41.2361   -9.0150 C   0  0  0  0  0  0  0  0  0  0  0  0
  -21.4456  -41.2366   -8.1591 C   0  0  0  0  0  0  0  0  0  0  0  0
  -21.6928  -40.6858   -6.9266 C   0  0  0  0  0  0  0  0  0  0  0  0
  -22.9484  -40.8746   -6.3665 C   0  0  0  0  0  0  0  0  0  0  0  0
  -23.9390  -41.6079   -7.0501 C   0  0  0  0  0  0  0  0  0  0  0  0
  -23.7200  -42.1660   -8.2797 C   0  0  0  0  0  0  0  0  0  0  0  0
  -22.4749  -41.9671   -8.8065 C   0  0  0  0  0  0  0  0  0  0  0  0
  -23.4413  -40.4340   -5.1526 O   0  0  0  0  0  0  0  0  0  0  0  0
  -23.1080  -40.5905   -3.8136 C   0  0  0  0  0  0  0  0  0  0  0  0
  -21.9936  -41.5689   -3.6558 C   0  0  0  0  0  0  0  0  0  0  0  0
  -22.4020  -42.9506   -3.2676 C   0  0  0  0  0  0  0  0  0  0  0  0
  -22.5083  -43.9450   -4.3596 C   0  0  0  0  0  0  0  0  0  0  0  0
  -21.2070  -44.3184   -5.0275 C   0  0  0  0  0  0  0  0  0  0  0  0
  -21.5338  -45.0127   -6.2939 C   0  0  0  0  0  0  0  0  0  0  0  0
  -22.6483  -45.6428   -6.3185 O   0  0  0  0  0  0  0  0  0  0  0  0
  -20.7394  -45.0458   -7.4671 N   0  0  0  0  0  0  0  0  0  0  0  0
  -21.4715  -45.1967   -8.7401 C   0  0  0  0  0  0  0  0  0  0  0  0
  -19.2920  -44.9567   -7.4768 C   0  0  1  0  0  0  0  0  0  0  0  0
  -18.7220  -45.2117   -8.8510 C   0  0  0  0  0  0  0  0  0  0  0  0
  -18.7531  -43.7268   -6.8576 C   0  0  0  0  0  0  0  0  0  0  0  0
  -17.9244  -43.8832   -5.8768 O   0  0  0  0  0  0  0  0  0  0  0  0
  -19.0222  -42.4045   -7.1937 N   0  0  0  0  0  0  0  0  0  0  0  0
  1  2  1  0
  2  3  1  0
  2  4  1  0
  4  5  2  0
  5  6  1  0
  6  7  2  0
  7  8  1  0
  8  9  2  0
  7 10  1  0
 10 11  1  0
 11 12  1  0
 11 13  1  0
 11 14  1  0
 14 15  1  0
 15 16  1  6
 16 17  1  0
 17 18  1  0
 18 19  1  6
 18 20  1  0
 20 21  1  1
 21 22  1  0
 22 23  2  0
 23 24  1  0
 24 25  2  0
 25 26  1  0
 26 27  2  0
 24 28  1  0
 28 29  1  0
 29 30  1  0
 30 31  1  0
 31 32  1  0
 32 33  1  0
 33 34  1  0
 34 35  2  0
 34 36  1  0
 36 37  1  0
 36 38  1  0
 38 39  1  6
 38 40  1  0
 40 41  2  0
 40 42  1  0
  9  4  1  0
 15  6  1  0
 27 22  1  0
 42 20  1  0
M  END
$$$$
