
     RDKit          3D

 42 45  0  0  0  0  0  0  0  0999 V2000
  -10.2846  -37.4627  -10.8451 C   0  0  0  0  0  0  0  0  0  0  0  0
  -10.8238  -37.0993  -12.2089 C   0  0  0  0  0  0  0  0  0  0  0  0
  -10.7671  -38.3656  -13.0480 C   0  0  0  0  0  0  0  0  0  0  0  0
  -12.2820  -36.7543  -12.0623 C   0  0  0  0  0  0  0  0  0  0  0  0
  -13.1584  -37.6393  -11.4640 C   0  0  0  0  0  0  0  0  0  0  0  0
  -14.5012  -37.3705  -11.3055 C   0  0  0  0  0  0  0  0  0  0  0  0
  -14.9939  -36.1711  -11.7614 C   0  0  0  0  0  0  0  0  0  0  0  0
  -14.1169  -35.2834  -12.3612 C   0  0  0  0  0  0  0  0  0  0  0  0
  -12.7757  -35.5531  -12.5187 C   0  0  0  0  0  0  0  0  0  0  0  0
  -16.3362  -35.9044  -11.6023 O   0  0  0  0  0  0  0  0  0  0  0  0
  -17.3245  -36.9113  -11.6429 C   0  0  0  0  0  0  0  0  0  0  0  0
  -18.4730  -36.5808  -10.7018 C   0  0  0  0  0  0  0  0  0  0  0  0
  -17.9070  -36.9244  -13.0418 C   0  0  0  0  0  0  0  0  0  0  0  0
  -16.7784  -38.3003  -11.3677 C   0  0  0  0  0  0  0  0  0  0  0  0
  -15.4633  -38.3104  -10.6574 C   0  0  2  0  0  0  0  0  0  0  0  0
  -15.5114  -38.1689   -9.2497 N   0  0  0  0  0  0  0  0  0  0  0  0
  -16.7549  -38.3361   -8.5825 C   0  0  0  0  0  0  0  0  0  0  0  0
  -16.8225  -39.4335   -7.5905 C   0  0  1  0  0  0  0  0  0  0  0  0
  -16.2350  -39.0471   -6.4009 O   0  0  0  0  0  0  0  0  0  0  0  0
  -18.2843  -39.8764   -7.3442 C   0  0  2  0  0  0  0  0  0  0  0  0
  -18.3563  -40.3907   -5.9658 C   0  0  0  0  0  0  0  0  0  0  0  0
  -18.5455  -41.8496   -5.7286 C   0  0  0  0  0  0  0  0  0  0  0  0
  -17.8255  -42.9406   -6.1468 C   0  0  0  0  0  0  0  0  0  0  0  0
  -18.2696  -44.2002   -5.7699 C   0  0  0  0  0  0  0  0  0  0  0  0
  -19.4250  -44.3488   -4.9766 C   0  0  0  0  0  0  0  0  0  0  0  0
  -20.1602  -43.2790   -4.5449 C   0  0  0  0  0  0  0  0  0  0  0  0
  -19.7022  -42.0513   -4.9326 C   0  0  0  0  0  0  0  0  0  0  0  0
  -17.7344  -45.4411   -6.0606 O   0  0  0  0  0  0  0  0  0  0  0  0
  -17.4486  -46.1713   -7.2067 C   0  0  0  0  0  0  0  0  0  0  0  0
  -17.9463  -45.4656   -8.4225 C   0  0  0  0  0  0  0  0  0  0  0  0
  -19.2501  -45.9535   -8.9600 C   0  0  0  0  0  0  0  0  0  0  0  0
  -20.4567  -45.1838   -8.5803 C   0  0  0  0  0  0  0  0  0  0  0  0
  -20.5383  -43.7847   -9.1412 C   0  0  0  0  0  0  0  0  0  0  0  0
  -21.5833  -43.0569   -8.3858 C   0  0  0  0  0  0  0  0  0  0  0  0
  -22.5261  -43.7728   -7.8978 O   0  0  0  0  0  0  0  0  0  0  0  0
  -21.6384  -41.6597   -8.1546 N   0  0  0  0  0  0  0  0  0  0  0  0
  -22.3185  -41.2353   -6.9151 C   0  0  0  0  0  0  0  0  0  0  0  0
  -21.0915  -40.6607   -9.0523 C   0  0  1  0  0  0  0  0  0  0  0  0
  -21.4705  -39.2608   -8.6339 C   0  0  0  0  0  0  0  0  0  0  0  0
  -19.6429  -40.8031   -9.3127 C   0  0  0  0  0  0  0  0  0  0  0  0
  -19.2830  -40.9332  -10.5482 O   0  0  0  0  0  0  0  0  0  0  0  0
  -18.6000  -40.8162   -8.3928 N   0  0  0  0  0  0  0  0  0  0  0  0
  1  2  1  0
  2  3  1  0
  2  4  1  0
  4  5  2  0
  5  6  1  0
  6  7  2  0
  7  8  1  0
  8  9  2  0
  7 10  1  0
 10 11  1  0
 11 12  1  0
 11 13  1  0
 11 14  1  0
 14 15  1  0
 15 16  1  1
 16 17  1  0
 17 18  1  0
 18 19  1  1
 18 20  1  0
 20 21  1  1
 21 22  1  0
 22 23  2  0
 23 24  1  0
 24 25  2  0
 25 26  1  0
 26 27  2  0
 24 28  1  0
 28 29  1  0
 29 30  1  0
 30 31  1  0
 31 32  1  0
 32 33  1  0
 33 34  1  0
 34 35  2  0
 34 36  1  0
 36 37  1  0
 36 38  1  0
 38 39  1  1
 38 40  1  0
 40 41  2  0
 40 42  1  0
  9  4  1  0
 15  6  1  0
 27 22  1  0
 42 20  1  0
M  END
$$$$
