
     RDKit          3D

 42 45  0  0  0  0  0  0  0  0999 V2000
  -11.2542  -41.4077  -13.5475 C   0  0  0  0  0  0  0  0  0  0  0  0
  -11.0604  -41.2595  -12.0565 C   0  0  0  0  0  0  0  0  0  0  0  0
   -9.5597  -41.2259  -11.8165 C   0  0  0  0  0  0  0  0  0  0  0  0
  -11.5846  -39.9093  -11.6452 C   0  0  0  0  0  0  0  0  0  0  0  0
  -12.7969  -39.7934  -10.9925 C   0  0  0  0  0  0  0  0  0  0  0  0
  -13.3197  -38.5813  -10.5950 C   0  0  0  0  0  0  0  0  0  0  0  0
  -12.6073  -37.4357  -10.8576 C   0  0  0  0  0  0  0  0  0  0  0  0
  -11.3923  -37.5502  -11.5117 C   0  0  0  0  0  0  0  0  0  0  0  0
  -10.8711  -38.7617  -11.9081 C   0  0  0  0  0  0  0  0  0  0  0  0
  -13.1315  -36.2253  -10.4597 O   0  0  0  0  0  0  0  0  0  0  0  0
  -14.5190  -35.9681  -10.4275 C   0  0  0  0  0  0  0  0  0  0  0  0
  -14.8682  -35.0240   -9.2870 C   0  0  0  0  0  0  0  0  0  0  0  0
  -14.8799  -35.2439  -11.7089 C   0  0  0  0  0  0  0  0  0  0  0  0
  -15.3623  -37.2284  -10.3677 C   0  0  0  0  0  0  0  0  0  0  0  0
  -14.6246  -38.4351   -9.8842 C   0  0  2  0  0  0  0  0  0  0  0  0
  -14.5086  -38.5768   -8.4805 N   0  0  0  0  0  0  0  0  0  0  0  0
  -15.5643  -39.1995   -7.7612 C   0  0  0  0  0  0  0  0  0  0  0  0
  -16.9133  -38.6169   -7.9450 C   0  0  1  0  0  0  0  0  0  0  0  0
  -16.8400  -37.4496   -8.6811 O   0  0  0  0  0  0  0  0  0  0  0  0
  -17.8682  -39.6216   -8.6324 C   0  0  2  0  0  0  0  0  0  0  0  0
  -19.1062  -38.8924   -8.9569 C   0  0  0  0  0  0  0  0  0  0  0  0
  -20.3593  -39.1906   -8.2077 C   0  0  0  0  0  0  0  0  0  0  0  0
  -20.6442  -39.1691   -6.8653 C   0  0  0  0  0  0  0  0  0  0  0  0
  -21.9251  -39.5205   -6.4634 C   0  0  0  0  0  0  0  0  0  0  0  0
  -22.9030  -39.8838   -7.4112 C   0  0  0  0  0  0  0  0  0  0  0  0
  -22.6465  -39.9122   -8.7546 C   0  0  0  0  0  0  0  0  0  0  0  0
  -21.3772  -39.5646   -9.1222 C   0  0  0  0  0  0  0  0  0  0  0  0
  -22.4571  -39.5837   -5.1891 O   0  0  0  0  0  0  0  0  0  0  0  0
  -22.1815  -40.2735   -4.0158 C   0  0  0  0  0  0  0  0  0  0  0  0
  -21.0959  -41.2729   -4.2311 C   0  0  0  0  0  0  0  0  0  0  0  0
  -21.5494  -42.6791   -4.4401 C   0  0  0  0  0  0  0  0  0  0  0  0
  -21.6329  -43.1505   -5.8413 C   0  0  0  0  0  0  0  0  0  0  0  0
  -20.3141  -43.2727   -6.5656 C   0  0  0  0  0  0  0  0  0  0  0  0
  -20.6044  -43.3916   -8.0127 C   0  0  0  0  0  0  0  0  0  0  0  0
  -21.7303  -43.9189   -8.3190 O   0  0  0  0  0  0  0  0  0  0  0  0
  -19.7642  -42.9822   -9.0781 N   0  0  0  0  0  0  0  0  0  0  0  0
  -20.4473  -42.5860  -10.3253 C   0  0  0  0  0  0  0  0  0  0  0  0
  -18.3160  -42.9488   -9.0102 C   0  0  1  0  0  0  0  0  0  0  0  0
  -17.6966  -42.6544  -10.3549 C   0  0  0  0  0  0  0  0  0  0  0  0
  -17.7760  -42.0885   -7.9355 C   0  0  0  0  0  0  0  0  0  0  0  0
  -16.9912  -42.6530   -7.0762 O   0  0  0  0  0  0  0  0  0  0  0  0
  -18.0027  -40.7332   -7.7220 N   0  0  0  0  0  0  0  0  0  0  0  0
  1  2  1  0
  2  3  1  0
  2  4  1  0
  4  5  2  0
  5  6  1  0
  6  7  2  0
  7  8  1  0
  8  9  2  0
  7 10  1  0
 10 11  1  0
 11 12  1  0
 11 13  1  0
 11 14  1  0
 14 15  1  0
 15 16  1  1
 16 17  1  0
 17 18  1  0
 18 19  1  6
 18 20  1  0
 20 21  1  1
 21 22  1  0
 22 23  2  0
 23 24  1  0
 24 25  2  0
 25 26  1  0
 26 27  2  0
 24 28  1  0
 28 29  1  0
 29 30  1  0
 30 31  1  0
 31 32  1  0
 32 33  1  0
 33 34  1  0
 34 35  2  0
 34 36  1  0
 36 37  1  0
 36 38  1  0
 38 39  1  6
 38 40  1  0
 40 41  2  0
 40 42  1  0
  9  4  1  0
 15  6  1  0
 27 22  1  0
 42 20  1  0
M  END
$$$$
