
     RDKit          3D

 42 45  0  0  0  0  0  0  0  0999 V2000
  -20.7187  -38.1413  -13.6243 C   0  0  0  0  0  0  0  0  0  0  0  0
  -20.3457  -37.3416  -12.3979 C   0  0  0  0  0  0  0  0  0  0  0  0
  -20.6969  -38.2036  -11.1960 C   0  0  0  0  0  0  0  0  0  0  0  0
  -18.8489  -37.1793  -12.3787 C   0  0  0  0  0  0  0  0  0  0  0  0
  -18.1612  -37.1296  -11.1813 C   0  0  0  0  0  0  0  0  0  0  0  0
  -16.7923  -36.9828  -11.1102 C   0  0  0  0  0  0  0  0  0  0  0  0
  -16.0765  -36.8810  -12.2791 C   0  0  0  0  0  0  0  0  0  0  0  0
  -16.7643  -36.9306  -13.4798 C   0  0  0  0  0  0  0  0  0  0  0  0
  -18.1317  -37.0774  -13.5493 C   0  0  0  0  0  0  0  0  0  0  0  0
  -14.7085  -36.7342  -12.2060 O   0  0  0  0  0  0  0  0  0  0  0  0
  -14.0703  -36.0426  -11.1541 C   0  0  0  0  0  0  0  0  0  0  0  0
  -12.7194  -36.6661  -10.8375 C   0  0  0  0  0  0  0  0  0  0  0  0
  -13.7893  -34.6339  -11.6370 C   0  0  0  0  0  0  0  0  0  0  0  0
  -14.9238  -35.9301   -9.9043 C   0  0  0  0  0  0  0  0  0  0  0  0
  -16.0301  -36.9322   -9.8274 C   0  0  2  0  0  0  0  0  0  0  0  0
  -15.6800  -38.2147   -9.3412 N   0  0  0  0  0  0  0  0  0  0  0  0
  -15.3484  -38.3639   -7.9673 C   0  0  0  0  0  0  0  0  0  0  0  0
  -16.3711  -39.0117   -7.1144 C   0  0  1  0  0  0  0  0  0  0  0  0
  -16.8767  -38.1107   -6.1966 O   0  0  0  0  0  0  0  0  0  0  0  0
  -17.5179  -39.6042   -7.9674 C   0  0  2  0  0  0  0  0  0  0  0  0
  -18.6027  -38.6080   -7.9894 C   0  0  0  0  0  0  0  0  0  0  0  0
  -19.8691  -38.8757   -7.2511 C   0  0  0  0  0  0  0  0  0  0  0  0
  -20.1085  -39.1747   -5.9333 C   0  0  0  0  0  0  0  0  0  0  0  0
  -21.4217  -39.3922   -5.5407 C   0  0  0  0  0  0  0  0  0  0  0  0
  -22.4759  -39.3027   -6.4719 C   0  0  0  0  0  0  0  0  0  0  0  0
  -22.2657  -39.0049   -7.7904 C   0  0  0  0  0  0  0  0  0  0  0  0
  -20.9637  -38.7984   -8.1501 C   0  0  0  0  0  0  0  0  0  0  0  0
  -21.9215  -39.7091   -4.2915 O   0  0  0  0  0  0  0  0  0  0  0  0
  -21.7510  -40.7325   -3.3684 C   0  0  0  0  0  0  0  0  0  0  0  0
  -20.8817  -41.8087   -3.9250 C   0  0  0  0  0  0  0  0  0  0  0  0
  -21.6000  -43.0005   -4.4638 C   0  0  0  0  0  0  0  0  0  0  0  0
  -21.8094  -43.0457   -5.9289 C   0  0  0  0  0  0  0  0  0  0  0  0
  -20.5579  -43.1938   -6.7600 C   0  0  0  0  0  0  0  0  0  0  0  0
  -20.9042  -42.8568   -8.1596 C   0  0  0  0  0  0  0  0  0  0  0  0
  -22.1178  -43.0729   -8.5064 O   0  0  0  0  0  0  0  0  0  0  0  0
  -20.0303  -42.3244   -9.1401 N   0  0  0  0  0  0  0  0  0  0  0  0
  -20.6587  -41.4865  -10.1804 C   0  0  0  0  0  0  0  0  0  0  0  0
  -18.6009  -42.5661   -9.1786 C   0  0  1  0  0  0  0  0  0  0  0  0
  -17.9732  -42.0267  -10.4409 C   0  0  0  0  0  0  0  0  0  0  0  0
  -17.8784  -42.1437   -7.9596 C   0  0  0  0  0  0  0  0  0  0  0  0
  -17.1927  -43.0519   -7.3446 O   0  0  0  0  0  0  0  0  0  0  0  0
  -17.8371  -40.8817   -7.3770 N   0  0  0  0  0  0  0  0  0  0  0  0
  1  2  1  0
  2  3  1  0
  2  4  1  0
  4  5  2  0
  5  6  1  0
  6  7  2  0
  7  8  1  0
  8  9  2  0
  7 10  1  0
 10 11  1  0
 11 12  1  0
 11 13  1  0
 11 14  1  0
 14 15  1  0
 15 16  1  6
 16 17  1  0
 17 18  1  0
 18 19  1  1
 18 20  1  0
 20 21  1  1
 21 22  1  0
 22 23  2  0
 23 24  1  0
 24 25  2  0
 25 26  1  0
 26 27  2  0
 24 28  1  0
 28 29  1  0
 29 30  1  0
 30 31  1  0
 31 32  1  0
 32 33  1  0
 33 34  1  0
 34 35  2  0
 34 36  1  0
 36 37  1  0
 36 38  1  0
 38 39  1  6
 38 40  1  0
 40 41  2  0
 40 42  1  0
  9  4  1  0
 15  6  1  0
 27 22  1  0
 42 20  1  0
M  END
$$$$
