
     RDKit          3D

 42 45  0  0  0  0  0  0  0  0999 V2000
  -10.4840  -34.9162  -11.8518 C   0  0  0  0  0  0  0  0  0  0  0  0
  -11.9038  -34.7097  -11.3784 C   0  0  0  0  0  0  0  0  0  0  0  0
  -12.5768  -33.8148  -12.4066 C   0  0  0  0  0  0  0  0  0  0  0  0
  -12.6178  -36.0339  -11.4386 C   0  0  0  0  0  0  0  0  0  0  0  0
  -12.7191  -36.8310  -10.3146 C   0  0  0  0  0  0  0  0  0  0  0  0
  -13.3624  -38.0504  -10.3176 C   0  0  0  0  0  0  0  0  0  0  0  0
  -13.9288  -38.4964  -11.4878 C   0  0  0  0  0  0  0  0  0  0  0  0
  -13.8279  -37.6987  -12.6150 C   0  0  0  0  0  0  0  0  0  0  0  0
  -13.1852  -36.4808  -12.6105 C   0  0  0  0  0  0  0  0  0  0  0  0
  -14.5710  -39.7153  -11.4889 O   0  0  0  0  0  0  0  0  0  0  0  0
  -14.1625  -40.7940  -10.6754 C   0  0  0  0  0  0  0  0  0  0  0  0
  -15.3591  -41.6238  -10.2356 C   0  0  0  0  0  0  0  0  0  0  0  0
  -13.2979  -41.7048  -11.5235 C   0  0  0  0  0  0  0  0  0  0  0  0
  -13.3304  -40.3641   -9.4812 C   0  0  0  0  0  0  0  0  0  0  0  0
  -13.4875  -38.9239   -9.1133 C   0  0  2  0  0  0  0  0  0  0  0  0
  -14.6081  -38.6018   -8.3105 N   0  0  0  0  0  0  0  0  0  0  0  0
  -15.5538  -39.6185   -8.0077 C   0  0  0  0  0  0  0  0  0  0  0  0
  -16.9301  -39.1626   -7.7061 C   0  0  1  0  0  0  0  0  0  0  0  0
  -17.1187  -37.8675   -8.1497 O   0  0  0  0  0  0  0  0  0  0  0  0
  -17.9828  -40.1023   -8.3406 C   0  0  2  0  0  0  0  0  0  0  0  0
  -19.1447  -39.2722   -8.7020 C   0  0  0  0  0  0  0  0  0  0  0  0
  -20.4171  -39.4065   -7.9383 C   0  0  0  0  0  0  0  0  0  0  0  0
  -20.6914  -39.2881   -6.5988 C   0  0  0  0  0  0  0  0  0  0  0  0
  -21.9986  -39.4903   -6.1791 C   0  0  0  0  0  0  0  0  0  0  0  0
  -23.0125  -39.8037   -7.1067 C   0  0  0  0  0  0  0  0  0  0  0  0
  -22.7671  -39.9262   -8.4469 C   0  0  0  0  0  0  0  0  0  0  0  0
  -21.4716  -39.7247   -8.8321 C   0  0  0  0  0  0  0  0  0  0  0  0
  -22.5276  -39.4353   -4.9032 O   0  0  0  0  0  0  0  0  0  0  0  0
  -22.3152  -40.0877   -3.6958 C   0  0  0  0  0  0  0  0  0  0  0  0
  -21.3343  -41.1990   -3.8595 C   0  0  0  0  0  0  0  0  0  0  0  0
  -21.9251  -42.5626   -3.9955 C   0  0  0  0  0  0  0  0  0  0  0  0
  -22.0620  -43.0947   -5.3705 C   0  0  0  0  0  0  0  0  0  0  0  0
  -20.7654  -43.3834   -6.0878 C   0  0  0  0  0  0  0  0  0  0  0  0
  -21.0736  -43.5472   -7.5267 C   0  0  0  0  0  0  0  0  0  0  0  0
  -22.2476  -43.9761   -7.8053 O   0  0  0  0  0  0  0  0  0  0  0  0
  -20.2028  -43.2779   -8.6119 N   0  0  0  0  0  0  0  0  0  0  0  0
  -20.8500  -42.8809   -9.8778 C   0  0  0  0  0  0  0  0  0  0  0  0
  -18.7579  -43.3840   -8.5461 C   0  0  1  0  0  0  0  0  0  0  0  0
  -18.1196  -43.2216   -9.9043 C   0  0  0  0  0  0  0  0  0  0  0  0
  -18.1303  -42.5271   -7.5173 C   0  0  0  0  0  0  0  0  0  0  0  0
  -17.4004  -43.1214   -6.6301 O   0  0  0  0  0  0  0  0  0  0  0  0
  -18.2213  -41.1469   -7.3740 N   0  0  0  0  0  0  0  0  0  0  0  0
  1  2  1  0
  2  3  1  0
  2  4  1  0
  4  5  2  0
  5  6  1  0
  6  7  2  0
  7  8  1  0
  8  9  2  0
  7 10  1  0
 10 11  1  0
 11 12  1  0
 11 13  1  0
 11 14  1  0
 14 15  1  0
 15 16  1  6
 16 17  1  0
 17 18  1  0
 18 19  1  6
 18 20  1  0
 20 21  1  1
 21 22  1  0
 22 23  2  0
 23 24  1  0
 24 25  2  0
 25 26  1  0
 26 27  2  0
 24 28  1  0
 28 29  1  0
 29 30  1  0
 30 31  1  0
 31 32  1  0
 32 33  1  0
 33 34  1  0
 34 35  2  0
 34 36  1  0
 36 37  1  0
 36 38  1  0
 38 39  1  6
 38 40  1  0
 40 41  2  0
 40 42  1  0
  9  4  1  0
 15  6  1  0
 27 22  1  0
 42 20  1  0
M  END
$$$$
