
     RDKit          3D

 42 45  0  0  0  0  0  0  0  0999 V2000
  -13.0804  -33.0324  -12.5484 C   0  0  0  0  0  0  0  0  0  0  0  0
  -14.0146  -33.6933  -11.5620 C   0  0  0  0  0  0  0  0  0  0  0  0
  -15.4261  -33.3223  -11.9875 C   0  0  0  0  0  0  0  0  0  0  0  0
  -13.9003  -35.1850  -11.7317 C   0  0  0  0  0  0  0  0  0  0  0  0
  -13.8528  -36.0175  -10.6299 C   0  0  0  0  0  0  0  0  0  0  0  0
  -13.7490  -37.3884  -10.7320 C   0  0  0  0  0  0  0  0  0  0  0  0
  -13.6898  -37.9559  -11.9823 C   0  0  0  0  0  0  0  0  0  0  0  0
  -13.7372  -37.1229  -13.0873 C   0  0  0  0  0  0  0  0  0  0  0  0
  -13.8411  -35.7537  -12.9839 C   0  0  0  0  0  0  0  0  0  0  0  0
  -13.5859  -39.3261  -12.0823 O   0  0  0  0  0  0  0  0  0  0  0  0
  -12.8977  -40.1107  -11.1320 C   0  0  0  0  0  0  0  0  0  0  0  0
  -13.5591  -41.4712  -10.9723 C   0  0  0  0  0  0  0  0  0  0  0  0
  -11.5071  -40.3714  -11.6748 C   0  0  0  0  0  0  0  0  0  0  0  0
  -12.7370  -39.4231   -9.7886 C   0  0  0  0  0  0  0  0  0  0  0  0
  -13.7015  -38.3055   -9.5547 C   0  0  2  0  0  0  0  0  0  0  0  0
  -14.9864  -38.6749   -9.0893 N   0  0  0  0  0  0  0  0  0  0  0  0
  -15.3659  -38.3268   -7.7648 C   0  0  0  0  0  0  0  0  0  0  0  0
  -16.1825  -39.3236   -7.0351 C   0  0  1  0  0  0  0  0  0  0  0  0
  -16.9124  -38.7115   -6.0340 O   0  0  0  0  0  0  0  0  0  0  0  0
  -17.1278  -40.0839   -7.9955 C   0  0  2  0  0  0  0  0  0  0  0  0
  -18.1890  -39.1438   -8.3954 C   0  0  0  0  0  0  0  0  0  0  0  0
  -19.5787  -39.3392   -7.8945 C   0  0  0  0  0  0  0  0  0  0  0  0
  -20.0820  -39.4371   -6.6214 C   0  0  0  0  0  0  0  0  0  0  0  0
  -21.4468  -39.6386   -6.4720 C   0  0  0  0  0  0  0  0  0  0  0  0
  -22.2882  -39.7346   -7.5986 C   0  0  0  0  0  0  0  0  0  0  0  0
  -21.8135  -39.6390   -8.8780 C   0  0  0  0  0  0  0  0  0  0  0  0
  -20.4662  -39.4436   -8.9962 C   0  0  0  0  0  0  0  0  0  0  0  0
  -22.1909  -39.7745   -5.3149 O   0  0  0  0  0  0  0  0  0  0  0  0
  -22.2091  -40.6341   -4.2244 C   0  0  0  0  0  0  0  0  0  0  0  0
  -21.2399  -41.7514   -4.4141 C   0  0  0  0  0  0  0  0  0  0  0  0
  -21.8279  -43.0384   -4.8882 C   0  0  0  0  0  0  0  0  0  0  0  0
  -21.7323  -43.3196   -6.3389 C   0  0  0  0  0  0  0  0  0  0  0  0
  -20.3365  -43.5498   -6.8657 C   0  0  0  0  0  0  0  0  0  0  0  0
  -20.3899  -43.4486   -8.3420 C   0  0  0  0  0  0  0  0  0  0  0  0
  -21.5058  -43.7607   -8.8871 O   0  0  0  0  0  0  0  0  0  0  0  0
  -19.3358  -43.0443   -9.1986 N   0  0  0  0  0  0  0  0  0  0  0  0
  -19.7410  -42.4029  -10.4650 C   0  0  0  0  0  0  0  0  0  0  0  0
  -17.9279  -43.2364   -8.9088 C   0  0  1  0  0  0  0  0  0  0  0  0
  -17.0569  -42.8783  -10.0884 C   0  0  0  0  0  0  0  0  0  0  0  0
  -17.4723  -42.6025   -7.6530 C   0  0  0  0  0  0  0  0  0  0  0  0
  -16.9235  -43.3776   -6.7748 O   0  0  0  0  0  0  0  0  0  0  0  0
  -17.5562  -41.2643   -7.2844 N   0  0  0  0  0  0  0  0  0  0  0  0
  1  2  1  0
  2  3  1  0
  2  4  1  0
  4  5  2  0
  5  6  1  0
  6  7  2  0
  7  8  1  0
  8  9  2  0
  7 10  1  0
 10 11  1  0
 11 12  1  0
 11 13  1  0
 11 14  1  0
 14 15  1  0
 15 16  1  6
 16 17  1  0
 17 18  1  0
 18 19  1  1
 18 20  1  0
 20 21  1  1
 21 22  1  0
 22 23  2  0
 23 24  1  0
 24 25  2  0
 25 26  1  0
 26 27  2  0
 24 28  1  0
 28 29  1  0
 29 30  1  0
 30 31  1  0
 31 32  1  0
 32 33  1  0
 33 34  1  0
 34 35  2  0
 34 36  1  0
 36 37  1  0
 36 38  1  0
 38 39  1  6
 38 40  1  0
 40 41  2  0
 40 42  1  0
  9  4  1  0
 15  6  1  0
 27 22  1  0
 42 20  1  0
M  END
$$$$
