
     RDKit          3D

 42 45  0  0  0  0  0  0  0  0999 V2000
  -16.5506  -33.7435  -10.3615 C   0  0  0  0  0  0  0  0  0  0  0  0
  -16.1977  -34.1150  -11.7829 C   0  0  0  0  0  0  0  0  0  0  0  0
  -15.4196  -32.9417  -12.3563 C   0  0  0  0  0  0  0  0  0  0  0  0
  -15.2413  -35.2772  -11.7424 C   0  0  0  0  0  0  0  0  0  0  0  0
  -14.7584  -35.7502  -10.5373 C   0  0  0  0  0  0  0  0  0  0  0  0
  -13.8822  -36.8106  -10.4468 C   0  0  0  0  0  0  0  0  0  0  0  0
  -13.4682  -37.4270  -11.6034 C   0  0  0  0  0  0  0  0  0  0  0  0
  -13.9511  -36.9540  -12.8117 C   0  0  0  0  0  0  0  0  0  0  0  0
  -14.8265  -35.8947  -12.9007 C   0  0  0  0  0  0  0  0  0  0  0  0
  -12.5923  -38.4865  -11.5109 O   0  0  0  0  0  0  0  0  0  0  0  0
  -11.6085  -38.5777  -10.5030 C   0  0  0  0  0  0  0  0  0  0  0  0
  -11.3720  -40.0272  -10.1070 C   0  0  0  0  0  0  0  0  0  0  0  0
  -10.3045  -38.0756  -11.0897 C   0  0  0  0  0  0  0  0  0  0  0  0
  -11.9146  -37.7244   -9.2859 C   0  0  0  0  0  0  0  0  0  0  0  0
  -13.3531  -37.3402   -9.1549 C   0  0  2  0  0  0  0  0  0  0  0  0
  -14.2059  -38.3011   -8.5605 N   0  0  0  0  0  0  0  0  0  0  0  0
  -15.4906  -37.8960   -8.1078 C   0  0  0  0  0  0  0  0  0  0  0  0
  -16.2238  -38.8684   -7.2653 C   0  0  1  0  0  0  0  0  0  0  0  0
  -16.9710  -38.2111   -6.3066 O   0  0  0  0  0  0  0  0  0  0  0  0
  -17.1370  -39.7760   -8.1234 C   0  0  2  0  0  0  0  0  0  0  0  0
  -18.1714  -38.9129   -8.7190 C   0  0  0  0  0  0  0  0  0  0  0  0
  -19.5822  -39.0170   -8.2510 C   0  0  0  0  0  0  0  0  0  0  0  0
  -20.1378  -38.8983   -7.0016 C   0  0  0  0  0  0  0  0  0  0  0  0
  -21.5096  -39.0674   -6.8777 C   0  0  0  0  0  0  0  0  0  0  0  0
  -22.3054  -39.3484   -8.0065 C   0  0  0  0  0  0  0  0  0  0  0  0
  -21.7781  -39.4703   -9.2629 C   0  0  0  0  0  0  0  0  0  0  0  0
  -20.4252  -39.3018   -9.3557 C   0  0  0  0  0  0  0  0  0  0  0  0
  -22.3013  -39.0049   -5.7463 O   0  0  0  0  0  0  0  0  0  0  0  0
  -22.3726  -39.6693   -4.5289 C   0  0  0  0  0  0  0  0  0  0  0  0
  -21.4079  -40.8057   -4.4882 C   0  0  0  0  0  0  0  0  0  0  0  0
  -21.9893  -42.1521   -4.7642 C   0  0  0  0  0  0  0  0  0  0  0  0
  -21.8377  -42.6730   -6.1419 C   0  0  0  0  0  0  0  0  0  0  0  0
  -20.4240  -42.9928   -6.5640 C   0  0  0  0  0  0  0  0  0  0  0  0
  -20.4165  -43.1406   -8.0373 C   0  0  0  0  0  0  0  0  0  0  0  0
  -21.5124  -43.5361   -8.5686 O   0  0  0  0  0  0  0  0  0  0  0  0
  -19.3243  -42.8891   -8.9048 N   0  0  0  0  0  0  0  0  0  0  0  0
  -19.6711  -42.4680  -10.2765 C   0  0  0  0  0  0  0  0  0  0  0  0
  -17.9314  -43.0345   -8.5283 C   0  0  1  0  0  0  0  0  0  0  0  0
  -17.0096  -42.8821   -9.7139 C   0  0  0  0  0  0  0  0  0  0  0  0
  -17.5207  -42.2003   -7.3785 C   0  0  0  0  0  0  0  0  0  0  0  0
  -17.0160  -42.8188   -6.3608 O   0  0  0  0  0  0  0  0  0  0  0  0
  -17.6059  -40.8189   -7.2431 N   0  0  0  0  0  0  0  0  0  0  0  0
  1  2  1  0
  2  3  1  0
  2  4  1  0
  4  5  2  0
  5  6  1  0
  6  7  2  0
  7  8  1  0
  8  9  2  0
  7 10  1  0
 10 11  1  0
 11 12  1  0
 11 13  1  0
 11 14  1  0
 14 15  1  0
 15 16  1  6
 16 17  1  0
 17 18  1  0
 18 19  1  1
 18 20  1  0
 20 21  1  1
 21 22  1  0
 22 23  2  0
 23 24  1  0
 24 25  2  0
 25 26  1  0
 26 27  2  0
 24 28  1  0
 28 29  1  0
 29 30  1  0
 30 31  1  0
 31 32  1  0
 32 33  1  0
 33 34  1  0
 34 35  2  0
 34 36  1  0
 36 37  1  0
 36 38  1  0
 38 39  1  6
 38 40  1  0
 40 41  2  0
 40 42  1  0
  9  4  1  0
 15  6  1  0
 27 22  1  0
 42 20  1  0
M  END
$$$$
