
     RDKit          3D

 42 45  0  0  0  0  0  0  0  0999 V2000
  -15.1091  -45.1811  -14.0778 C   0  0  0  0  0  0  0  0  0  0  0  0
  -15.3734  -44.4314  -12.8202 C   0  0  0  0  0  0  0  0  0  0  0  0
  -15.3383  -45.0621  -11.7828 O   0  0  0  0  0  0  0  0  0  0  0  0
  -15.6682  -42.9695  -12.8356 C   0  0  0  0  0  0  0  0  0  0  0  0
  -17.0282  -42.6709  -12.9529 O   0  0  0  0  0  0  0  0  0  0  0  0
  -17.8030  -42.5107  -11.8158 C   0  0  0  0  0  0  0  0  0  0  0  0
  -19.1688  -42.5245  -11.8218 C   0  0  0  0  0  0  0  0  0  0  0  0
  -19.9635  -42.3664  -10.6545 C   0  0  0  0  0  0  0  0  0  0  0  0
  -19.3355  -42.1837   -9.4177 C   0  0  0  0  0  0  0  0  0  0  0  0
  -17.9715  -42.1613   -9.3853 C   0  0  0  0  0  0  0  0  0  0  0  0
  -17.2290  -42.3265  -10.5823 C   0  0  0  0  0  0  0  0  0  0  0  0
  -17.0323  -41.9441   -8.2663 C   0  0  0  0  0  0  0  0  0  0  0  0
  -15.9904  -42.7159   -8.1092 O   0  0  0  0  0  0  0  0  0  0  0  0
  -17.0666  -40.9409   -7.2330 N   0  0  0  0  0  0  0  0  0  0  0  0
  -17.3473  -39.5483   -7.4923 C   0  0  1  0  0  0  0  0  0  0  0  0
  -18.2392  -38.9182   -6.5124 C   0  0  0  0  0  0  0  0  0  0  0  0
  -19.6828  -39.2649   -6.4149 C   0  0  0  0  0  0  0  0  0  0  0  0
  -20.6104  -39.5668   -7.3694 C   0  0  0  0  0  0  0  0  0  0  0  0
  -21.8900  -39.8708   -6.9407 C   0  0  0  0  0  0  0  0  0  0  0  0
  -22.2334  -39.8651   -5.5872 C   0  0  0  0  0  0  0  0  0  0  0  0
  -21.3262  -39.5633   -4.5970 C   0  0  0  0  0  0  0  0  0  0  0  0
  -20.0694  -39.2712   -5.0452 C   0  0  0  0  0  0  0  0  0  0  0  0
  -23.0073  -40.2234   -7.7319 O   0  0  0  0  0  0  0  0  0  0  0  0
  -23.1903  -41.3374   -8.5867 C   0  0  0  0  0  0  0  0  0  0  0  0
  -23.9914  -40.9440   -9.7760 C   0  0  0  0  0  0  0  0  0  0  0  0
  -23.6296  -41.8128  -10.9544 C   0  0  0  0  0  0  0  0  0  0  0  0
  -22.5329  -42.8314  -10.6421 C   0  0  0  0  0  0  0  0  0  0  0  0
  -21.2916  -42.4183  -10.9614 O   0  0  0  0  0  0  0  0  0  0  0  0
  -16.0788  -38.7687   -7.7655 C   0  0  2  0  0  0  0  0  0  0  0  0
  -16.5303  -37.4618   -8.0855 O   0  0  0  0  0  0  0  0  0  0  0  0
  -15.2503  -39.2978   -8.8842 C   0  0  0  0  0  0  0  0  0  0  0  0
  -13.9392  -39.7366   -8.4856 N   0  0  0  0  0  0  0  0  0  0  0  0
  -13.0188  -38.6271   -8.3293 C   0  0  0  0  0  0  0  0  0  0  0  0
  -12.8213  -37.8806   -9.5874 C   0  0  0  0  0  0  0  0  0  0  0  0
  -12.7857  -38.4971  -10.8256 C   0  0  0  0  0  0  0  0  0  0  0  0
  -12.5984  -37.7847  -12.0070 C   0  0  0  0  0  0  0  0  0  0  0  0
  -12.4481  -36.4233  -11.8940 C   0  0  0  0  0  0  0  0  0  0  0  0
  -12.4737  -35.7427  -10.6842 C   0  0  0  0  0  0  0  0  0  0  0  0
  -12.6639  -36.5078   -9.5401 C   0  0  0  0  0  0  0  0  0  0  0  0
  -12.5550  -38.4101  -13.3386 C   0  0  0  0  0  0  0  0  0  0  0  0
  -11.1160  -38.6250  -13.7512 C   0  0  0  0  0  0  0  0  0  0  0  0
  -13.1412  -37.3988  -14.3304 C   0  0  0  0  0  0  0  0  0  0  0  0
  1  2  1  0
  2  3  2  0
  2  4  1  0
  4  5  1  0
  5  6  1  0
  6  7  2  0
  7  8  1  0
  8  9  2  0
  9 10  1  0
 10 11  2  0
 10 12  1  0
 12 13  2  0
 12 14  1  0
 14 15  1  0
 15 16  1  1
 16 17  1  0
 17 18  2  0
 18 19  1  0
 19 20  2  0
 20 21  1  0
 21 22  2  0
 19 23  1  0
 23 24  1  0
 24 25  1  0
 25 26  1  0
 26 27  1  0
 27 28  1  0
 15 29  1  0
 29 30  1  6
 29 31  1  0
 31 32  1  0
 32 33  1  0
 33 34  1  0
 34 35  2  0
 35 36  1  0
 36 37  2  0
 37 38  1  0
 38 39  2  0
 36 40  1  0
 40 41  1  0
 40 42  1  0
 11  6  1  0
 22 17  1  0
 28  8  1  0
 39 34  1  0
M  END
$$$$
