
     RDKit          3D

 42 45  0  0  0  0  0  0  0  0999 V2000
  -14.8137  -46.8458   -9.9068 C   0  0  0  0  0  0  0  0  0  0  0  0
  -14.1341  -46.3669  -11.1405 C   0  0  0  0  0  0  0  0  0  0  0  0
  -13.3717  -47.1387  -11.6869 O   0  0  0  0  0  0  0  0  0  0  0  0
  -14.3797  -44.9985  -11.6805 C   0  0  0  0  0  0  0  0  0  0  0  0
  -14.7152  -44.0592  -10.7020 O   0  0  0  0  0  0  0  0  0  0  0  0
  -14.9330  -42.7378  -11.0557 C   0  0  0  0  0  0  0  0  0  0  0  0
  -14.2175  -42.0834  -12.0178 C   0  0  0  0  0  0  0  0  0  0  0  0
  -14.4451  -40.7296  -12.3850 C   0  0  0  0  0  0  0  0  0  0  0  0
  -15.4520  -40.0045  -11.7388 C   0  0  0  0  0  0  0  0  0  0  0  0
  -16.1783  -40.6340  -10.7702 C   0  0  0  0  0  0  0  0  0  0  0  0
  -15.9086  -41.9881  -10.4464 C   0  0  0  0  0  0  0  0  0  0  0  0
  -17.2553  -40.1373   -9.8899 C   0  0  0  0  0  0  0  0  0  0  0  0
  -18.3430  -40.8364   -9.7053 O   0  0  0  0  0  0  0  0  0  0  0  0
  -17.3175  -38.9139   -9.1320 N   0  0  0  0  0  0  0  0  0  0  0  0
  -16.2128  -38.4119   -8.3491 C   0  0  1  0  0  0  0  0  0  0  0  0
  -16.0020  -36.9641   -8.4587 C   0  0  0  0  0  0  0  0  0  0  0  0
  -15.5004  -36.3272   -9.7062 C   0  0  0  0  0  0  0  0  0  0  0  0
  -14.5816  -36.7366  -10.6285 C   0  0  0  0  0  0  0  0  0  0  0  0
  -14.3510  -35.9060  -11.7104 C   0  0  0  0  0  0  0  0  0  0  0  0
  -15.0206  -34.6898  -11.8603 C   0  0  0  0  0  0  0  0  0  0  0  0
  -15.9513  -34.2428  -10.9499 C   0  0  0  0  0  0  0  0  0  0  0  0
  -16.1643  -35.0823   -9.8937 C   0  0  0  0  0  0  0  0  0  0  0  0
  -13.4641  -36.1176  -12.7909 O   0  0  0  0  0  0  0  0  0  0  0  0
  -13.4631  -37.1423  -13.7682 C   0  0  0  0  0  0  0  0  0  0  0  0
  -12.0667  -37.5124  -14.1204 C   0  0  0  0  0  0  0  0  0  0  0  0
  -12.0089  -38.9528  -14.5633 C   0  0  0  0  0  0  0  0  0  0  0  0
  -13.3640  -39.6589  -14.5070 C   0  0  0  0  0  0  0  0  0  0  0  0
  -13.5813  -40.3419  -13.3670 O   0  0  0  0  0  0  0  0  0  0  0  0
  -16.2646  -38.9236   -6.9254 C   0  0  2  0  0  0  0  0  0  0  0  0
  -14.9381  -39.3498   -6.6554 O   0  0  0  0  0  0  0  0  0  0  0  0
  -17.2068  -40.0554   -6.7033 C   0  0  0  0  0  0  0  0  0  0  0  0
  -18.2602  -39.7658   -5.7670 N   0  0  0  0  0  0  0  0  0  0  0  0
  -18.9275  -38.5144   -6.0695 C   0  0  0  0  0  0  0  0  0  0  0  0
  -20.0405  -38.6886   -7.0234 C   0  0  0  0  0  0  0  0  0  0  0  0
  -20.9897  -39.6868   -6.8917 C   0  0  0  0  0  0  0  0  0  0  0  0
  -22.0358  -39.8436   -7.7967 C   0  0  0  0  0  0  0  0  0  0  0  0
  -22.0904  -38.9542   -8.8429 C   0  0  0  0  0  0  0  0  0  0  0  0
  -21.1716  -37.9311   -9.0337 C   0  0  0  0  0  0  0  0  0  0  0  0
  -20.1503  -37.8251   -8.0976 C   0  0  0  0  0  0  0  0  0  0  0  0
  -23.0603  -40.8945   -7.6853 C   0  0  0  0  0  0  0  0  0  0  0  0
  -23.0568  -41.4593   -6.2823 C   0  0  0  0  0  0  0  0  0  0  0  0
  -22.6339  -42.0391   -8.6116 C   0  0  0  0  0  0  0  0  0  0  0  0
  1  2  1  0
  2  3  2  0
  2  4  1  0
  4  5  1  0
  5  6  1  0
  6  7  2  0
  7  8  1  0
  8  9  2  0
  9 10  1  0
 10 11  2  0
 10 12  1  0
 12 13  2  0
 12 14  1  0
 14 15  1  0
 15 16  1  1
 16 17  1  0
 17 18  2  0
 18 19  1  0
 19 20  2  0
 20 21  1  0
 21 22  2  0
 19 23  1  0
 23 24  1  0
 24 25  1  0
 25 26  1  0
 26 27  1  0
 27 28  1  0
 15 29  1  0
 29 30  1  6
 29 31  1  0
 31 32  1  0
 32 33  1  0
 33 34  1  0
 34 35  2  0
 35 36  1  0
 36 37  2  0
 37 38  1  0
 38 39  2  0
 36 40  1  0
 40 41  1  0
 40 42  1  0
 11  6  1  0
 22 17  1  0
 28  8  1  0
 39 34  1  0
M  END
$$$$
