
     RDKit          3D

 42 45  0  0  0  0  0  0  0  0999 V2000
  -15.3899  -38.1600  -12.3233 C   0  0  0  0  0  0  0  0  0  0  0  0
  -15.7825  -39.3896  -13.0629 C   0  0  0  0  0  0  0  0  0  0  0  0
  -16.0673  -39.2616  -14.2368 O   0  0  0  0  0  0  0  0  0  0  0  0
  -15.8239  -40.7200  -12.3901 C   0  0  0  0  0  0  0  0  0  0  0  0
  -17.0684  -41.3508  -12.4663 O   0  0  0  0  0  0  0  0  0  0  0  0
  -17.7849  -41.6117  -11.3099 C   0  0  0  0  0  0  0  0  0  0  0  0
  -19.0311  -42.1708  -11.3009 C   0  0  0  0  0  0  0  0  0  0  0  0
  -19.7636  -42.4442  -10.1143 C   0  0  0  0  0  0  0  0  0  0  0  0
  -19.1987  -42.1314   -8.8732 C   0  0  0  0  0  0  0  0  0  0  0  0
  -17.9563  -41.5674   -8.8550 C   0  0  0  0  0  0  0  0  0  0  0  0
  -17.2704  -41.3189  -10.0712 C   0  0  0  0  0  0  0  0  0  0  0  0
  -17.1259  -41.0885   -7.7313 C   0  0  0  0  0  0  0  0  0  0  0  0
  -15.8567  -41.3888   -7.6632 O   0  0  0  0  0  0  0  0  0  0  0  0
  -17.5043  -40.2750   -6.6043 N   0  0  0  0  0  0  0  0  0  0  0  0
  -18.3280  -39.0948   -6.7223 C   0  0  1  0  0  0  0  0  0  0  0  0
  -19.3465  -38.9606   -5.6747 C   0  0  0  0  0  0  0  0  0  0  0  0
  -20.5265  -39.8633   -5.5946 C   0  0  0  0  0  0  0  0  0  0  0  0
  -21.3043  -40.4289   -6.5629 C   0  0  0  0  0  0  0  0  0  0  0  0
  -22.3344  -41.2552   -6.1509 C   0  0  0  0  0  0  0  0  0  0  0  0
  -22.5834  -41.5028   -4.7994 C   0  0  0  0  0  0  0  0  0  0  0  0
  -21.8224  -40.9485   -3.7952 C   0  0  0  0  0  0  0  0  0  0  0  0
  -20.8095  -40.1405   -4.2276 C   0  0  0  0  0  0  0  0  0  0  0  0
  -23.2576  -41.9569   -6.9596 O   0  0  0  0  0  0  0  0  0  0  0  0
  -23.0254  -42.9737   -7.9173 C   0  0  0  0  0  0  0  0  0  0  0  0
  -23.9754  -42.8343   -9.0527 C   0  0  0  0  0  0  0  0  0  0  0  0
  -23.3577  -43.3817  -10.3149 C   0  0  0  0  0  0  0  0  0  0  0  0
  -21.9323  -43.8984  -10.1171 C   0  0  0  0  0  0  0  0  0  0  0  0
  -20.9752  -42.9972  -10.4091 O   0  0  0  0  0  0  0  0  0  0  0  0
  -17.4894  -37.8523   -6.9327 C   0  0  2  0  0  0  0  0  0  0  0  0
  -18.3830  -36.9191   -7.5201 O   0  0  0  0  0  0  0  0  0  0  0  0
  -16.3091  -38.0396   -7.8214 C   0  0  0  0  0  0  0  0  0  0  0  0
  -15.4786  -39.1589   -7.4643 N   0  0  0  0  0  0  0  0  0  0  0  0
  -14.1205  -39.0045   -7.9485 C   0  0  0  0  0  0  0  0  0  0  0  0
  -13.8720  -39.7810   -9.1790 C   0  0  0  0  0  0  0  0  0  0  0  0
  -13.9814  -41.1595   -9.2290 C   0  0  0  0  0  0  0  0  0  0  0  0
  -13.7446  -41.8834  -10.3943 C   0  0  0  0  0  0  0  0  0  0  0  0
  -13.3925  -41.1645  -11.5113 C   0  0  0  0  0  0  0  0  0  0  0  0
  -13.2650  -39.7822  -11.5298 C   0  0  0  0  0  0  0  0  0  0  0  0
  -13.5140  -39.1151  -10.3367 C   0  0  0  0  0  0  0  0  0  0  0  0
  -13.8518  -43.3489  -10.4802 C   0  0  0  0  0  0  0  0  0  0  0  0
  -14.6173  -43.8722   -9.2855 C   0  0  0  0  0  0  0  0  0  0  0  0
  -12.4309  -43.9120  -10.3620 C   0  0  0  0  0  0  0  0  0  0  0  0
  1  2  1  0
  2  3  2  0
  2  4  1  0
  4  5  1  0
  5  6  1  0
  6  7  2  0
  7  8  1  0
  8  9  2  0
  9 10  1  0
 10 11  2  0
 10 12  1  0
 12 13  2  0
 12 14  1  0
 14 15  1  0
 15 16  1  1
 16 17  1  0
 17 18  2  0
 18 19  1  0
 19 20  2  0
 20 21  1  0
 21 22  2  0
 19 23  1  0
 23 24  1  0
 24 25  1  0
 25 26  1  0
 26 27  1  0
 27 28  1  0
 15 29  1  0
 29 30  1  6
 29 31  1  0
 31 32  1  0
 32 33  1  0
 33 34  1  0
 34 35  2  0
 35 36  1  0
 36 37  2  0
 37 38  1  0
 38 39  2  0
 36 40  1  0
 40 41  1  0
 40 42  1  0
 11  6  1  0
 22 17  1  0
 28  8  1  0
 39 34  1  0
M  END
$$$$
