
     RDKit          3D

 42 45  0  0  0  0  0  0  0  0999 V2000
  -18.1693  -47.5252   -7.5463 C   0  0  0  0  0  0  0  0  0  0  0  0
  -19.5318  -46.9711   -7.3232 C   0  0  0  0  0  0  0  0  0  0  0  0
  -20.4598  -47.7538   -7.3596 O   0  0  0  0  0  0  0  0  0  0  0  0
  -19.7460  -45.5176   -7.0663 C   0  0  0  0  0  0  0  0  0  0  0  0
  -19.4869  -44.7062   -8.1740 O   0  0  0  0  0  0  0  0  0  0  0  0
  -19.7196  -43.3425   -8.1036 C   0  0  0  0  0  0  0  0  0  0  0  0
  -20.7721  -42.7212   -8.7136 C   0  0  0  0  0  0  0  0  0  0  0  0
  -21.0142  -41.3231   -8.6362 C   0  0  0  0  0  0  0  0  0  0  0  0
  -20.1394  -40.5160   -7.9010 C   0  0  0  0  0  0  0  0  0  0  0  0
  -19.0770  -41.1117   -7.2857 C   0  0  0  0  0  0  0  0  0  0  0  0
  -18.8859  -42.5127   -7.3955 C   0  0  0  0  0  0  0  0  0  0  0  0
  -17.9709  -40.5391   -6.4920 C   0  0  0  0  0  0  0  0  0  0  0  0
  -17.6049  -41.0865   -5.3641 O   0  0  0  0  0  0  0  0  0  0  0  0
  -17.1537  -39.3864   -6.7719 N   0  0  0  0  0  0  0  0  0  0  0  0
  -16.5876  -39.1157   -8.0726 C   0  0  1  0  0  0  0  0  0  0  0  0
  -16.6624  -37.7095   -8.4843 C   0  0  0  0  0  0  0  0  0  0  0  0
  -17.9512  -37.0509   -8.8291 C   0  0  0  0  0  0  0  0  0  0  0  0
  -19.0616  -37.5112   -9.4755 C   0  0  0  0  0  0  0  0  0  0  0  0
  -20.1231  -36.6361   -9.6205 C   0  0  0  0  0  0  0  0  0  0  0  0
  -20.0697  -35.3277   -9.1355 C   0  0  0  0  0  0  0  0  0  0  0  0
  -18.9666  -34.8277   -8.4813 C   0  0  0  0  0  0  0  0  0  0  0  0
  -17.9343  -35.7119   -8.3469 C   0  0  0  0  0  0  0  0  0  0  0  0
  -21.3712  -36.8836  -10.2366 O   0  0  0  0  0  0  0  0  0  0  0  0
  -22.3801  -37.8134   -9.8863 C   0  0  0  0  0  0  0  0  0  0  0  0
  -23.0286  -38.3511  -11.1117 C   0  0  0  0  0  0  0  0  0  0  0  0
  -23.5482  -39.7432  -10.8541 C   0  0  0  0  0  0  0  0  0  0  0  0
  -23.2535  -40.2482   -9.4413 C   0  0  0  0  0  0  0  0  0  0  0  0
  -22.1302  -40.9845   -9.3437 O   0  0  0  0  0  0  0  0  0  0  0  0
  -15.2118  -39.7304   -8.2172 C   0  0  2  0  0  0  0  0  0  0  0  0
  -15.0680  -39.9486   -9.6121 O   0  0  0  0  0  0  0  0  0  0  0  0
  -15.0235  -41.0160   -7.4894 C   0  0  0  0  0  0  0  0  0  0  0  0
  -14.5367  -42.0901   -8.3138 N   0  0  0  0  0  0  0  0  0  0  0  0
  -15.0320  -43.3801   -7.8742 C   0  0  0  0  0  0  0  0  0  0  0  0
  -16.4144  -43.6336   -8.3255 C   0  0  0  0  0  0  0  0  0  0  0  0
  -17.2071  -44.6309   -7.7853 C   0  0  0  0  0  0  0  0  0  0  0  0
  -18.5098  -44.8628   -8.2178 C   0  0  0  0  0  0  0  0  0  0  0  0
  -18.9861  -44.0497   -9.2182 C   0  0  0  0  0  0  0  0  0  0  0  0
  -18.2446  -43.0322   -9.8031 C   0  0  0  0  0  0  0  0  0  0  0  0
  -16.9513  -42.8490   -9.3295 C   0  0  0  0  0  0  0  0  0  0  0  0
  -19.3779  -45.9149   -7.6646 C   0  0  0  0  0  0  0  0  0  0  0  0
  -20.8261  -45.5007   -7.8004 C   0  0  0  0  0  0  0  0  0  0  0  0
  -19.0906  -45.9911   -6.1607 C   0  0  0  0  0  0  0  0  0  0  0  0
  1  2  1  0
  2  3  2  0
  2  4  1  0
  4  5  1  0
  5  6  1  0
  6  7  2  0
  7  8  1  0
  8  9  2  0
  9 10  1  0
 10 11  2  0
 10 12  1  0
 12 13  2  0
 12 14  1  0
 14 15  1  0
 15 16  1  1
 16 17  1  0
 17 18  2  0
 18 19  1  0
 19 20  2  0
 20 21  1  0
 21 22  2  0
 19 23  1  0
 23 24  1  0
 24 25  1  0
 25 26  1  0
 26 27  1  0
 27 28  1  0
 15 29  1  0
 29 30  1  6
 29 31  1  0
 31 32  1  0
 32 33  1  0
 33 34  1  0
 34 35  2  0
 35 36  1  0
 36 37  2  0
 37 38  1  0
 38 39  2  0
 36 40  1  0
 40 41  1  0
 40 42  1  0
 11  6  1  0
 22 17  1  0
 28  8  1  0
 39 34  1  0
M  END
$$$$
