
     RDKit          3D

 42 45  0  0  0  0  0  0  0  0999 V2000
  -15.6908  -47.4927   -9.1740 C   0  0  0  0  0  0  0  0  0  0  0  0
  -17.1761  -47.5775   -9.1850 C   0  0  0  0  0  0  0  0  0  0  0  0
  -17.6665  -48.6508   -9.4728 O   0  0  0  0  0  0  0  0  0  0  0  0
  -18.0234  -46.3948   -8.8568 C   0  0  0  0  0  0  0  0  0  0  0  0
  -17.7046  -45.7957   -7.6353 O   0  0  0  0  0  0  0  0  0  0  0  0
  -18.4345  -44.7076   -7.1858 C   0  0  0  0  0  0  0  0  0  0  0  0
  -19.7929  -44.7140   -7.0421 C   0  0  0  0  0  0  0  0  0  0  0  0
  -20.5410  -43.5998   -6.5752 C   0  0  0  0  0  0  0  0  0  0  0  0
  -19.8721  -42.4181   -6.2383 C   0  0  0  0  0  0  0  0  0  0  0  0
  -18.5151  -42.3842   -6.3774 C   0  0  0  0  0  0  0  0  0  0  0  0
  -17.8197  -43.5279   -6.8464 C   0  0  0  0  0  0  0  0  0  0  0  0
  -17.5451  -41.2929   -6.1550 C   0  0  0  0  0  0  0  0  0  0  0  0
  -16.4346  -41.5088   -5.5024 O   0  0  0  0  0  0  0  0  0  0  0  0
  -17.6155  -39.9159   -6.5722 N   0  0  0  0  0  0  0  0  0  0  0  0
  -18.0267  -39.5109   -7.8960 C   0  0  1  0  0  0  0  0  0  0  0  0
  -18.9210  -38.3481   -7.9226 C   0  0  0  0  0  0  0  0  0  0  0  0
  -20.3232  -38.4138   -7.4295 C   0  0  0  0  0  0  0  0  0  0  0  0
  -21.2665  -39.3974   -7.5034 C   0  0  0  0  0  0  0  0  0  0  0  0
  -22.4932  -39.1494   -6.9141 C   0  0  0  0  0  0  0  0  0  0  0  0
  -22.7702  -37.9407   -6.2721 C   0  0  0  0  0  0  0  0  0  0  0  0
  -21.8455  -36.9253   -6.1799 C   0  0  0  0  0  0  0  0  0  0  0  0
  -20.6414  -37.1960   -6.7653 C   0  0  0  0  0  0  0  0  0  0  0  0
  -23.6130  -40.0101   -6.8505 O   0  0  0  0  0  0  0  0  0  0  0  0
  -23.7408  -41.2779   -6.2329 C   0  0  0  0  0  0  0  0  0  0  0  0
  -24.6290  -42.1542   -7.0417 C   0  0  0  0  0  0  0  0  0  0  0  0
  -24.2513  -43.6004   -6.8415 C   0  0  0  0  0  0  0  0  0  0  0  0
  -23.0575  -43.7908   -5.9052 C   0  0  0  0  0  0  0  0  0  0  0  0
  -21.8730  -43.8916   -6.5379 O   0  0  0  0  0  0  0  0  0  0  0  0
  -16.8443  -39.4037   -8.8352 C   0  0  2  0  0  0  0  0  0  0  0  0
  -17.3414  -39.8650  -10.0819 O   0  0  0  0  0  0  0  0  0  0  0  0
  -15.6588  -40.2141   -8.4405 C   0  0  0  0  0  0  0  0  0  0  0  0
  -14.4256  -39.4734   -8.4130 N   0  0  0  0  0  0  0  0  0  0  0  0
  -14.6501  -38.0418   -8.4651 C   0  0  0  0  0  0  0  0  0  0  0  0
  -15.0064  -37.5789   -9.8207 C   0  0  0  0  0  0  0  0  0  0  0  0
  -14.0642  -37.3722  -10.8128 C   0  0  0  0  0  0  0  0  0  0  0  0
  -14.4098  -36.9350  -12.0885 C   0  0  0  0  0  0  0  0  0  0  0  0
  -15.7446  -36.7131  -12.3285 C   0  0  0  0  0  0  0  0  0  0  0  0
  -16.7401  -36.9004  -11.3792 C   0  0  0  0  0  0  0  0  0  0  0  0
  -16.3336  -37.3378  -10.1246 C   0  0  0  0  0  0  0  0  0  0  0  0
  -13.4324  -36.7052  -13.1648 C   0  0  0  0  0  0  0  0  0  0  0  0
  -12.0900  -37.2722  -12.7601 C   0  0  0  0  0  0  0  0  0  0  0  0
  -13.2416  -35.1888  -13.2835 C   0  0  0  0  0  0  0  0  0  0  0  0
  1  2  1  0
  2  3  2  0
  2  4  1  0
  4  5  1  0
  5  6  1  0
  6  7  2  0
  7  8  1  0
  8  9  2  0
  9 10  1  0
 10 11  2  0
 10 12  1  0
 12 13  2  0
 12 14  1  0
 14 15  1  0
 15 16  1  1
 16 17  1  0
 17 18  2  0
 18 19  1  0
 19 20  2  0
 20 21  1  0
 21 22  2  0
 19 23  1  0
 23 24  1  0
 24 25  1  0
 25 26  1  0
 26 27  1  0
 27 28  1  0
 15 29  1  0
 29 30  1  6
 29 31  1  0
 31 32  1  0
 32 33  1  0
 33 34  1  0
 34 35  2  0
 35 36  1  0
 36 37  2  0
 37 38  1  0
 38 39  2  0
 36 40  1  0
 40 41  1  0
 40 42  1  0
 11  6  1  0
 22 17  1  0
 28  8  1  0
 39 34  1  0
M  END
$$$$
