
     RDKit          3D

 42 45  0  0  0  0  0  0  0  0999 V2000
  -16.5653  -47.1881  -11.4516 C   0  0  0  0  0  0  0  0  0  0  0  0
  -16.8239  -46.3733  -10.2340 C   0  0  0  0  0  0  0  0  0  0  0  0
  -17.7988  -46.6645   -9.5706 O   0  0  0  0  0  0  0  0  0  0  0  0
  -15.9240  -45.2485   -9.8474 C   0  0  0  0  0  0  0  0  0  0  0  0
  -15.1123  -44.7933  -10.8897 O   0  0  0  0  0  0  0  0  0  0  0  0
  -15.1266  -43.4545  -11.2450 C   0  0  0  0  0  0  0  0  0  0  0  0
  -14.2173  -42.8856  -12.0907 C   0  0  0  0  0  0  0  0  0  0  0  0
  -14.2355  -41.5136  -12.4599 C   0  0  0  0  0  0  0  0  0  0  0  0
  -15.2299  -40.6776  -11.9407 C   0  0  0  0  0  0  0  0  0  0  0  0
  -16.1478  -41.2205  -11.0894 C   0  0  0  0  0  0  0  0  0  0  0  0
  -16.0823  -42.5978  -10.7575 C   0  0  0  0  0  0  0  0  0  0  0  0
  -17.2690  -40.6039  -10.3518 C   0  0  0  0  0  0  0  0  0  0  0  0
  -18.4449  -41.1716  -10.3269 O   0  0  0  0  0  0  0  0  0  0  0  0
  -17.2912  -39.3836   -9.5865 N   0  0  0  0  0  0  0  0  0  0  0  0
  -16.2515  -39.0163   -8.6541 C   0  0  1  0  0  0  0  0  0  0  0  0
  -15.8622  -37.6027   -8.7078 C   0  0  0  0  0  0  0  0  0  0  0  0
  -15.1270  -37.0253   -9.8653 C   0  0  0  0  0  0  0  0  0  0  0  0
  -14.1457  -37.5368  -10.6641 C   0  0  0  0  0  0  0  0  0  0  0  0
  -13.6773  -36.7358  -11.6900 C   0  0  0  0  0  0  0  0  0  0  0  0
  -14.1757  -35.4493  -11.9054 C   0  0  0  0  0  0  0  0  0  0  0  0
  -15.1627  -34.8991  -11.1194 C   0  0  0  0  0  0  0  0  0  0  0  0
  -15.6115  -35.7109  -10.1167 C   0  0  0  0  0  0  0  0  0  0  0  0
  -12.6832  -37.0465  -12.6461 O   0  0  0  0  0  0  0  0  0  0  0  0
  -12.6688  -38.0617  -13.6332 C   0  0  0  0  0  0  0  0  0  0  0  0
  -11.2898  -38.5914  -13.8027 C   0  0  0  0  0  0  0  0  0  0  0  0
  -11.3395  -40.0275  -14.2604 C   0  0  0  0  0  0  0  0  0  0  0  0
  -12.7622  -40.5706  -14.3985 C   0  0  0  0  0  0  0  0  0  0  0  0
  -13.2084  -41.2267  -13.3105 O   0  0  0  0  0  0  0  0  0  0  0  0
  -16.5533  -39.5223   -7.2596 C   0  0  2  0  0  0  0  0  0  0  0  0
  -16.0560  -40.8515   -7.2516 O   0  0  0  0  0  0  0  0  0  0  0  0
  -17.9979  -39.5284   -6.8974 C   0  0  0  0  0  0  0  0  0  0  0  0
  -18.7681  -38.4985   -7.5428 N   0  0  0  0  0  0  0  0  0  0  0  0
  -19.8785  -39.0436   -8.2994 C   0  0  0  0  0  0  0  0  0  0  0  0
  -20.8388  -39.7676   -7.4433 C   0  0  0  0  0  0  0  0  0  0  0  0
  -21.1260  -39.3793   -6.1466 C   0  0  0  0  0  0  0  0  0  0  0  0
  -22.0329  -40.0687   -5.3464 C   0  0  0  0  0  0  0  0  0  0  0  0
  -22.6420  -41.1676   -5.9032 C   0  0  0  0  0  0  0  0  0  0  0  0
  -22.3996  -41.6108   -7.1964 C   0  0  0  0  0  0  0  0  0  0  0  0
  -21.4847  -40.8819   -7.9461 C   0  0  0  0  0  0  0  0  0  0  0  0
  -22.3596  -39.6822   -3.9643 C   0  0  0  0  0  0  0  0  0  0  0  0
  -22.5830  -38.1880   -3.8951 C   0  0  0  0  0  0  0  0  0  0  0  0
  -21.1198  -39.9725   -3.1106 C   0  0  0  0  0  0  0  0  0  0  0  0
  1  2  1  0
  2  3  2  0
  2  4  1  0
  4  5  1  0
  5  6  1  0
  6  7  2  0
  7  8  1  0
  8  9  2  0
  9 10  1  0
 10 11  2  0
 10 12  1  0
 12 13  2  0
 12 14  1  0
 14 15  1  0
 15 16  1  1
 16 17  1  0
 17 18  2  0
 18 19  1  0
 19 20  2  0
 20 21  1  0
 21 22  2  0
 19 23  1  0
 23 24  1  0
 24 25  1  0
 25 26  1  0
 26 27  1  0
 27 28  1  0
 15 29  1  0
 29 30  1  6
 29 31  1  0
 31 32  1  0
 32 33  1  0
 33 34  1  0
 34 35  2  0
 35 36  1  0
 36 37  2  0
 37 38  1  0
 38 39  2  0
 36 40  1  0
 40 41  1  0
 40 42  1  0
 11  6  1  0
 22 17  1  0
 28  8  1  0
 39 34  1  0
M  END
$$$$
