
     RDKit          3D

 42 45  0  0  0  0  0  0  0  0999 V2000
  -12.9165  -44.6005  -14.2860 C   0  0  0  0  0  0  0  0  0  0  0  0
  -13.4071  -44.7041  -12.8853 C   0  0  0  0  0  0  0  0  0  0  0  0
  -14.2539  -45.5444  -12.6568 O   0  0  0  0  0  0  0  0  0  0  0  0
  -12.8806  -43.8139  -11.8108 C   0  0  0  0  0  0  0  0  0  0  0  0
  -12.2934  -42.6399  -12.2900 O   0  0  0  0  0  0  0  0  0  0  0  0
  -13.0354  -41.4723  -12.3590 C   0  0  0  0  0  0  0  0  0  0  0  0
  -12.6529  -40.3729  -13.0738 C   0  0  0  0  0  0  0  0  0  0  0  0
  -13.4170  -39.1773  -13.1495 C   0  0  0  0  0  0  0  0  0  0  0  0
  -14.6324  -39.0962  -12.4613 C   0  0  0  0  0  0  0  0  0  0  0  0
  -15.0350  -40.1795  -11.7357 C   0  0  0  0  0  0  0  0  0  0  0  0
  -14.2323  -41.3481  -11.6979 C   0  0  0  0  0  0  0  0  0  0  0  0
  -16.2201  -40.3857  -10.8787 C   0  0  0  0  0  0  0  0  0  0  0  0
  -16.9242  -41.4823  -10.9648 O   0  0  0  0  0  0  0  0  0  0  0  0
  -16.7789  -39.5150   -9.8763 N   0  0  0  0  0  0  0  0  0  0  0  0
  -15.9773  -38.8229   -8.8946 C   0  0  1  0  0  0  0  0  0  0  0  0
  -16.3803  -37.4325   -8.6557 C   0  0  0  0  0  0  0  0  0  0  0  0
  -16.1860  -36.3639   -9.6725 C   0  0  0  0  0  0  0  0  0  0  0  0
  -15.1809  -36.1334  -10.5666 C   0  0  0  0  0  0  0  0  0  0  0  0
  -15.3131  -35.0422  -11.4065 C   0  0  0  0  0  0  0  0  0  0  0  0
  -16.4235  -34.1976  -11.3465 C   0  0  0  0  0  0  0  0  0  0  0  0
  -17.4548  -34.3967  -10.4568 C   0  0  0  0  0  0  0  0  0  0  0  0
  -17.3030  -35.4824   -9.6420 C   0  0  0  0  0  0  0  0  0  0  0  0
  -14.4186  -34.6108  -12.4128 O   0  0  0  0  0  0  0  0  0  0  0  0
  -13.9974  -35.2765  -13.5895 C   0  0  0  0  0  0  0  0  0  0  0  0
  -12.5726  -34.9606  -13.8743 C   0  0  0  0  0  0  0  0  0  0  0  0
  -11.9284  -36.1020  -14.6203 C   0  0  0  0  0  0  0  0  0  0  0  0
  -12.8735  -37.2799  -14.8591 C   0  0  0  0  0  0  0  0  0  0  0  0
  -12.7898  -38.2496  -13.9284 O   0  0  0  0  0  0  0  0  0  0  0  0
  -15.8129  -39.6447   -7.6340 C   0  0  2  0  0  0  0  0  0  0  0  0
  -14.4320  -39.5414   -7.3233 O   0  0  0  0  0  0  0  0  0  0  0  0
  -16.1870  -41.0797   -7.7717 C   0  0  0  0  0  0  0  0  0  0  0  0
  -17.5991  -41.3043   -7.9320 N   0  0  0  0  0  0  0  0  0  0  0  0
  -18.3772  -40.6165   -6.9200 C   0  0  0  0  0  0  0  0  0  0  0  0
  -19.8298  -40.7267   -7.1583 C   0  0  0  0  0  0  0  0  0  0  0  0
  -20.7673  -40.5692   -6.1529 C   0  0  0  0  0  0  0  0  0  0  0  0
  -22.1355  -40.6754   -6.3872 C   0  0  0  0  0  0  0  0  0  0  0  0
  -22.5254  -40.9469   -7.6767 C   0  0  0  0  0  0  0  0  0  0  0  0
  -21.6381  -41.1163   -8.7309 C   0  0  0  0  0  0  0  0  0  0  0  0
  -20.2857  -40.9987   -8.4351 C   0  0  0  0  0  0  0  0  0  0  0  0
  -23.1574  -40.5140   -5.3402 C   0  0  0  0  0  0  0  0  0  0  0  0
  -23.6696  -41.8729   -4.9178 C   0  0  0  0  0  0  0  0  0  0  0  0
  -24.3452  -39.7852   -5.9790 C   0  0  0  0  0  0  0  0  0  0  0  0
  1  2  1  0
  2  3  2  0
  2  4  1  0
  4  5  1  0
  5  6  1  0
  6  7  2  0
  7  8  1  0
  8  9  2  0
  9 10  1  0
 10 11  2  0
 10 12  1  0
 12 13  2  0
 12 14  1  0
 14 15  1  0
 15 16  1  1
 16 17  1  0
 17 18  2  0
 18 19  1  0
 19 20  2  0
 20 21  1  0
 21 22  2  0
 19 23  1  0
 23 24  1  0
 24 25  1  0
 25 26  1  0
 26 27  1  0
 27 28  1  0
 15 29  1  0
 29 30  1  6
 29 31  1  0
 31 32  1  0
 32 33  1  0
 33 34  1  0
 34 35  2  0
 35 36  1  0
 36 37  2  0
 37 38  1  0
 38 39  2  0
 36 40  1  0
 40 41  1  0
 40 42  1  0
 11  6  1  0
 22 17  1  0
 28  8  1  0
 39 34  1  0
M  END
$$$$
