
     RDKit          3D

 42 45  0  0  0  0  0  0  0  0999 V2000
  -17.3438  -42.1613  -13.6282 C   0  0  0  0  0  0  0  0  0  0  0  0
  -16.8484  -43.5517  -13.4420 C   0  0  0  0  0  0  0  0  0  0  0  0
  -16.2724  -44.0638  -14.3808 O   0  0  0  0  0  0  0  0  0  0  0  0
  -17.0516  -44.2824  -12.1578 C   0  0  0  0  0  0  0  0  0  0  0  0
  -16.3965  -43.7005  -11.0694 O   0  0  0  0  0  0  0  0  0  0  0  0
  -17.1226  -43.2820   -9.9665 C   0  0  0  0  0  0  0  0  0  0  0  0
  -18.3327  -43.8075   -9.6126 C   0  0  0  0  0  0  0  0  0  0  0  0
  -19.0748  -43.3825   -8.4777 C   0  0  0  0  0  0  0  0  0  0  0  0
  -18.5590  -42.3697   -7.6620 C   0  0  0  0  0  0  0  0  0  0  0  0
  -17.3536  -41.8245   -7.9966 C   0  0  0  0  0  0  0  0  0  0  0  0
  -16.6558  -42.2899   -9.1402 C   0  0  0  0  0  0  0  0  0  0  0  0
  -16.5801  -40.7291   -7.3776 C   0  0  0  0  0  0  0  0  0  0  0  0
  -15.2970  -40.8529   -7.1678 O   0  0  0  0  0  0  0  0  0  0  0  0
  -17.0332  -39.4365   -6.9313 N   0  0  0  0  0  0  0  0  0  0  0  0
  -17.9237  -38.6013   -7.7025 C   0  0  1  0  0  0  0  0  0  0  0  0
  -18.9726  -37.9453   -6.9138 C   0  0  0  0  0  0  0  0  0  0  0  0
  -20.0974  -38.7034   -6.3025 C   0  0  0  0  0  0  0  0  0  0  0  0
  -20.8169  -39.7751   -6.7458 C   0  0  0  0  0  0  0  0  0  0  0  0
  -21.8045  -40.2683   -5.9121 C   0  0  0  0  0  0  0  0  0  0  0  0
  -22.0695  -39.6959   -4.6663 C   0  0  0  0  0  0  0  0  0  0  0  0
  -21.3671  -38.6134   -4.1871 C   0  0  0  0  0  0  0  0  0  0  0  0
  -20.3950  -38.1480   -5.0263 C   0  0  0  0  0  0  0  0  0  0  0  0
  -22.6645  -41.3662   -6.1439 O   0  0  0  0  0  0  0  0  0  0  0  0
  -22.3490  -42.7338   -6.3317 C   0  0  0  0  0  0  0  0  0  0  0  0
  -23.2790  -43.3428   -7.3192 C   0  0  0  0  0  0  0  0  0  0  0  0
  -22.6000  -44.4838   -8.0344 C   0  0  0  0  0  0  0  0  0  0  0  0
  -21.1510  -44.6975   -7.5956 C   0  0  0  0  0  0  0  0  0  0  0  0
  -20.2436  -44.0782   -8.3744 O   0  0  0  0  0  0  0  0  0  0  0  0
  -17.1570  -37.6655   -8.6123 C   0  0  2  0  0  0  0  0  0  0  0  0
  -18.1314  -37.1844   -9.5252 O   0  0  0  0  0  0  0  0  0  0  0  0
  -16.0407  -38.3025   -9.3646 C   0  0  0  0  0  0  0  0  0  0  0  0
  -14.9541  -38.7491   -8.5338 N   0  0  0  0  0  0  0  0  0  0  0  0
  -13.8294  -37.8345   -8.5719 C   0  0  0  0  0  0  0  0  0  0  0  0
  -13.4549  -37.4631   -9.9506 C   0  0  0  0  0  0  0  0  0  0  0  0
  -13.6161  -38.3187  -11.0261 C   0  0  0  0  0  0  0  0  0  0  0  0
  -13.2594  -37.9597  -12.3231 C   0  0  0  0  0  0  0  0  0  0  0  0
  -12.7327  -36.7023  -12.4968 C   0  0  0  0  0  0  0  0  0  0  0  0
  -12.5444  -35.7957  -11.4624 C   0  0  0  0  0  0  0  0  0  0  0  0
  -12.9193  -36.2112  -10.1906 C   0  0  0  0  0  0  0  0  0  0  0  0
  -13.4175  -38.8460  -13.4875 C   0  0  0  0  0  0  0  0  0  0  0  0
  -13.5105  -40.2822  -13.0226 C   0  0  0  0  0  0  0  0  0  0  0  0
  -12.1284  -38.7421  -14.3106 C   0  0  0  0  0  0  0  0  0  0  0  0
  1  2  1  0
  2  3  2  0
  2  4  1  0
  4  5  1  0
  5  6  1  0
  6  7  2  0
  7  8  1  0
  8  9  2  0
  9 10  1  0
 10 11  2  0
 10 12  1  0
 12 13  2  0
 12 14  1  0
 14 15  1  0
 15 16  1  1
 16 17  1  0
 17 18  2  0
 18 19  1  0
 19 20  2  0
 20 21  1  0
 21 22  2  0
 19 23  1  0
 23 24  1  0
 24 25  1  0
 25 26  1  0
 26 27  1  0
 27 28  1  0
 15 29  1  0
 29 30  1  6
 29 31  1  0
 31 32  1  0
 32 33  1  0
 33 34  1  0
 34 35  2  0
 35 36  1  0
 36 37  2  0
 37 38  1  0
 38 39  2  0
 36 40  1  0
 40 41  1  0
 40 42  1  0
 11  6  1  0
 22 17  1  0
 28  8  1  0
 39 34  1  0
M  END
$$$$
