
     RDKit          3D

 42 45  0  0  0  0  0  0  0  0999 V2000
   -8.6273  -41.5307  -10.9650 C   0  0  0  0  0  0  0  0  0  0  0  0
   -9.6999  -41.8938  -11.9298 C   0  0  0  0  0  0  0  0  0  0  0  0
   -9.3521  -42.2130  -13.0490 O   0  0  0  0  0  0  0  0  0  0  0  0
  -11.1385  -41.8662  -11.5374 C   0  0  0  0  0  0  0  0  0  0  0  0
  -11.4706  -40.8057  -10.6904 O   0  0  0  0  0  0  0  0  0  0  0  0
  -12.5127  -39.9551  -11.0209 C   0  0  0  0  0  0  0  0  0  0  0  0
  -12.3354  -38.7230  -11.5833 C   0  0  0  0  0  0  0  0  0  0  0  0
  -13.4047  -37.8529  -11.9280 C   0  0  0  0  0  0  0  0  0  0  0  0
  -14.7220  -38.2575  -11.6868 C   0  0  0  0  0  0  0  0  0  0  0  0
  -14.9261  -39.4823  -11.1211 C   0  0  0  0  0  0  0  0  0  0  0  0
  -13.8203  -40.3102  -10.7996 C   0  0  0  0  0  0  0  0  0  0  0  0
  -16.1694  -40.1631  -10.7062 C   0  0  0  0  0  0  0  0  0  0  0  0
  -16.3763  -41.4173  -11.0061 O   0  0  0  0  0  0  0  0  0  0  0  0
  -17.2862  -39.6405   -9.9614 N   0  0  0  0  0  0  0  0  0  0  0  0
  -17.1358  -38.8255   -8.7788 C   0  0  1  0  0  0  0  0  0  0  0  0
  -18.0556  -37.6845   -8.7093 C   0  0  0  0  0  0  0  0  0  0  0  0
  -17.9371  -36.5130   -9.6188 C   0  0  0  0  0  0  0  0  0  0  0  0
  -16.8491  -35.8661  -10.1291 C   0  0  0  0  0  0  0  0  0  0  0  0
  -17.0824  -34.8017  -10.9813 C   0  0  0  0  0  0  0  0  0  0  0  0
  -18.3762  -34.3908  -11.3084 C   0  0  0  0  0  0  0  0  0  0  0  0
  -19.4970  -35.0167  -10.8116 C   0  0  0  0  0  0  0  0  0  0  0  0
  -19.2404  -36.0667   -9.9765 C   0  0  0  0  0  0  0  0  0  0  0  0
  -16.1267  -33.9923  -11.6373 O   0  0  0  0  0  0  0  0  0  0  0  0
  -15.1478  -34.3511  -12.5955 C   0  0  0  0  0  0  0  0  0  0  0  0
  -13.9138  -33.5467  -12.3927 C   0  0  0  0  0  0  0  0  0  0  0  0
  -12.7081  -34.3207  -12.8633 C   0  0  0  0  0  0  0  0  0  0  0  0
  -13.0501  -35.7161  -13.3863 C   0  0  0  0  0  0  0  0  0  0  0  0
  -12.9311  -36.6926  -12.4666 O   0  0  0  0  0  0  0  0  0  0  0  0
  -17.1027  -39.6708   -7.5235 C   0  0  2  0  0  0  0  0  0  0  0  0
  -15.9066  -40.4259   -7.6384 O   0  0  0  0  0  0  0  0  0  0  0  0
  -18.2609  -40.5930   -7.3617 C   0  0  0  0  0  0  0  0  0  0  0  0
  -18.2383  -41.7237   -8.2512 N   0  0  0  0  0  0  0  0  0  0  0  0
  -19.5097  -42.4204   -8.2772 C   0  0  0  0  0  0  0  0  0  0  0  0
  -20.6227  -41.5743   -7.8033 C   0  0  0  0  0  0  0  0  0  0  0  0
  -20.7875  -41.2304   -6.4731 C   0  0  0  0  0  0  0  0  0  0  0  0
  -21.8407  -40.4321   -6.0354 C   0  0  0  0  0  0  0  0  0  0  0  0
  -22.7247  -39.9916   -6.9910 C   0  0  0  0  0  0  0  0  0  0  0  0
  -22.6177  -40.2993   -8.3405 C   0  0  0  0  0  0  0  0  0  0  0  0
  -21.5459  -41.0995   -8.7165 C   0  0  0  0  0  0  0  0  0  0  0  0
  -22.0442  -40.0492   -4.6289 C   0  0  0  0  0  0  0  0  0  0  0  0
  -20.7070  -39.7633   -3.9827 C   0  0  0  0  0  0  0  0  0  0  0  0
  -22.6185  -41.2738   -3.9074 C   0  0  0  0  0  0  0  0  0  0  0  0
  1  2  1  0
  2  3  2  0
  2  4  1  0
  4  5  1  0
  5  6  1  0
  6  7  2  0
  7  8  1  0
  8  9  2  0
  9 10  1  0
 10 11  2  0
 10 12  1  0
 12 13  2  0
 12 14  1  0
 14 15  1  0
 15 16  1  1
 16 17  1  0
 17 18  2  0
 18 19  1  0
 19 20  2  0
 20 21  1  0
 21 22  2  0
 19 23  1  0
 23 24  1  0
 24 25  1  0
 25 26  1  0
 26 27  1  0
 27 28  1  0
 15 29  1  0
 29 30  1  6
 29 31  1  0
 31 32  1  0
 32 33  1  0
 33 34  1  0
 34 35  2  0
 35 36  1  0
 36 37  2  0
 37 38  1  0
 38 39  2  0
 36 40  1  0
 40 41  1  0
 40 42  1  0
 11  6  1  0
 22 17  1  0
 28  8  1  0
 39 34  1  0
M  END
$$$$
