
     RDKit          3D

 42 45  0  0  0  0  0  0  0  0999 V2000
  -16.0079  -47.3619   -6.6993 C   0  0  0  0  0  0  0  0  0  0  0  0
  -16.7036  -47.6018   -7.9922 C   0  0  0  0  0  0  0  0  0  0  0  0
  -17.0895  -48.7326   -8.2109 O   0  0  0  0  0  0  0  0  0  0  0  0
  -16.9164  -46.5005   -8.9751 C   0  0  0  0  0  0  0  0  0  0  0  0
  -18.2608  -46.1752   -9.1735 O   0  0  0  0  0  0  0  0  0  0  0  0
  -18.8123  -45.0825   -8.5250 C   0  0  0  0  0  0  0  0  0  0  0  0
  -20.1449  -44.9564   -8.2529 C   0  0  0  0  0  0  0  0  0  0  0  0
  -20.7098  -43.8383   -7.5822 C   0  0  0  0  0  0  0  0  0  0  0  0
  -19.8754  -42.7944   -7.1682 C   0  0  0  0  0  0  0  0  0  0  0  0
  -18.5403  -42.8938   -7.4323 C   0  0  0  0  0  0  0  0  0  0  0  0
  -18.0314  -44.0348   -8.1036 C   0  0  0  0  0  0  0  0  0  0  0  0
  -17.4286  -41.9571   -7.1716 C   0  0  0  0  0  0  0  0  0  0  0  0
  -16.3038  -42.3810   -6.6608 O   0  0  0  0  0  0  0  0  0  0  0  0
  -17.3625  -40.5375   -7.4071 N   0  0  0  0  0  0  0  0  0  0  0  0
  -17.8269  -39.9157   -8.6249 C   0  0  1  0  0  0  0  0  0  0  0  0
  -18.5705  -38.6674   -8.4216 C   0  0  0  0  0  0  0  0  0  0  0  0
  -19.9254  -38.6416   -7.8074 C   0  0  0  0  0  0  0  0  0  0  0  0
  -20.9854  -39.4950   -7.9108 C   0  0  0  0  0  0  0  0  0  0  0  0
  -22.1203  -39.1928   -7.1798 C   0  0  0  0  0  0  0  0  0  0  0  0
  -22.1934  -38.0576   -6.3699 C   0  0  0  0  0  0  0  0  0  0  0  0
  -21.1463  -37.1732   -6.2428 C   0  0  0  0  0  0  0  0  0  0  0  0
  -20.0362  -37.4958   -6.9705 C   0  0  0  0  0  0  0  0  0  0  0  0
  -23.3286  -39.9239   -7.1151 O   0  0  0  0  0  0  0  0  0  0  0  0
  -23.5610  -41.2407   -6.6492 C   0  0  0  0  0  0  0  0  0  0  0  0
  -24.6130  -41.8963   -7.4704 C   0  0  0  0  0  0  0  0  0  0  0  0
  -24.4012  -43.3893   -7.4874 C   0  0  0  0  0  0  0  0  0  0  0  0
  -23.1679  -43.8353   -6.7013 C   0  0  0  0  0  0  0  0  0  0  0  0
  -22.0601  -43.9820   -7.4528 O   0  0  0  0  0  0  0  0  0  0  0  0
  -16.7205  -39.8164   -9.6534 C   0  0  2  0  0  0  0  0  0  0  0  0
  -17.1860  -40.5906  -10.7479 O   0  0  0  0  0  0  0  0  0  0  0  0
  -15.4001  -40.3358   -9.2011 C   0  0  0  0  0  0  0  0  0  0  0  0
  -14.3384  -39.3664   -9.2580 N   0  0  0  0  0  0  0  0  0  0  0  0
  -14.2289  -38.7565  -10.5690 C   0  0  0  0  0  0  0  0  0  0  0  0
  -14.7134  -37.3621  -10.5812 C   0  0  0  0  0  0  0  0  0  0  0  0
  -14.3637  -36.4570  -11.5676 C   0  0  0  0  0  0  0  0  0  0  0  0
  -14.8253  -35.1435  -11.5705 C   0  0  0  0  0  0  0  0  0  0  0  0
  -15.6553  -34.7748  -10.5391 C   0  0  0  0  0  0  0  0  0  0  0  0
  -16.0448  -35.6320   -9.5189 C   0  0  0  0  0  0  0  0  0  0  0  0
  -15.5518  -36.9300   -9.5702 C   0  0  0  0  0  0  0  0  0  0  0  0
  -14.4717  -34.1569  -12.6039 C   0  0  0  0  0  0  0  0  0  0  0  0
  -13.5384  -33.1211  -12.0178 C   0  0  0  0  0  0  0  0  0  0  0  0
  -15.7600  -33.4142  -12.9768 C   0  0  0  0  0  0  0  0  0  0  0  0
  1  2  1  0
  2  3  2  0
  2  4  1  0
  4  5  1  0
  5  6  1  0
  6  7  2  0
  7  8  1  0
  8  9  2  0
  9 10  1  0
 10 11  2  0
 10 12  1  0
 12 13  2  0
 12 14  1  0
 14 15  1  0
 15 16  1  1
 16 17  1  0
 17 18  2  0
 18 19  1  0
 19 20  2  0
 20 21  1  0
 21 22  2  0
 19 23  1  0
 23 24  1  0
 24 25  1  0
 25 26  1  0
 26 27  1  0
 27 28  1  0
 15 29  1  0
 29 30  1  6
 29 31  1  0
 31 32  1  0
 32 33  1  0
 33 34  1  0
 34 35  2  0
 35 36  1  0
 36 37  2  0
 37 38  1  0
 38 39  2  0
 36 40  1  0
 40 41  1  0
 40 42  1  0
 11  6  1  0
 22 17  1  0
 28  8  1  0
 39 34  1  0
M  END
$$$$
