
     RDKit          3D

 42 45  0  0  0  0  0  0  0  0999 V2000
  -10.4740  -44.4368  -12.2500 C   0  0  0  0  0  0  0  0  0  0  0  0
  -11.2405  -44.1879  -10.9995 C   0  0  0  0  0  0  0  0  0  0  0  0
  -11.2180  -45.0599  -10.1543 O   0  0  0  0  0  0  0  0  0  0  0  0
  -12.0025  -42.9221  -10.7953 C   0  0  0  0  0  0  0  0  0  0  0  0
  -13.1557  -42.8269  -11.5786 O   0  0  0  0  0  0  0  0  0  0  0  0
  -13.7546  -41.5947  -11.7831 C   0  0  0  0  0  0  0  0  0  0  0  0
  -13.2184  -40.6127  -12.5667 C   0  0  0  0  0  0  0  0  0  0  0  0
  -13.8358  -39.3510  -12.7814 C   0  0  0  0  0  0  0  0  0  0  0  0
  -15.0613  -39.0743  -12.1660 C   0  0  0  0  0  0  0  0  0  0  0  0
  -15.6160  -40.0372  -11.3740 C   0  0  0  0  0  0  0  0  0  0  0  0
  -14.9556  -41.2798  -11.1972 C   0  0  0  0  0  0  0  0  0  0  0  0
  -16.8517  -40.0332  -10.5649 C   0  0  0  0  0  0  0  0  0  0  0  0
  -17.6733  -41.0480  -10.5952 O   0  0  0  0  0  0  0  0  0  0  0  0
  -17.3476  -39.0201   -9.6690 N   0  0  0  0  0  0  0  0  0  0  0  0
  -16.5132  -38.3368   -8.7086 C   0  0  1  0  0  0  0  0  0  0  0  0
  -16.7628  -36.8945   -8.6079 C   0  0  0  0  0  0  0  0  0  0  0  0
  -16.4043  -35.9489   -9.6992 C   0  0  0  0  0  0  0  0  0  0  0  0
  -15.3429  -35.9121  -10.5564 C   0  0  0  0  0  0  0  0  0  0  0  0
  -15.3133  -34.8921  -11.4903 C   0  0  0  0  0  0  0  0  0  0  0  0
  -16.3204  -33.9272  -11.5584 C   0  0  0  0  0  0  0  0  0  0  0  0
  -17.4040  -33.9304  -10.7096 C   0  0  0  0  0  0  0  0  0  0  0  0
  -17.4125  -34.9494   -9.8000 C   0  0  0  0  0  0  0  0  0  0  0  0
  -14.3339  -34.6541  -12.4817 O   0  0  0  0  0  0  0  0  0  0  0  0
  -13.9436  -35.4645  -13.5754 C   0  0  0  0  0  0  0  0  0  0  0  0
  -12.4812  -35.3357  -13.8119 C   0  0  0  0  0  0  0  0  0  0  0  0
  -11.9424  -36.6035  -14.4256 C   0  0  0  0  0  0  0  0  0  0  0  0
  -13.0063  -37.6855  -14.6134 C   0  0  0  0  0  0  0  0  0  0  0  0
  -13.0738  -38.5718  -13.6018 O   0  0  0  0  0  0  0  0  0  0  0  0
  -16.4974  -39.0565   -7.3769 C   0  0  2  0  0  0  0  0  0  0  0  0
  -15.3269  -39.8577   -7.4229 O   0  0  0  0  0  0  0  0  0  0  0  0
  -17.6832  -39.9204   -7.1206 C   0  0  0  0  0  0  0  0  0  0  0  0
  -17.4004  -41.3306   -7.1612 N   0  0  0  0  0  0  0  0  0  0  0  0
  -18.4541  -42.0774   -7.8205 C   0  0  0  0  0  0  0  0  0  0  0  0
  -19.6572  -41.2566   -8.0612 C   0  0  0  0  0  0  0  0  0  0  0  0
  -20.3085  -40.5694   -7.0522 C   0  0  0  0  0  0  0  0  0  0  0  0
  -21.4430  -39.7980   -7.2887 C   0  0  0  0  0  0  0  0  0  0  0  0
  -21.8984  -39.7444   -8.5842 C   0  0  0  0  0  0  0  0  0  0  0  0
  -21.2931  -40.4089   -9.6422 C   0  0  0  0  0  0  0  0  0  0  0  0
  -20.1647  -41.1627   -9.3439 C   0  0  0  0  0  0  0  0  0  0  0  0
  -22.1586  -39.0560   -6.2381 C   0  0  0  0  0  0  0  0  0  0  0  0
  -22.9820  -40.0170   -5.4099 C   0  0  0  0  0  0  0  0  0  0  0  0
  -23.1565  -38.1291   -6.9417 C   0  0  0  0  0  0  0  0  0  0  0  0
  1  2  1  0
  2  3  2  0
  2  4  1  0
  4  5  1  0
  5  6  1  0
  6  7  2  0
  7  8  1  0
  8  9  2  0
  9 10  1  0
 10 11  2  0
 10 12  1  0
 12 13  2  0
 12 14  1  0
 14 15  1  0
 15 16  1  1
 16 17  1  0
 17 18  2  0
 18 19  1  0
 19 20  2  0
 20 21  1  0
 21 22  2  0
 19 23  1  0
 23 24  1  0
 24 25  1  0
 25 26  1  0
 26 27  1  0
 27 28  1  0
 15 29  1  0
 29 30  1  6
 29 31  1  0
 31 32  1  0
 32 33  1  0
 33 34  1  0
 34 35  2  0
 35 36  1  0
 36 37  2  0
 37 38  1  0
 38 39  2  0
 36 40  1  0
 40 41  1  0
 40 42  1  0
 11  6  1  0
 22 17  1  0
 28  8  1  0
 39 34  1  0
M  END
$$$$
