
     RDKit          3D

 42 45  0  0  0  0  0  0  0  0999 V2000
  -19.4841  -45.7867   -5.0022 C   0  0  0  0  0  0  0  0  0  0  0  0
  -18.6590  -46.0884   -6.2028 C   0  0  0  0  0  0  0  0  0  0  0  0
  -17.4527  -46.0291   -6.0739 O   0  0  0  0  0  0  0  0  0  0  0  0
  -19.2882  -46.4476   -7.5065 C   0  0  0  0  0  0  0  0  0  0  0  0
  -19.6520  -45.3418   -8.2794 O   0  0  0  0  0  0  0  0  0  0  0  0
  -18.6845  -44.6309   -8.9703 C   0  0  0  0  0  0  0  0  0  0  0  0
  -17.6253  -45.2140   -9.6056 C   0  0  0  0  0  0  0  0  0  0  0  0
  -16.6361  -44.4851  -10.3195 C   0  0  0  0  0  0  0  0  0  0  0  0
  -16.7296  -43.0910  -10.3892 C   0  0  0  0  0  0  0  0  0  0  0  0
  -17.7761  -42.4834   -9.7587 C   0  0  0  0  0  0  0  0  0  0  0  0
  -18.7355  -43.2619   -9.0623 C   0  0  0  0  0  0  0  0  0  0  0  0
  -18.1210  -41.0550   -9.6104 C   0  0  0  0  0  0  0  0  0  0  0  0
  -19.3436  -40.6392   -9.8059 O   0  0  0  0  0  0  0  0  0  0  0  0
  -17.2717  -39.9476   -9.2532 N   0  0  0  0  0  0  0  0  0  0  0  0
  -16.3112  -40.0034   -8.1763 C   0  0  1  0  0  0  0  0  0  0  0  0
  -15.0185  -39.3822   -8.4857 C   0  0  0  0  0  0  0  0  0  0  0  0
  -14.0657  -39.9764   -9.4619 C   0  0  0  0  0  0  0  0  0  0  0  0
  -13.7398  -41.2725   -9.7385 C   0  0  0  0  0  0  0  0  0  0  0  0
  -12.8123  -41.4963  -10.7402 C   0  0  0  0  0  0  0  0  0  0  0  0
  -12.2200  -40.4451  -11.4430 C   0  0  0  0  0  0  0  0  0  0  0  0
  -12.5217  -39.1260  -11.1903 C   0  0  0  0  0  0  0  0  0  0  0  0
  -13.4427  -38.9315  -10.2005 C   0  0  0  0  0  0  0  0  0  0  0  0
  -12.3285  -42.7388  -11.2103 O   0  0  0  0  0  0  0  0  0  0  0  0
  -13.0294  -43.8033  -11.8273 C   0  0  0  0  0  0  0  0  0  0  0  0
  -12.4575  -45.1080  -11.4011 C   0  0  0  0  0  0  0  0  0  0  0  0
  -13.5199  -46.1775  -11.4429 C   0  0  0  0  0  0  0  0  0  0  0  0
  -14.8909  -45.6532  -11.8713 C   0  0  0  0  0  0  0  0  0  0  0  0
  -15.6996  -45.3260  -10.8454 O   0  0  0  0  0  0  0  0  0  0  0  0
  -16.9191  -39.5475   -6.8671 C   0  0  2  0  0  0  0  0  0  0  0  0
  -16.4977  -40.5213   -5.9246 O   0  0  0  0  0  0  0  0  0  0  0  0
  -18.4060  -39.4631   -6.8657 C   0  0  0  0  0  0  0  0  0  0  0  0
  -18.9193  -38.1722   -6.4910 N   0  0  0  0  0  0  0  0  0  0  0  0
  -19.8118  -37.6292   -7.4967 C   0  0  0  0  0  0  0  0  0  0  0  0
  -21.0530  -38.4171   -7.6292 C   0  0  0  0  0  0  0  0  0  0  0  0
  -21.5348  -39.2303   -6.6186 C   0  0  0  0  0  0  0  0  0  0  0  0
  -22.7063  -39.9702   -6.7530 C   0  0  0  0  0  0  0  0  0  0  0  0
  -23.3770  -39.8599   -7.9474 C   0  0  0  0  0  0  0  0  0  0  0  0
  -22.9492  -39.0632   -9.0009 C   0  0  0  0  0  0  0  0  0  0  0  0
  -21.7734  -38.3487   -8.8074 C   0  0  0  0  0  0  0  0  0  0  0  0
  -23.2447  -40.8442   -5.6981 C   0  0  0  0  0  0  0  0  0  0  0  0
  -24.7556  -40.7768   -5.7059 C   0  0  0  0  0  0  0  0  0  0  0  0
  -22.7941  -40.2587   -4.3549 C   0  0  0  0  0  0  0  0  0  0  0  0
  1  2  1  0
  2  3  2  0
  2  4  1  0
  4  5  1  0
  5  6  1  0
  6  7  2  0
  7  8  1  0
  8  9  2  0
  9 10  1  0
 10 11  2  0
 10 12  1  0
 12 13  2  0
 12 14  1  0
 14 15  1  0
 15 16  1  6
 16 17  1  0
 17 18  2  0
 18 19  1  0
 19 20  2  0
 20 21  1  0
 21 22  2  0
 19 23  1  0
 23 24  1  0
 24 25  1  0
 25 26  1  0
 26 27  1  0
 27 28  1  0
 15 29  1  0
 29 30  1  1
 29 31  1  0
 31 32  1  0
 32 33  1  0
 33 34  1  0
 34 35  2  0
 35 36  1  0
 36 37  2  0
 37 38  1  0
 38 39  2  0
 36 40  1  0
 40 41  1  0
 40 42  1  0
 11  6  1  0
 22 17  1  0
 28  8  1  0
 39 34  1  0
M  END
$$$$
