
     RDKit          3D

 42 45  0  0  0  0  0  0  0  0999 V2000
  -21.3693  -38.2137  -14.2394 C   0  0  0  0  0  0  0  0  0  0  0  0
  -19.9208  -37.8947  -14.1243 C   0  0  0  0  0  0  0  0  0  0  0  0
  -19.3292  -37.6315  -15.1520 O   0  0  0  0  0  0  0  0  0  0  0  0
  -19.2278  -37.8987  -12.8037 C   0  0  0  0  0  0  0  0  0  0  0  0
  -20.0709  -37.6195  -11.7249 O   0  0  0  0  0  0  0  0  0  0  0  0
  -20.2234  -38.5463  -10.7068 C   0  0  0  0  0  0  0  0  0  0  0  0
  -21.4183  -38.8195  -10.1040 C   0  0  0  0  0  0  0  0  0  0  0  0
  -21.5759  -39.7747   -9.0638 C   0  0  0  0  0  0  0  0  0  0  0  0
  -20.4596  -40.4875   -8.6134 C   0  0  0  0  0  0  0  0  0  0  0  0
  -19.2529  -40.2296   -9.1960 C   0  0  0  0  0  0  0  0  0  0  0  0
  -19.1551  -39.2664  -10.2323 C   0  0  0  0  0  0  0  0  0  0  0  0
  -17.9068  -40.7697   -8.9168 C   0  0  0  0  0  0  0  0  0  0  0  0
  -17.1268  -41.1561   -9.8904 O   0  0  0  0  0  0  0  0  0  0  0  0
  -17.2476  -40.9558   -7.6495 N   0  0  0  0  0  0  0  0  0  0  0  0
  -17.2527  -39.9617   -6.6022 C   0  0  1  0  0  0  0  0  0  0  0  0
  -17.4560  -40.5040   -5.2541 C   0  0  0  0  0  0  0  0  0  0  0  0
  -18.7582  -41.0752   -4.8164 C   0  0  0  0  0  0  0  0  0  0  0  0
  -20.0457  -40.7108   -5.0852 C   0  0  0  0  0  0  0  0  0  0  0  0
  -21.0541  -41.4777   -4.5296 C   0  0  0  0  0  0  0  0  0  0  0  0
  -20.7782  -42.5797   -3.7176 C   0  0  0  0  0  0  0  0  0  0  0  0
  -19.4933  -42.9756   -3.4225 C   0  0  0  0  0  0  0  0  0  0  0  0
  -18.5160  -42.2055   -3.9861 C   0  0  0  0  0  0  0  0  0  0  0  0
  -22.4503  -41.3067   -4.6722 O   0  0  0  0  0  0  0  0  0  0  0  0
  -23.2509  -41.3680   -5.8385 C   0  0  0  0  0  0  0  0  0  0  0  0
  -24.3534  -40.3737   -5.7554 C   0  0  0  0  0  0  0  0  0  0  0  0
  -24.7555  -39.9296   -7.1395 C   0  0  0  0  0  0  0  0  0  0  0  0
  -23.9238  -40.5750   -8.2484 C   0  0  0  0  0  0  0  0  0  0  0  0
  -22.8750  -39.8330   -8.6519 O   0  0  0  0  0  0  0  0  0  0  0  0
  -16.0688  -39.0257   -6.7205 C   0  0  2  0  0  0  0  0  0  0  0  0
  -16.5358  -37.7971   -6.1850 O   0  0  0  0  0  0  0  0  0  0  0  0
  -15.5808  -38.8100   -8.1109 C   0  0  0  0  0  0  0  0  0  0  0  0
  -15.4965  -40.0132   -8.8955 N   0  0  0  0  0  0  0  0  0  0  0  0
  -14.1520  -40.2504   -9.3842 C   0  0  0  0  0  0  0  0  0  0  0  0
  -13.6386  -39.1210  -10.1841 C   0  0  0  0  0  0  0  0  0  0  0  0
  -14.4420  -38.3765  -11.0297 C   0  0  0  0  0  0  0  0  0  0  0  0
  -13.9486  -37.3132  -11.7807 C   0  0  0  0  0  0  0  0  0  0  0  0
  -12.6112  -37.0267  -11.6477 C   0  0  0  0  0  0  0  0  0  0  0  0
  -11.7504  -37.7328  -10.8183 C   0  0  0  0  0  0  0  0  0  0  0  0
  -12.3009  -38.7830  -10.0941 C   0  0  0  0  0  0  0  0  0  0  0  0
  -14.7761  -36.5027  -12.6889 C   0  0  0  0  0  0  0  0  0  0  0  0
  -15.3174  -37.3771  -13.7979 C   0  0  0  0  0  0  0  0  0  0  0  0
  -13.8455  -35.4847  -13.3581 C   0  0  0  0  0  0  0  0  0  0  0  0
  1  2  1  0
  2  3  2  0
  2  4  1  0
  4  5  1  0
  5  6  1  0
  6  7  2  0
  7  8  1  0
  8  9  2  0
  9 10  1  0
 10 11  2  0
 10 12  1  0
 12 13  2  0
 12 14  1  0
 14 15  1  0
 15 16  1  1
 16 17  1  0
 17 18  2  0
 18 19  1  0
 19 20  2  0
 20 21  1  0
 21 22  2  0
 19 23  1  0
 23 24  1  0
 24 25  1  0
 25 26  1  0
 26 27  1  0
 27 28  1  0
 15 29  1  0
 29 30  1  6
 29 31  1  0
 31 32  1  0
 32 33  1  0
 33 34  1  0
 34 35  2  0
 35 36  1  0
 36 37  2  0
 37 38  1  0
 38 39  2  0
 36 40  1  0
 40 41  1  0
 40 42  1  0
 11  6  1  0
 22 17  1  0
 28  8  1  0
 39 34  1  0
M  END
$$$$
