
     RDKit          3D

 42 45  0  0  0  0  0  0  0  0999 V2000
  -12.6557  -44.0087  -10.7554 C   0  0  0  0  0  0  0  0  0  0  0  0
  -13.6927  -44.9832  -11.1892 C   0  0  0  0  0  0  0  0  0  0  0  0
  -13.4845  -45.5897  -12.2208 O   0  0  0  0  0  0  0  0  0  0  0  0
  -14.9328  -45.2038  -10.3905 C   0  0  0  0  0  0  0  0  0  0  0  0
  -16.0571  -44.5533  -10.9056 O   0  0  0  0  0  0  0  0  0  0  0  0
  -16.9839  -43.9863  -10.0464 C   0  0  0  0  0  0  0  0  0  0  0  0
  -18.3045  -44.3342  -10.0202 C   0  0  0  0  0  0  0  0  0  0  0  0
  -19.2540  -43.7570   -9.1345 C   0  0  0  0  0  0  0  0  0  0  0  0
  -18.8379  -42.7743   -8.2298 C   0  0  0  0  0  0  0  0  0  0  0  0
  -17.5242  -42.4053   -8.2390 C   0  0  0  0  0  0  0  0  0  0  0  0
  -16.6202  -43.0174   -9.1442 C   0  0  0  0  0  0  0  0  0  0  0  0
  -16.7990  -41.3843   -7.4561 C   0  0  0  0  0  0  0  0  0  0  0  0
  -15.6458  -41.6578   -6.9073 O   0  0  0  0  0  0  0  0  0  0  0  0
  -17.1725  -40.0222   -7.1725 N   0  0  0  0  0  0  0  0  0  0  0  0
  -17.7057  -39.1247   -8.1703 C   0  0  1  0  0  0  0  0  0  0  0  0
  -18.8255  -38.2988   -7.7047 C   0  0  0  0  0  0  0  0  0  0  0  0
  -20.1642  -38.8737   -7.4034 C   0  0  0  0  0  0  0  0  0  0  0  0
  -20.8809  -39.8684   -8.0029 C   0  0  0  0  0  0  0  0  0  0  0  0
  -22.1110  -40.1862   -7.4557 C   0  0  0  0  0  0  0  0  0  0  0  0
  -22.6141  -39.5172   -6.3379 C   0  0  0  0  0  0  0  0  0  0  0  0
  -21.9216  -38.5078   -5.7086 C   0  0  0  0  0  0  0  0  0  0  0  0
  -20.7087  -38.2159   -6.2648 C   0  0  0  0  0  0  0  0  0  0  0  0
  -23.0213  -41.1774   -7.8888 O   0  0  0  0  0  0  0  0  0  0  0  0
  -22.8574  -42.5822   -7.9588 C   0  0  0  0  0  0  0  0  0  0  0  0
  -23.5686  -43.1220   -9.1479 C   0  0  0  0  0  0  0  0  0  0  0  0
  -22.8877  -44.3772   -9.6327 C   0  0  0  0  0  0  0  0  0  0  0  0
  -21.6488  -44.7482   -8.8171 C   0  0  0  0  0  0  0  0  0  0  0  0
  -20.4924  -44.2924   -9.3354 O   0  0  0  0  0  0  0  0  0  0  0  0
  -16.6060  -38.3447   -8.8587 C   0  0  2  0  0  0  0  0  0  0  0  0
  -17.1890  -37.9160  -10.0795 O   0  0  0  0  0  0  0  0  0  0  0  0
  -15.3711  -39.1269   -9.1435 C   0  0  0  0  0  0  0  0  0  0  0  0
  -14.1683  -38.3374   -9.1604 N   0  0  0  0  0  0  0  0  0  0  0  0
  -14.4143  -36.9817   -9.6123 C   0  0  0  0  0  0  0  0  0  0  0  0
  -13.8167  -36.7143  -10.9354 C   0  0  0  0  0  0  0  0  0  0  0  0
  -12.9636  -37.6036  -11.5647 C   0  0  0  0  0  0  0  0  0  0  0  0
  -12.4043  -37.3425  -12.8125 C   0  0  0  0  0  0  0  0  0  0  0  0
  -12.7378  -36.1482  -13.4049 C   0  0  0  0  0  0  0  0  0  0  0  0
  -13.5866  -35.2126  -12.8291 C   0  0  0  0  0  0  0  0  0  0  0  0
  -14.1135  -35.5294  -11.5832 C   0  0  0  0  0  0  0  0  0  0  0  0
  -11.4936  -38.2665  -13.5078 C   0  0  0  0  0  0  0  0  0  0  0  0
  -10.0658  -37.9667  -13.1095 C   0  0  0  0  0  0  0  0  0  0  0  0
  -11.5969  -37.9581  -15.0059 C   0  0  0  0  0  0  0  0  0  0  0  0
  1  2  1  0
  2  3  2  0
  2  4  1  0
  4  5  1  0
  5  6  1  0
  6  7  2  0
  7  8  1  0
  8  9  2  0
  9 10  1  0
 10 11  2  0
 10 12  1  0
 12 13  2  0
 12 14  1  0
 14 15  1  0
 15 16  1  1
 16 17  1  0
 17 18  2  0
 18 19  1  0
 19 20  2  0
 20 21  1  0
 21 22  2  0
 19 23  1  0
 23 24  1  0
 24 25  1  0
 25 26  1  0
 26 27  1  0
 27 28  1  0
 15 29  1  0
 29 30  1  6
 29 31  1  0
 31 32  1  0
 32 33  1  0
 33 34  1  0
 34 35  2  0
 35 36  1  0
 36 37  2  0
 37 38  1  0
 38 39  2  0
 36 40  1  0
 40 41  1  0
 40 42  1  0
 11  6  1  0
 22 17  1  0
 28  8  1  0
 39 34  1  0
M  END
$$$$
