
     RDKit          3D

 42 45  0  0  0  0  0  0  0  0999 V2000
  -21.5856  -45.9492   -8.0307 C   0  0  0  0  0  0  0  0  0  0  0  0
  -20.3279  -46.6234   -7.6102 C   0  0  0  0  0  0  0  0  0  0  0  0
  -20.4247  -47.5094   -6.7849 O   0  0  0  0  0  0  0  0  0  0  0  0
  -19.0073  -46.2269   -8.1787 C   0  0  0  0  0  0  0  0  0  0  0  0
  -18.5851  -44.9539   -7.7864 O   0  0  0  0  0  0  0  0  0  0  0  0
  -17.9918  -44.1063   -8.7074 C   0  0  0  0  0  0  0  0  0  0  0  0
  -17.0447  -44.5079   -9.6060 C   0  0  0  0  0  0  0  0  0  0  0  0
  -16.4405  -43.6397  -10.5549 C   0  0  0  0  0  0  0  0  0  0  0  0
  -16.8192  -42.2933  -10.5901 C   0  0  0  0  0  0  0  0  0  0  0  0
  -17.7603  -41.8656   -9.6994 C   0  0  0  0  0  0  0  0  0  0  0  0
  -18.3313  -42.7777   -8.7756 C   0  0  0  0  0  0  0  0  0  0  0  0
  -18.3257  -40.5229   -9.4571 C   0  0  0  0  0  0  0  0  0  0  0  0
  -19.6134  -40.3558   -9.3161 O   0  0  0  0  0  0  0  0  0  0  0  0
  -17.6453  -39.2591   -9.3346 N   0  0  0  0  0  0  0  0  0  0  0  0
  -16.4433  -39.0808   -8.5544 C   0  0  1  0  0  0  0  0  0  0  0  0
  -15.4247  -38.2416   -9.1954 C   0  0  0  0  0  0  0  0  0  0  0  0
  -14.6658  -38.6903  -10.3939 C   0  0  0  0  0  0  0  0  0  0  0  0
  -14.1779  -39.9129  -10.7542 C   0  0  0  0  0  0  0  0  0  0  0  0
  -13.5219  -40.0045  -11.9687 C   0  0  0  0  0  0  0  0  0  0  0  0
  -13.3526  -38.8947  -12.7991 C   0  0  0  0  0  0  0  0  0  0  0  0
  -13.8284  -37.6461  -12.4682 C   0  0  0  0  0  0  0  0  0  0  0  0
  -14.4757  -37.5827  -11.2671 C   0  0  0  0  0  0  0  0  0  0  0  0
  -12.9463  -41.1538  -12.5573 O   0  0  0  0  0  0  0  0  0  0  0  0
  -13.5634  -42.3598  -12.9696 C   0  0  0  0  0  0  0  0  0  0  0  0
  -12.6562  -43.5109  -12.7186 C   0  0  0  0  0  0  0  0  0  0  0  0
  -13.4623  -44.7629  -12.4799 C   0  0  0  0  0  0  0  0  0  0  0  0
  -14.9726  -44.5285  -12.5231 C   0  0  0  0  0  0  0  0  0  0  0  0
  -15.5302  -44.3121  -11.3165 O   0  0  0  0  0  0  0  0  0  0  0  0
  -16.7616  -38.6866   -7.1280 C   0  0  2  0  0  0  0  0  0  0  0  0
  -15.8623  -39.4526   -6.3414 O   0  0  0  0  0  0  0  0  0  0  0  0
  -18.1606  -38.9668   -6.7008 C   0  0  0  0  0  0  0  0  0  0  0  0
  -18.2800  -39.4023   -5.3347 N   0  0  0  0  0  0  0  0  0  0  0  0
  -19.4945  -40.1622   -5.1107 C   0  0  0  0  0  0  0  0  0  0  0  0
  -20.5409  -39.8534   -6.1051 C   0  0  0  0  0  0  0  0  0  0  0  0
  -21.0333  -40.7958   -6.9906 C   0  0  0  0  0  0  0  0  0  0  0  0
  -22.0200  -40.4951   -7.9255 C   0  0  0  0  0  0  0  0  0  0  0  0
  -22.4940  -39.2052   -7.9350 C   0  0  0  0  0  0  0  0  0  0  0  0
  -22.0441  -38.2122   -7.0754 C   0  0  0  0  0  0  0  0  0  0  0  0
  -21.0585  -38.5727   -6.1647 C   0  0  0  0  0  0  0  0  0  0  0  0
  -22.5641  -41.4738   -8.8808 C   0  0  0  0  0  0  0  0  0  0  0  0
  -21.9435  -41.2525  -10.2421 C   0  0  0  0  0  0  0  0  0  0  0  0
  -24.0589  -41.1702   -9.0341 C   0  0  0  0  0  0  0  0  0  0  0  0
  1  2  1  0
  2  3  2  0
  2  4  1  0
  4  5  1  0
  5  6  1  0
  6  7  2  0
  7  8  1  0
  8  9  2  0
  9 10  1  0
 10 11  2  0
 10 12  1  0
 12 13  2  0
 12 14  1  0
 14 15  1  0
 15 16  1  6
 16 17  1  0
 17 18  2  0
 18 19  1  0
 19 20  2  0
 20 21  1  0
 21 22  2  0
 19 23  1  0
 23 24  1  0
 24 25  1  0
 25 26  1  0
 26 27  1  0
 27 28  1  0
 15 29  1  0
 29 30  1  1
 29 31  1  0
 31 32  1  0
 32 33  1  0
 33 34  1  0
 34 35  2  0
 35 36  1  0
 36 37  2  0
 37 38  1  0
 38 39  2  0
 36 40  1  0
 40 41  1  0
 40 42  1  0
 11  6  1  0
 22 17  1  0
 28  8  1  0
 39 34  1  0
M  END
$$$$
