
     RDKit          3D

 42 45  0  0  0  0  0  0  0  0999 V2000
  -15.7128  -38.3557  -14.7745 C   0  0  0  0  0  0  0  0  0  0  0  0
  -15.5767  -39.6714  -14.0937 C   0  0  0  0  0  0  0  0  0  0  0  0
  -14.9024  -40.5147  -14.6501 O   0  0  0  0  0  0  0  0  0  0  0  0
  -16.2405  -39.9406  -12.7856 C   0  0  0  0  0  0  0  0  0  0  0  0
  -17.5493  -40.4152  -12.9056 O   0  0  0  0  0  0  0  0  0  0  0  0
  -18.2993  -40.6740  -11.7703 C   0  0  0  0  0  0  0  0  0  0  0  0
  -19.6612  -40.5795  -11.7244 C   0  0  0  0  0  0  0  0  0  0  0  0
  -20.4311  -40.8511  -10.5613 C   0  0  0  0  0  0  0  0  0  0  0  0
  -19.7812  -41.2376   -9.3843 C   0  0  0  0  0  0  0  0  0  0  0  0
  -18.4202  -41.3348   -9.4024 C   0  0  0  0  0  0  0  0  0  0  0  0
  -17.7031  -41.0537  -10.5932 C   0  0  0  0  0  0  0  0  0  0  0  0
  -17.4580  -41.6657   -8.3318 C   0  0  0  0  0  0  0  0  0  0  0  0
  -16.4861  -42.5117   -8.5451 O   0  0  0  0  0  0  0  0  0  0  0  0
  -17.3979  -41.1720   -6.9799 N   0  0  0  0  0  0  0  0  0  0  0  0
  -17.5583  -39.7778   -6.6396 C   0  0  1  0  0  0  0  0  0  0  0  0
  -18.3853  -39.5360   -5.4520 C   0  0  0  0  0  0  0  0  0  0  0  0
  -19.8529  -39.7806   -5.4436 C   0  0  0  0  0  0  0  0  0  0  0  0
  -20.8097  -39.5948   -6.3988 C   0  0  0  0  0  0  0  0  0  0  0  0
  -22.1080  -39.9484   -6.0774 C   0  0  0  0  0  0  0  0  0  0  0  0
  -22.4403  -40.4691   -4.8251 C   0  0  0  0  0  0  0  0  0  0  0  0
  -21.5034  -40.6680   -3.8364 C   0  0  0  0  0  0  0  0  0  0  0  0
  -20.2291  -40.3155   -4.1795 C   0  0  0  0  0  0  0  0  0  0  0  0
  -23.2571  -39.8608   -6.8964 O   0  0  0  0  0  0  0  0  0  0  0  0
  -23.5420  -40.5115   -8.1213 C   0  0  0  0  0  0  0  0  0  0  0  0
  -24.3141  -39.6070   -9.0140 C   0  0  0  0  0  0  0  0  0  0  0  0
  -24.0372  -39.9444  -10.4576 C   0  0  0  0  0  0  0  0  0  0  0  0
  -23.0311  -41.0824  -10.6317 C   0  0  0  0  0  0  0  0  0  0  0  0
  -21.7608  -40.6714  -10.8072 O   0  0  0  0  0  0  0  0  0  0  0  0
  -16.2288  -39.0541   -6.6254 C   0  0  2  0  0  0  0  0  0  0  0  0
  -16.5684  -37.6889   -6.8126 O   0  0  0  0  0  0  0  0  0  0  0  0
  -15.2752  -39.4807   -7.6869 C   0  0  0  0  0  0  0  0  0  0  0  0
  -14.6990  -40.7809   -7.4689 N   0  0  0  0  0  0  0  0  0  0  0  0
  -13.2522  -40.7276   -7.3875 C   0  0  0  0  0  0  0  0  0  0  0  0
  -12.6036  -41.1634   -8.6399 C   0  0  0  0  0  0  0  0  0  0  0  0
  -12.5712  -40.3778   -9.7786 C   0  0  0  0  0  0  0  0  0  0  0  0
  -11.9575  -40.7976  -10.9556 C   0  0  0  0  0  0  0  0  0  0  0  0
  -11.3754  -42.0424  -10.9426 C   0  0  0  0  0  0  0  0  0  0  0  0
  -11.3720  -42.8803   -9.8357 C   0  0  0  0  0  0  0  0  0  0  0  0
  -12.0000  -42.4064   -8.6906 C   0  0  0  0  0  0  0  0  0  0  0  0
  -11.9063  -39.9868  -12.1829 C   0  0  0  0  0  0  0  0  0  0  0  0
  -11.2321  -38.6651  -11.8898 C   0  0  0  0  0  0  0  0  0  0  0  0
  -13.3537  -39.6568  -12.5652 C   0  0  0  0  0  0  0  0  0  0  0  0
  1  2  1  0
  2  3  2  0
  2  4  1  0
  4  5  1  0
  5  6  1  0
  6  7  2  0
  7  8  1  0
  8  9  2  0
  9 10  1  0
 10 11  2  0
 10 12  1  0
 12 13  2  0
 12 14  1  0
 14 15  1  0
 15 16  1  1
 16 17  1  0
 17 18  2  0
 18 19  1  0
 19 20  2  0
 20 21  1  0
 21 22  2  0
 19 23  1  0
 23 24  1  0
 24 25  1  0
 25 26  1  0
 26 27  1  0
 27 28  1  0
 15 29  1  0
 29 30  1  6
 29 31  1  0
 31 32  1  0
 32 33  1  0
 33 34  1  0
 34 35  2  0
 35 36  1  0
 36 37  2  0
 37 38  1  0
 38 39  2  0
 36 40  1  0
 40 41  1  0
 40 42  1  0
 11  6  1  0
 22 17  1  0
 28  8  1  0
 39 34  1  0
M  END
$$$$
