
     RDKit          3D

 42 45  0  0  0  0  0  0  0  0999 V2000
  -11.9599  -45.8192   -8.5312 C   0  0  0  0  0  0  0  0  0  0  0  0
  -13.2926  -45.2089   -8.7851 C   0  0  0  0  0  0  0  0  0  0  0  0
  -13.3323  -44.2658   -9.5495 O   0  0  0  0  0  0  0  0  0  0  0  0
  -14.5244  -45.7339   -8.1283 C   0  0  0  0  0  0  0  0  0  0  0  0
  -15.7066  -45.3773   -8.7825 O   0  0  0  0  0  0  0  0  0  0  0  0
  -16.5604  -44.4472   -8.2128 C   0  0  0  0  0  0  0  0  0  0  0  0
  -17.7550  -44.7701   -7.6344 C   0  0  0  0  0  0  0  0  0  0  0  0
  -18.6280  -43.8167   -7.0445 C   0  0  0  0  0  0  0  0  0  0  0  0
  -18.2669  -42.4651   -7.0444 C   0  0  0  0  0  0  0  0  0  0  0  0
  -17.0803  -42.1155   -7.6204 C   0  0  0  0  0  0  0  0  0  0  0  0
  -16.2473  -43.1106   -8.1925 C   0  0  0  0  0  0  0  0  0  0  0  0
  -16.4514  -40.7939   -7.8186 C   0  0  0  0  0  0  0  0  0  0  0  0
  -15.1874  -40.6081   -7.5477 O   0  0  0  0  0  0  0  0  0  0  0  0
  -17.0394  -39.5717   -8.3041 N   0  0  0  0  0  0  0  0  0  0  0  0
  -17.9155  -39.5170   -9.4507 C   0  0  1  0  0  0  0  0  0  0  0  0
  -19.0787  -38.6389   -9.2821 C   0  0  0  0  0  0  0  0  0  0  0  0
  -20.1948  -38.9692   -8.3553 C   0  0  0  0  0  0  0  0  0  0  0  0
  -20.7879  -40.1559   -8.0351 C   0  0  0  0  0  0  0  0  0  0  0  0
  -21.8081  -40.1268   -7.1012 C   0  0  0  0  0  0  0  0  0  0  0  0
  -22.2288  -38.9348   -6.5079 C   0  0  0  0  0  0  0  0  0  0  0  0
  -21.6566  -37.7193   -6.8075 C   0  0  0  0  0  0  0  0  0  0  0  0
  -20.6493  -37.7750   -7.7284 C   0  0  0  0  0  0  0  0  0  0  0  0
  -22.5583  -41.2172   -6.6043 O   0  0  0  0  0  0  0  0  0  0  0  0
  -22.1250  -42.3507   -5.8746 C   0  0  0  0  0  0  0  0  0  0  0  0
  -22.9119  -43.5477   -6.2733 C   0  0  0  0  0  0  0  0  0  0  0  0
  -22.0863  -44.7959   -6.0864 C   0  0  0  0  0  0  0  0  0  0  0  0
  -20.6718  -44.5162   -5.5777 C   0  0  0  0  0  0  0  0  0  0  0  0
  -19.7458  -44.4231   -6.5509 O   0  0  0  0  0  0  0  0  0  0  0  0
  -17.1409  -39.2790  -10.7294 C   0  0  2  0  0  0  0  0  0  0  0  0
  -16.8432  -40.5812  -11.2087 O   0  0  0  0  0  0  0  0  0  0  0  0
  -15.8773  -38.5094  -10.5591 C   0  0  0  0  0  0  0  0  0  0  0  0
  -15.7807  -37.3477  -11.4024 N   0  0  0  0  0  0  0  0  0  0  0  0
  -16.1941  -36.1403  -10.7139 C   0  0  0  0  0  0  0  0  0  0  0  0
  -17.5557  -35.7159  -11.0944 C   0  0  0  0  0  0  0  0  0  0  0  0
  -18.1286  -34.5419  -10.6383 C   0  0  0  0  0  0  0  0  0  0  0  0
  -19.4140  -34.1500  -11.0023 C   0  0  0  0  0  0  0  0  0  0  0  0
  -20.1030  -34.9878  -11.8461 C   0  0  0  0  0  0  0  0  0  0  0  0
  -19.5878  -36.1787  -12.3399 C   0  0  0  0  0  0  0  0  0  0  0  0
  -18.3003  -36.5162  -11.9412 C   0  0  0  0  0  0  0  0  0  0  0  0
  -20.0516  -32.9088  -10.5343 C   0  0  0  0  0  0  0  0  0  0  0  0
  -21.3706  -33.2355   -9.8703 C   0  0  0  0  0  0  0  0  0  0  0  0
  -20.3893  -32.0793  -11.7785 C   0  0  0  0  0  0  0  0  0  0  0  0
  1  2  1  0
  2  3  2  0
  2  4  1  0
  4  5  1  0
  5  6  1  0
  6  7  2  0
  7  8  1  0
  8  9  2  0
  9 10  1  0
 10 11  2  0
 10 12  1  0
 12 13  2  0
 12 14  1  0
 14 15  1  0
 15 16  1  1
 16 17  1  0
 17 18  2  0
 18 19  1  0
 19 20  2  0
 20 21  1  0
 21 22  2  0
 19 23  1  0
 23 24  1  0
 24 25  1  0
 25 26  1  0
 26 27  1  0
 27 28  1  0
 15 29  1  0
 29 30  1  1
 29 31  1  0
 31 32  1  0
 32 33  1  0
 33 34  1  0
 34 35  2  0
 35 36  1  0
 36 37  2  0
 37 38  1  0
 38 39  2  0
 36 40  1  0
 40 41  1  0
 40 42  1  0
 11  6  1  0
 22 17  1  0
 28  8  1  0
 39 34  1  0
M  END
$$$$
