
     RDKit          3D

 42 45  0  0  0  0  0  0  0  0999 V2000
  -16.9918  -47.7430   -5.1902 C   0  0  0  0  0  0  0  0  0  0  0  0
  -17.6728  -47.0006   -6.2849 C   0  0  0  0  0  0  0  0  0  0  0  0
  -18.8389  -47.2695   -6.4932 O   0  0  0  0  0  0  0  0  0  0  0  0
  -16.9529  -45.9720   -7.0898 C   0  0  0  0  0  0  0  0  0  0  0  0
  -17.7252  -45.4163   -8.1132 O   0  0  0  0  0  0  0  0  0  0  0  0
  -18.4999  -44.2950   -7.8659 C   0  0  0  0  0  0  0  0  0  0  0  0
  -19.8658  -44.3016   -7.8721 C   0  0  0  0  0  0  0  0  0  0  0  0
  -20.6605  -43.1527   -7.6123 C   0  0  0  0  0  0  0  0  0  0  0  0
  -20.0325  -41.9342   -7.3329 C   0  0  0  0  0  0  0  0  0  0  0  0
  -18.6684  -41.8997   -7.3253 C   0  0  0  0  0  0  0  0  0  0  0  0
  -17.9259  -43.0787   -7.5898 C   0  0  0  0  0  0  0  0  0  0  0  0
  -17.7285  -40.7797   -7.1164 C   0  0  0  0  0  0  0  0  0  0  0  0
  -16.6967  -40.9118   -6.3267 O   0  0  0  0  0  0  0  0  0  0  0  0
  -17.7521  -39.4560   -7.6842 N   0  0  0  0  0  0  0  0  0  0  0  0
  -18.0148  -39.1994   -9.0808 C   0  0  1  0  0  0  0  0  0  0  0  0
  -18.9004  -38.0565   -9.3300 C   0  0  0  0  0  0  0  0  0  0  0  0
  -20.3484  -38.0853   -8.9892 C   0  0  0  0  0  0  0  0  0  0  0  0
  -21.2781  -39.0820   -9.0601 C   0  0  0  0  0  0  0  0  0  0  0  0
  -22.5622  -38.7867   -8.6387 C   0  0  0  0  0  0  0  0  0  0  0  0
  -22.9079  -37.5197   -8.1644 C   0  0  0  0  0  0  0  0  0  0  0  0
  -21.9987  -36.4896   -8.0810 C   0  0  0  0  0  0  0  0  0  0  0  0
  -20.7375  -36.8073   -8.4985 C   0  0  0  0  0  0  0  0  0  0  0  0
  -23.6824  -39.6486   -8.6062 O   0  0  0  0  0  0  0  0  0  0  0  0
  -23.8779  -40.8446   -7.8739 C   0  0  0  0  0  0  0  0  0  0  0  0
  -24.6718  -41.8124   -8.6764 C   0  0  0  0  0  0  0  0  0  0  0  0
  -24.3188  -43.2245   -8.2819 C   0  0  0  0  0  0  0  0  0  0  0  0
  -23.2356  -43.3002   -7.2054 C   0  0  0  0  0  0  0  0  0  0  0  0
  -21.9886  -43.4542   -7.6900 O   0  0  0  0  0  0  0  0  0  0  0  0
  -16.7361  -39.1794   -9.8908 C   0  0  2  0  0  0  0  0  0  0  0  0
  -17.0038  -40.0321  -10.9933 O   0  0  0  0  0  0  0  0  0  0  0  0
  -15.5303  -39.6665   -9.1650 C   0  0  0  0  0  0  0  0  0  0  0  0
  -15.1445  -38.8423   -8.0506 N   0  0  0  0  0  0  0  0  0  0  0  0
  -14.9111  -37.4670   -8.4468 C   0  0  0  0  0  0  0  0  0  0  0  0
  -14.8284  -37.3119   -9.9124 C   0  0  0  0  0  0  0  0  0  0  0  0
  -13.6356  -37.4003  -10.6082 C   0  0  0  0  0  0  0  0  0  0  0  0
  -13.5673  -37.2521  -11.9908 C   0  0  0  0  0  0  0  0  0  0  0  0
  -14.7495  -37.0108  -12.6486 C   0  0  0  0  0  0  0  0  0  0  0  0
  -15.9792  -36.9103  -12.0121 C   0  0  0  0  0  0  0  0  0  0  0  0
  -15.9836  -37.0673  -10.6316 C   0  0  0  0  0  0  0  0  0  0  0  0
  -12.3154  -37.3399  -12.7598 C   0  0  0  0  0  0  0  0  0  0  0  0
  -11.3550  -38.2754  -12.0600 C   0  0  0  0  0  0  0  0  0  0  0  0
  -11.6670  -35.9512  -12.7244 C   0  0  0  0  0  0  0  0  0  0  0  0
  1  2  1  0
  2  3  2  0
  2  4  1  0
  4  5  1  0
  5  6  1  0
  6  7  2  0
  7  8  1  0
  8  9  2  0
  9 10  1  0
 10 11  2  0
 10 12  1  0
 12 13  2  0
 12 14  1  0
 14 15  1  0
 15 16  1  1
 16 17  1  0
 17 18  2  0
 18 19  1  0
 19 20  2  0
 20 21  1  0
 21 22  2  0
 19 23  1  0
 23 24  1  0
 24 25  1  0
 25 26  1  0
 26 27  1  0
 27 28  1  0
 15 29  1  0
 29 30  1  6
 29 31  1  0
 31 32  1  0
 32 33  1  0
 33 34  1  0
 34 35  2  0
 35 36  1  0
 36 37  2  0
 37 38  1  0
 38 39  2  0
 36 40  1  0
 40 41  1  0
 40 42  1  0
 11  6  1  0
 22 17  1  0
 28  8  1  0
 39 34  1  0
M  END
$$$$
