
     RDKit          3D

 42 45  0  0  0  0  0  0  0  0999 V2000
  -20.9589  -46.1020   -5.0038 C   0  0  0  0  0  0  0  0  0  0  0  0
  -21.0394  -44.6294   -5.1993 C   0  0  0  0  0  0  0  0  0  0  0  0
  -20.5503  -43.9294   -4.3356 O   0  0  0  0  0  0  0  0  0  0  0  0
  -21.6928  -44.0411   -6.4040 C   0  0  0  0  0  0  0  0  0  0  0  0
  -20.7916  -43.6411   -7.3942 O   0  0  0  0  0  0  0  0  0  0  0  0
  -20.4899  -42.2988   -7.5550 C   0  0  0  0  0  0  0  0  0  0  0  0
  -21.4014  -41.2935   -7.3987 C   0  0  0  0  0  0  0  0  0  0  0  0
  -21.0904  -39.9161   -7.5577 C   0  0  0  0  0  0  0  0  0  0  0  0
  -19.7847  -39.5430   -7.8942 C   0  0  0  0  0  0  0  0  0  0  0  0
  -18.8560  -40.5288   -8.0609 C   0  0  0  0  0  0  0  0  0  0  0  0
  -19.2227  -41.8878   -7.8873 C   0  0  0  0  0  0  0  0  0  0  0  0
  -17.4342  -40.4640   -8.4555 C   0  0  0  0  0  0  0  0  0  0  0  0
  -16.5298  -41.1503   -7.8099 O   0  0  0  0  0  0  0  0  0  0  0  0
  -16.8207  -39.7150   -9.5221 N   0  0  0  0  0  0  0  0  0  0  0  0
  -17.3708  -39.6426  -10.8554 C   0  0  1  0  0  0  0  0  0  0  0  0
  -17.3209  -38.3061  -11.4588 C   0  0  0  0  0  0  0  0  0  0  0  0
  -18.1667  -37.1832  -10.9716 C   0  0  0  0  0  0  0  0  0  0  0  0
  -19.4492  -37.1483  -10.5062 C   0  0  0  0  0  0  0  0  0  0  0  0
  -19.9474  -35.9225  -10.1025 C   0  0  0  0  0  0  0  0  0  0  0  0
  -19.1802  -34.7578  -10.1709 C   0  0  0  0  0  0  0  0  0  0  0  0
  -17.8849  -34.7536  -10.6367 C   0  0  0  0  0  0  0  0  0  0  0  0
  -17.4148  -35.9760  -11.0248 C   0  0  0  0  0  0  0  0  0  0  0  0
  -21.2296  -35.6390   -9.5789 O   0  0  0  0  0  0  0  0  0  0  0  0
  -21.8427  -36.1104   -8.3927 C   0  0  0  0  0  0  0  0  0  0  0  0
  -23.3000  -36.3074   -8.6130 C   0  0  0  0  0  0  0  0  0  0  0  0
  -23.8191  -37.3923   -7.7032 C   0  0  0  0  0  0  0  0  0  0  0  0
  -22.7334  -38.0217   -6.8298 C   0  0  0  0  0  0  0  0  0  0  0  0
  -22.1936  -39.1424   -7.3456 O   0  0  0  0  0  0  0  0  0  0  0  0
  -16.8244  -40.7421  -11.7409 C   0  0  2  0  0  0  0  0  0  0  0  0
  -17.9017  -41.0659  -12.6062 O   0  0  0  0  0  0  0  0  0  0  0  0
  -16.3825  -41.9654  -11.0156 C   0  0  0  0  0  0  0  0  0  0  0  0
  -15.3359  -42.6950  -11.6808 N   0  0  0  0  0  0  0  0  0  0  0  0
  -14.1264  -41.9070  -11.8180 C   0  0  0  0  0  0  0  0  0  0  0  0
  -13.3656  -41.8230  -10.5558 C   0  0  0  0  0  0  0  0  0  0  0  0
  -13.8633  -42.2841   -9.3498 C   0  0  0  0  0  0  0  0  0  0  0  0
  -13.1385  -42.2002   -8.1642 C   0  0  0  0  0  0  0  0  0  0  0  0
  -11.8891  -41.6327   -8.2390 C   0  0  0  0  0  0  0  0  0  0  0  0
  -11.3306  -41.1507   -9.4151 C   0  0  0  0  0  0  0  0  0  0  0  0
  -12.1018  -41.2621  -10.5654 C   0  0  0  0  0  0  0  0  0  0  0  0
  -13.6393  -42.6804   -6.8661 C   0  0  0  0  0  0  0  0  0  0  0  0
  -12.8011  -42.0955   -5.7514 C   0  0  0  0  0  0  0  0  0  0  0  0
  -13.4103  -44.1958   -6.8278 C   0  0  0  0  0  0  0  0  0  0  0  0
  1  2  1  0
  2  3  2  0
  2  4  1  0
  4  5  1  0
  5  6  1  0
  6  7  2  0
  7  8  1  0
  8  9  2  0
  9 10  1  0
 10 11  2  0
 10 12  1  0
 12 13  2  0
 12 14  1  0
 14 15  1  0
 15 16  1  6
 16 17  1  0
 17 18  2  0
 18 19  1  0
 19 20  2  0
 20 21  1  0
 21 22  2  0
 19 23  1  0
 23 24  1  0
 24 25  1  0
 25 26  1  0
 26 27  1  0
 27 28  1  0
 15 29  1  0
 29 30  1  6
 29 31  1  0
 31 32  1  0
 32 33  1  0
 33 34  1  0
 34 35  2  0
 35 36  1  0
 36 37  2  0
 37 38  1  0
 38 39  2  0
 36 40  1  0
 40 41  1  0
 40 42  1  0
 11  6  1  0
 22 17  1  0
 28  8  1  0
 39 34  1  0
M  END
$$$$
