
     RDKit          3D

 42 45  0  0  0  0  0  0  0  0999 V2000
  -13.5644  -43.1932  -10.5067 C   0  0  0  0  0  0  0  0  0  0  0  0
  -13.8630  -42.7582  -11.8977 C   0  0  0  0  0  0  0  0  0  0  0  0
  -12.9181  -42.6161  -12.6475 O   0  0  0  0  0  0  0  0  0  0  0  0
  -15.2623  -42.5080  -12.3491 C   0  0  0  0  0  0  0  0  0  0  0  0
  -16.1786  -43.4607  -11.8960 O   0  0  0  0  0  0  0  0  0  0  0  0
  -16.7767  -43.3119  -10.6555 C   0  0  0  0  0  0  0  0  0  0  0  0
  -17.4737  -44.3041  -10.0267 C   0  0  0  0  0  0  0  0  0  0  0  0
  -18.0820  -44.1533   -8.7514 C   0  0  0  0  0  0  0  0  0  0  0  0
  -17.9763  -42.9292   -8.0824 C   0  0  0  0  0  0  0  0  0  0  0  0
  -17.2890  -41.9198   -8.6913 C   0  0  0  0  0  0  0  0  0  0  0  0
  -16.7002  -42.1278   -9.9647 C   0  0  0  0  0  0  0  0  0  0  0  0
  -17.0450  -40.5242   -8.2741 C   0  0  0  0  0  0  0  0  0  0  0  0
  -15.8539  -39.9969   -8.3695 O   0  0  0  0  0  0  0  0  0  0  0  0
  -17.9725  -39.5606   -7.7388 N   0  0  0  0  0  0  0  0  0  0  0  0
  -19.2927  -39.3470   -8.2835 C   0  0  1  0  0  0  0  0  0  0  0  0
  -20.3444  -39.1816   -7.2739 C   0  0  0  0  0  0  0  0  0  0  0  0
  -20.8031  -40.3058   -6.4140 C   0  0  0  0  0  0  0  0  0  0  0  0
  -20.9774  -41.6343   -6.6731 C   0  0  0  0  0  0  0  0  0  0  0  0
  -21.4046  -42.4362   -5.6299 C   0  0  0  0  0  0  0  0  0  0  0  0
  -21.6583  -41.9169   -4.3588 C   0  0  0  0  0  0  0  0  0  0  0  0
  -21.4964  -40.5828   -4.0609 C   0  0  0  0  0  0  0  0  0  0  0  0
  -21.0698  -39.8132   -5.1056 C   0  0  0  0  0  0  0  0  0  0  0  0
  -21.6426  -43.8297   -5.6505 O   0  0  0  0  0  0  0  0  0  0  0  0
  -20.7427  -44.8936   -5.9019 C   0  0  0  0  0  0  0  0  0  0  0  0
  -21.4323  -45.9831   -6.6426 C   0  0  0  0  0  0  0  0  0  0  0  0
  -20.4418  -46.7386   -7.4927 C   0  0  0  0  0  0  0  0  0  0  0  0
  -19.0198  -46.1838   -7.4039 C   0  0  0  0  0  0  0  0  0  0  0  0
  -18.7112  -45.3037   -8.3753 O   0  0  0  0  0  0  0  0  0  0  0  0
  -19.2851  -38.2734   -9.3507 C   0  0  2  0  0  0  0  0  0  0  0  0
  -20.3180  -38.6577  -10.2448 O   0  0  0  0  0  0  0  0  0  0  0  0
  -18.0025  -38.1444  -10.0965 C   0  0  0  0  0  0  0  0  0  0  0  0
  -17.0814  -37.2016   -9.5194 N   0  0  0  0  0  0  0  0  0  0  0  0
  -16.1919  -36.6327  -10.5133 C   0  0  0  0  0  0  0  0  0  0  0  0
  -16.7439  -35.4076  -11.1244 C   0  0  0  0  0  0  0  0  0  0  0  0
  -16.6469  -34.1637  -10.5261 C   0  0  0  0  0  0  0  0  0  0  0  0
  -17.1711  -33.0137  -11.1098 C   0  0  0  0  0  0  0  0  0  0  0  0
  -17.7987  -33.1640  -12.3232 C   0  0  0  0  0  0  0  0  0  0  0  0
  -17.9306  -34.3814  -12.9772 C   0  0  0  0  0  0  0  0  0  0  0  0
  -17.3874  -35.4931  -12.3452 C   0  0  0  0  0  0  0  0  0  0  0  0
  -17.0851  -31.6771  -10.4995 C   0  0  0  0  0  0  0  0  0  0  0  0
  -16.5037  -31.7916   -9.1080 C   0  0  0  0  0  0  0  0  0  0  0  0
  -18.5207  -31.1681  -10.3261 C   0  0  0  0  0  0  0  0  0  0  0  0
  1  2  1  0
  2  3  2  0
  2  4  1  0
  4  5  1  0
  5  6  1  0
  6  7  2  0
  7  8  1  0
  8  9  2  0
  9 10  1  0
 10 11  2  0
 10 12  1  0
 12 13  2  0
 12 14  1  0
 14 15  1  0
 15 16  1  1
 16 17  1  0
 17 18  2  0
 18 19  1  0
 19 20  2  0
 20 21  1  0
 21 22  2  0
 19 23  1  0
 23 24  1  0
 24 25  1  0
 25 26  1  0
 26 27  1  0
 27 28  1  0
 15 29  1  0
 29 30  1  6
 29 31  1  0
 31 32  1  0
 32 33  1  0
 33 34  1  0
 34 35  2  0
 35 36  1  0
 36 37  2  0
 37 38  1  0
 38 39  2  0
 36 40  1  0
 40 41  1  0
 40 42  1  0
 11  6  1  0
 22 17  1  0
 28  8  1  0
 39 34  1  0
M  END
$$$$
