
     RDKit          3D

 45 47  0  0  0  0  0  0  0  0999 V2000
  -19.3006  -39.6989  -13.4586 C   0  0  0  0  0  0  0  0  0  0  0  0
  -18.8922  -39.7915  -12.0258 C   0  0  0  0  0  0  0  0  0  0  0  0
  -18.9897  -38.4282  -11.3692 C   0  0  0  0  0  0  0  0  0  0  0  0
  -17.5250  -40.3605  -11.8540 C   0  0  0  0  0  0  0  0  0  0  0  0
  -16.6996  -39.9131  -10.8454 C   0  0  0  0  0  0  0  0  0  0  0  0
  -15.4161  -40.4209  -10.6489 C   0  0  0  0  0  0  0  0  0  0  0  0
  -14.5375  -39.9414   -9.5689 C   0  0  0  0  0  0  0  0  0  0  0  0
  -14.9101  -40.3760   -8.2654 N   0  0  0  0  0  0  0  0  0  0  0  0
  -15.2058  -39.3900   -7.2863 C   0  0  0  0  0  0  0  0  0  0  0  0
  -16.6457  -38.9657   -7.2133 C   0  0  1  0  0  0  0  0  0  0  0  0
  -16.9342  -38.2059   -8.3404 O   0  0  0  0  0  0  0  0  0  0  0  0
  -17.6221  -40.1034   -7.0383 C   0  0  2  0  0  0  0  0  0  0  0  0
  -18.2793  -40.0522   -5.7173 C   0  0  0  0  0  0  0  0  0  0  0  0
  -19.5987  -39.2948   -5.6996 C   0  0  2  0  0  0  0  0  0  0  0  0
  -19.3479  -37.8321   -5.4108 C   0  0  0  0  0  0  0  0  0  0  0  0
  -20.4927  -39.8245   -4.5737 C   0  0  0  0  0  0  0  0  0  0  0  0
  -21.9386  -39.5264   -4.8425 C   0  0  0  0  0  0  0  0  0  0  0  0
  -22.8718  -40.6249   -4.4531 C   0  0  0  0  0  0  0  0  0  0  0  0
  -22.3740  -42.0024   -4.7752 C   0  0  0  0  0  0  0  0  0  0  0  0
  -23.4716  -42.9789   -5.0807 C   0  0  0  0  0  0  0  0  0  0  0  0
  -24.2880  -42.6020   -6.2845 C   0  0  0  0  0  0  0  0  0  0  0  0
  -23.5094  -42.0019   -7.3985 C   0  0  0  0  0  0  0  0  0  0  0  0
  -22.7309  -42.9508   -8.1804 N   0  0  0  0  0  0  0  0  0  0  0  0
  -21.3263  -43.2619   -8.1102 C   0  0  0  0  0  0  0  0  0  0  0  0
  -20.2129  -42.4415   -8.0639 C   0  0  0  0  0  0  0  0  0  0  0  0
  -18.9811  -43.0563   -7.9960 C   0  0  0  0  0  0  0  0  0  0  0  0
  -18.8984  -44.4750   -7.9775 C   0  0  0  0  0  0  0  0  0  0  0  0
  -19.9827  -45.3079   -8.0226 C   0  0  0  0  0  0  0  0  0  0  0  0
  -21.1929  -44.6730   -8.0891 C   0  0  0  0  0  0  0  0  0  0  0  0
  -19.8593  -46.7215   -8.0026 N   0  0  0  0  0  0  0  0  0  0  0  0
  -20.9175  -47.4969   -8.5956 C   0  0  0  0  0  0  0  0  0  0  0  0
  -18.5126  -47.5225   -7.3074 S   0  0  0  0  0  6  0  0  0  0  0  0
  -18.2638  -47.0305   -5.6179 C   0  0  0  0  0  0  0  0  0  0  0  0
  -18.7121  -48.9929   -7.3449 O   0  0  0  0  0  0  0  0  0  0  0  0
  -17.2421  -47.1873   -8.0454 O   0  0  0  0  0  0  0  0  0  0  0  0
  -17.6133  -42.4924   -7.9470 C   0  0  0  0  0  0  0  0  0  0  0  0
  -16.6709  -43.1199   -8.6515 O   0  0  0  0  0  0  0  0  0  0  0  0
  -17.0209  -41.4028   -7.3092 N   0  0  0  0  0  0  0  0  0  0  0  0
  -23.7530  -43.8298   -9.3300 S   0  0  0  0  0  6  0  0  0  0  0  0
  -24.2905  -45.3522   -8.5898 C   0  0  0  0  0  0  0  0  0  0  0  0
  -24.9909  -43.0484   -9.6301 O   0  0  0  0  0  0  0  0  0  0  0  0
  -22.9538  -44.0674  -10.5737 O   0  0  0  0  0  0  0  0  0  0  0  0
  -15.0028  -41.3952  -11.5098 C   0  0  0  0  0  0  0  0  0  0  0  0
  -15.8025  -41.8820  -12.5481 C   0  0  0  0  0  0  0  0  0  0  0  0
  -17.0520  -41.3449  -12.6906 C   0  0  0  0  0  0  0  0  0  0  0  0
  1  2  1  0
  2  3  1  0
  2  4  1  0
  4  5  2  0
  5  6  1  0
  6  7  1  0
  7  8  1  0
  8  9  1  0
  9 10  1  0
 10 11  1  6
 10 12  1  0
 12 13  1  1
 13 14  1  0
 14 15  1  1
 14 16  1  0
 16 17  1  0
 17 18  1  0
 18 19  1  0
 19 20  1  0
 20 21  1  0
 21 22  1  0
 22 23  1  0
 23 24  1  0
 24 25  2  0
 25 26  1  0
 26 27  2  0
 27 28  1  0
 28 29  2  0
 28 30  1  0
 30 31  1  0
 30 32  1  0
 32 33  1  0
 32 34  2  0
 32 35  2  0
 26 36  1  0
 36 37  2  0
 36 38  1  0
 23 39  1  0
 39 40  1  0
 39 41  2  0
 39 42  2  0
  6 43  2  0
 43 44  1  0
 44 45  2  0
 29 24  1  0
 38 12  1  0
 45  4  1  0
M  END
$$$$
