
     RDKit          3D

 45 47  0  0  0  0  0  0  0  0999 V2000
  -14.1751  -45.3971   -9.3147 C   0  0  0  0  0  0  0  0  0  0  0  0
  -15.1744  -44.8249  -10.2646 C   0  0  0  0  0  0  0  0  0  0  0  0
  -15.3882  -45.7745  -11.4273 C   0  0  0  0  0  0  0  0  0  0  0  0
  -14.7895  -43.4712  -10.7563 C   0  0  0  0  0  0  0  0  0  0  0  0
  -14.5920  -42.4326   -9.8724 C   0  0  0  0  0  0  0  0  0  0  0  0
  -14.2288  -41.1533  -10.2909 C   0  0  0  0  0  0  0  0  0  0  0  0
  -14.0171  -40.0464   -9.3431 C   0  0  0  0  0  0  0  0  0  0  0  0
  -15.0596  -39.8766   -8.3884 N   0  0  0  0  0  0  0  0  0  0  0  0
  -16.1350  -39.0074   -8.7140 C   0  0  0  0  0  0  0  0  0  0  0  0
  -17.1103  -38.7439   -7.6013 C   0  0  1  0  0  0  0  0  0  0  0  0
  -17.8629  -37.6250   -7.9368 O   0  0  0  0  0  0  0  0  0  0  0  0
  -17.9841  -39.9226   -7.2470 C   0  0  2  0  0  0  0  0  0  0  0  0
  -18.9582  -39.5750   -6.1935 C   0  0  0  0  0  0  0  0  0  0  0  0
  -20.3054  -39.0974   -6.7148 C   0  0  2  0  0  0  0  0  0  0  0  0
  -20.2795  -37.5983   -6.9086 C   0  0  0  0  0  0  0  0  0  0  0  0
  -21.4014  -39.3949   -5.6862 C   0  0  0  0  0  0  0  0  0  0  0  0
  -22.7527  -39.4582   -6.3354 C   0  0  0  0  0  0  0  0  0  0  0  0
  -23.6434  -40.5252   -5.7899 C   0  0  0  0  0  0  0  0  0  0  0  0
  -22.9490  -41.8226   -5.5010 C   0  0  0  0  0  0  0  0  0  0  0  0
  -23.8325  -43.0240   -5.6672 C   0  0  0  0  0  0  0  0  0  0  0  0
  -24.3474  -43.1971   -7.0682 C   0  0  0  0  0  0  0  0  0  0  0  0
  -23.3724  -42.8507   -8.1343 C   0  0  0  0  0  0  0  0  0  0  0  0
  -22.3321  -43.8437   -8.3570 N   0  0  0  0  0  0  0  0  0  0  0  0
  -20.9686  -43.8624   -7.8934 C   0  0  0  0  0  0  0  0  0  0  0  0
  -19.9886  -42.8854   -7.9063 C   0  0  0  0  0  0  0  0  0  0  0  0
  -18.7613  -43.2185   -7.3747 C   0  0  0  0  0  0  0  0  0  0  0  0
  -18.5491  -44.5207   -6.8461 C   0  0  0  0  0  0  0  0  0  0  0  0
  -19.5000  -45.5037   -6.8216 C   0  0  0  0  0  0  0  0  0  0  0  0
  -20.7089  -45.1475   -7.3545 C   0  0  0  0  0  0  0  0  0  0  0  0
  -19.2495  -46.7934   -6.2850 N   0  0  0  0  0  0  0  0  0  0  0  0
  -20.1901  -47.8409   -6.5861 C   0  0  0  0  0  0  0  0  0  0  0  0
  -17.8850  -47.1388   -5.3066 S   0  0  0  0  0  6  0  0  0  0  0  0
  -18.3651  -47.5905   -3.6562 C   0  0  0  0  0  0  0  0  0  0  0  0
  -17.1014  -48.2557   -5.8911 O   0  0  0  0  0  0  0  0  0  0  0  0
  -16.9894  -45.9333   -5.1802 O   0  0  0  0  0  0  0  0  0  0  0  0
  -17.5125  -42.4347   -7.2431 C   0  0  0  0  0  0  0  0  0  0  0  0
  -16.3654  -43.0746   -7.4730 O   0  0  0  0  0  0  0  0  0  0  0  0
  -17.2108  -41.1128   -6.9171 N   0  0  0  0  0  0  0  0  0  0  0  0
  -22.9371  -45.2070   -9.3132 S   0  0  0  0  0  6  0  0  0  0  0  0
  -23.3821  -46.5356   -8.2216 C   0  0  0  0  0  0  0  0  0  0  0  0
  -24.1862  -44.8220  -10.0375 O   0  0  0  0  0  0  0  0  0  0  0  0
  -21.8628  -45.6124  -10.2742 O   0  0  0  0  0  0  0  0  0  0  0  0
  -14.0738  -40.9674  -11.6335 C   0  0  0  0  0  0  0  0  0  0  0  0
  -14.2627  -41.9885  -12.5696 C   0  0  0  0  0  0  0  0  0  0  0  0
  -14.6184  -43.2220  -12.0984 C   0  0  0  0  0  0  0  0  0  0  0  0
  1  2  1  0
  2  3  1  0
  2  4  1  0
  4  5  2  0
  5  6  1  0
  6  7  1  0
  7  8  1  0
  8  9  1  0
  9 10  1  0
 10 11  1  6
 10 12  1  0
 12 13  1  1
 13 14  1  0
 14 15  1  1
 14 16  1  0
 16 17  1  0
 17 18  1  0
 18 19  1  0
 19 20  1  0
 20 21  1  0
 21 22  1  0
 22 23  1  0
 23 24  1  0
 24 25  2  0
 25 26  1  0
 26 27  2  0
 27 28  1  0
 28 29  2  0
 28 30  1  0
 30 31  1  0
 30 32  1  0
 32 33  1  0
 32 34  2  0
 32 35  2  0
 26 36  1  0
 36 37  2  0
 36 38  1  0
 23 39  1  0
 39 40  1  0
 39 41  2  0
 39 42  2  0
  6 43  2  0
 43 44  1  0
 44 45  2  0
 29 24  1  0
 38 12  1  0
 45  4  1  0
M  END
$$$$
