
     RDKit          3D

 45 47  0  0  0  0  0  0  0  0999 V2000
  -12.3586  -34.5847  -12.2250 C   0  0  0  0  0  0  0  0  0  0  0  0
  -11.7563  -35.9009  -11.8602 C   0  0  0  0  0  0  0  0  0  0  0  0
  -10.4523  -36.1001  -12.6081 C   0  0  0  0  0  0  0  0  0  0  0  0
  -12.6819  -37.0435  -12.1053 C   0  0  0  0  0  0  0  0  0  0  0  0
  -13.0778  -37.8616  -11.0695 C   0  0  0  0  0  0  0  0  0  0  0  0
  -13.9439  -38.9381  -11.2558 C   0  0  0  0  0  0  0  0  0  0  0  0
  -14.3660  -39.8091  -10.1461 C   0  0  0  0  0  0  0  0  0  0  0  0
  -15.0589  -39.1393   -9.0981 N   0  0  0  0  0  0  0  0  0  0  0  0
  -16.4776  -39.0915   -9.1525 C   0  0  0  0  0  0  0  0  0  0  0  0
  -17.1721  -39.0299   -7.8211 C   0  0  1  0  0  0  0  0  0  0  0  0
  -17.8126  -37.8010   -7.7198 O   0  0  0  0  0  0  0  0  0  0  0  0
  -18.1155  -40.1782   -7.5572 C   0  0  2  0  0  0  0  0  0  0  0  0
  -19.1805  -39.7948   -6.6095 C   0  0  0  0  0  0  0  0  0  0  0  0
  -20.4510  -39.2762   -7.2665 C   0  0  2  0  0  0  0  0  0  0  0  0
  -20.3565  -37.7795   -7.4581 C   0  0  0  0  0  0  0  0  0  0  0  0
  -21.6557  -39.5337   -6.3554 C   0  0  0  0  0  0  0  0  0  0  0  0
  -22.9348  -39.5561   -7.1397 C   0  0  0  0  0  0  0  0  0  0  0  0
  -23.9110  -40.5913   -6.6874 C   0  0  0  0  0  0  0  0  0  0  0  0
  -23.2924  -41.9093   -6.3276 C   0  0  0  0  0  0  0  0  0  0  0  0
  -24.1929  -43.0822   -6.5825 C   0  0  0  0  0  0  0  0  0  0  0  0
  -24.5669  -43.2445   -8.0287 C   0  0  0  0  0  0  0  0  0  0  0  0
  -23.4771  -42.9344   -8.9895 C   0  0  0  0  0  0  0  0  0  0  0  0
  -22.4524  -43.9614   -9.1034 N   0  0  0  0  0  0  0  0  0  0  0  0
  -21.1449  -44.0222   -8.5025 C   0  0  0  0  0  0  0  0  0  0  0  0
  -20.1374  -43.0774   -8.4158 C   0  0  0  0  0  0  0  0  0  0  0  0
  -18.9825  -43.4478   -7.7608 C   0  0  0  0  0  0  0  0  0  0  0  0
  -18.8681  -44.7539   -7.2121 C   0  0  0  0  0  0  0  0  0  0  0  0
  -19.8482  -45.7056   -7.2843 C   0  0  0  0  0  0  0  0  0  0  0  0
  -20.9838  -45.3128   -7.9386 C   0  0  0  0  0  0  0  0  0  0  0  0
  -19.6960  -47.0004   -6.7236 N   0  0  0  0  0  0  0  0  0  0  0  0
  -20.5490  -48.0504   -7.2162 C   0  0  0  0  0  0  0  0  0  0  0  0
  -18.5478  -47.3490   -5.4996 S   0  0  0  0  0  6  0  0  0  0  0  0
  -19.1802  -48.5293   -4.3311 C   0  0  0  0  0  0  0  0  0  0  0  0
  -17.3065  -47.8993   -6.0993 O   0  0  0  0  0  0  0  0  0  0  0  0
  -18.1986  -46.1105   -4.7151 O   0  0  0  0  0  0  0  0  0  0  0  0
  -17.7290  -42.7042   -7.5026 C   0  0  0  0  0  0  0  0  0  0  0  0
  -16.5858  -43.3819   -7.6132 O   0  0  0  0  0  0  0  0  0  0  0  0
  -17.4192  -41.3914   -7.1487 N   0  0  0  0  0  0  0  0  0  0  0  0
  -23.0004  -45.3086  -10.1154 S   0  0  0  0  0  6  0  0  0  0  0  0
  -23.8103  -46.5154   -9.0946 C   0  0  0  0  0  0  0  0  0  0  0  0
  -24.0209  -44.8387  -11.1008 O   0  0  0  0  0  0  0  0  0  0  0  0
  -21.8053  -45.8810  -10.8124 O   0  0  0  0  0  0  0  0  0  0  0  0
  -14.3917  -39.1530  -12.5265 C   0  0  0  0  0  0  0  0  0  0  0  0
  -14.0192  -38.3518  -13.6100 C   0  0  0  0  0  0  0  0  0  0  0  0
  -13.1670  -37.3108  -13.3646 C   0  0  0  0  0  0  0  0  0  0  0  0
  1  2  1  0
  2  3  1  0
  2  4  1  0
  4  5  2  0
  5  6  1  0
  6  7  1  0
  7  8  1  0
  8  9  1  0
  9 10  1  0
 10 11  1  6
 10 12  1  0
 12 13  1  1
 13 14  1  0
 14 15  1  1
 14 16  1  0
 16 17  1  0
 17 18  1  0
 18 19  1  0
 19 20  1  0
 20 21  1  0
 21 22  1  0
 22 23  1  0
 23 24  1  0
 24 25  2  0
 25 26  1  0
 26 27  2  0
 27 28  1  0
 28 29  2  0
 28 30  1  0
 30 31  1  0
 30 32  1  0
 32 33  1  0
 32 34  2  0
 32 35  2  0
 26 36  1  0
 36 37  2  0
 36 38  1  0
 23 39  1  0
 39 40  1  0
 39 41  2  0
 39 42  2  0
  6 43  2  0
 43 44  1  0
 44 45  2  0
 29 24  1  0
 38 12  1  0
 45  4  1  0
M  END
$$$$
