
     RDKit          3D

 45 47  0  0  0  0  0  0  0  0999 V2000
  -21.4305  -38.4141   -9.1309 C   0  0  0  0  0  0  0  0  0  0  0  0
  -21.5640  -37.2030   -8.2686 C   0  0  0  0  0  0  0  0  0  0  0  0
  -20.9149  -36.0107   -8.9441 C   0  0  0  0  0  0  0  0  0  0  0  0
  -20.9994  -37.4048   -6.9037 C   0  0  0  0  0  0  0  0  0  0  0  0
  -19.6922  -37.8076   -6.7367 C   0  0  0  0  0  0  0  0  0  0  0  0
  -19.1254  -38.0047   -5.4783 C   0  0  0  0  0  0  0  0  0  0  0  0
  -17.7276  -38.4337   -5.3038 C   0  0  0  0  0  0  0  0  0  0  0  0
  -16.9940  -38.5694   -6.5164 N   0  0  0  0  0  0  0  0  0  0  0  0
  -17.5460  -39.3718   -7.5505 C   0  0  0  0  0  0  0  0  0  0  0  0
  -16.6614  -40.4803   -8.0480 C   0  0  1  0  0  0  0  0  0  0  0  0
  -15.5964  -40.6175   -7.1662 O   0  0  0  0  0  0  0  0  0  0  0  0
  -17.3742  -41.7912   -8.2757 C   0  0  2  0  0  0  0  0  0  0  0  0
  -17.4249  -42.1360   -9.7102 C   0  0  0  0  0  0  0  0  0  0  0  0
  -16.2731  -43.0068  -10.1894 C   0  0  2  0  0  0  0  0  0  0  0  0
  -15.1239  -42.1353  -10.6428 C   0  0  0  0  0  0  0  0  0  0  0  0
  -16.7103  -43.8344  -11.4025 C   0  0  0  0  0  0  0  0  0  0  0  0
  -15.8526  -45.0549  -11.5650 C   0  0  0  0  0  0  0  0  0  0  0  0
  -16.6000  -46.2747  -11.9922 C   0  0  0  0  0  0  0  0  0  0  0  0
  -17.9347  -46.4457  -11.3302 C   0  0  0  0  0  0  0  0  0  0  0  0
  -18.3375  -47.8808  -11.1578 C   0  0  0  0  0  0  0  0  0  0  0  0
  -17.4000  -48.6628  -10.2819 C   0  0  0  0  0  0  0  0  0  0  0  0
  -16.8609  -47.9081   -9.1214 C   0  0  0  0  0  0  0  0  0  0  0  0
  -17.7960  -47.7300   -8.0206 N   0  0  0  0  0  0  0  0  0  0  0  0
  -18.6003  -46.5855   -7.6773 C   0  0  0  0  0  0  0  0  0  0  0  0
  -18.2777  -45.2438   -7.5730 C   0  0  0  0  0  0  0  0  0  0  0  0
  -19.2916  -44.3787   -7.2213 C   0  0  0  0  0  0  0  0  0  0  0  0
  -20.5996  -44.8812   -6.9829 C   0  0  0  0  0  0  0  0  0  0  0  0
  -20.9441  -46.2016   -7.0789 C   0  0  0  0  0  0  0  0  0  0  0  0
  -19.9204  -47.0388   -7.4297 C   0  0  0  0  0  0  0  0  0  0  0  0
  -22.2626  -46.6651   -6.8323 N   0  0  0  0  0  0  0  0  0  0  0  0
  -22.8334  -47.5972   -7.7692 C   0  0  0  0  0  0  0  0  0  0  0  0
  -23.1820  -46.1599   -5.4766 S   0  0  0  0  0  6  0  0  0  0  0  0
  -24.8716  -45.8341   -5.9210 C   0  0  0  0  0  0  0  0  0  0  0  0
  -23.1657  -47.2064   -4.4241 O   0  0  0  0  0  0  0  0  0  0  0  0
  -22.6347  -44.8812   -4.8964 O   0  0  0  0  0  0  0  0  0  0  0  0
  -19.2919  -42.9134   -7.0122 C   0  0  0  0  0  0  0  0  0  0  0  0
  -20.0173  -42.4439   -5.9965 O   0  0  0  0  0  0  0  0  0  0  0  0
  -18.6892  -41.8289   -7.6489 N   0  0  0  0  0  0  0  0  0  0  0  0
  -17.9252  -49.2006   -7.0409 S   0  0  0  0  0  6  0  0  0  0  0  0
  -19.3425  -50.1321   -7.5679 C   0  0  0  0  0  0  0  0  0  0  0  0
  -16.7378  -50.0804   -7.2626 O   0  0  0  0  0  0  0  0  0  0  0  0
  -18.0300  -48.7928   -5.6040 O   0  0  0  0  0  0  0  0  0  0  0  0
  -19.9303  -37.7788   -4.4001 C   0  0  0  0  0  0  0  0  0  0  0  0
  -21.2619  -37.3695   -4.5175 C   0  0  0  0  0  0  0  0  0  0  0  0
  -21.7617  -37.1930   -5.7781 C   0  0  0  0  0  0  0  0  0  0  0  0
  1  2  1  0
  2  3  1  0
  2  4  1  0
  4  5  2  0
  5  6  1  0
  6  7  1  0
  7  8  1  0
  8  9  1  0
  9 10  1  0
 10 11  1  1
 10 12  1  0
 12 13  1  6
 13 14  1  0
 14 15  1  6
 14 16  1  0
 16 17  1  0
 17 18  1  0
 18 19  1  0
 19 20  1  0
 20 21  1  0
 21 22  1  0
 22 23  1  0
 23 24  1  0
 24 25  2  0
 25 26  1  0
 26 27  2  0
 27 28  1  0
 28 29  2  0
 28 30  1  0
 30 31  1  0
 30 32  1  0
 32 33  1  0
 32 34  2  0
 32 35  2  0
 26 36  1  0
 36 37  2  0
 36 38  1  0
 23 39  1  0
 39 40  1  0
 39 41  2  0
 39 42  2  0
  6 43  2  0
 43 44  1  0
 44 45  2  0
 29 24  1  0
 38 12  1  0
 45  4  1  0
M  END
$$$$
