
     RDKit          3D

 45 47  0  0  0  0  0  0  0  0999 V2000
  -10.9084  -41.3902  -12.8418 C   0  0  0  0  0  0  0  0  0  0  0  0
  -11.3586  -41.1737  -11.4352 C   0  0  0  0  0  0  0  0  0  0  0  0
  -11.3940  -42.4951  -10.6923 C   0  0  0  0  0  0  0  0  0  0  0  0
  -12.6811  -40.4904  -11.3543 C   0  0  0  0  0  0  0  0  0  0  0  0
  -13.0642  -39.8353  -10.2040 C   0  0  0  0  0  0  0  0  0  0  0  0
  -14.2903  -39.1818  -10.0887 C   0  0  0  0  0  0  0  0  0  0  0  0
  -14.6955  -38.4815   -8.8583 C   0  0  0  0  0  0  0  0  0  0  0  0
  -15.7960  -37.5925   -9.0180 N   0  0  0  0  0  0  0  0  0  0  0  0
  -17.0620  -38.1425   -9.3540 C   0  0  0  0  0  0  0  0  0  0  0  0
  -18.0975  -38.0884   -8.2661 C   0  0  1  0  0  0  0  0  0  0  0  0
  -19.1763  -37.3441   -8.7275 O   0  0  0  0  0  0  0  0  0  0  0  0
  -18.5279  -39.4394   -7.7483 C   0  0  2  0  0  0  0  0  0  0  0  0
  -19.0901  -39.3415   -6.3868 C   0  0  0  0  0  0  0  0  0  0  0  0
  -20.6001  -39.1609   -6.3409 C   0  0  2  0  0  0  0  0  0  0  0  0
  -20.9430  -37.6888   -6.3742 C   0  0  0  0  0  0  0  0  0  0  0  0
  -21.1555  -39.7183   -5.0262 C   0  0  0  0  0  0  0  0  0  0  0  0
  -22.6104  -40.0629   -5.1540 C   0  0  0  0  0  0  0  0  0  0  0  0
  -23.0072  -41.3132   -4.4410 C   0  0  0  0  0  0  0  0  0  0  0  0
  -22.0147  -42.4318   -4.5553 C   0  0  0  0  0  0  0  0  0  0  0  0
  -22.6423  -43.7943   -4.5198 C   0  0  0  0  0  0  0  0  0  0  0  0
  -23.5947  -44.0426   -5.6551 C   0  0  0  0  0  0  0  0  0  0  0  0
  -23.1727  -43.4634   -6.9564 C   0  0  0  0  0  0  0  0  0  0  0  0
  -22.1157  -44.1962   -7.6373 N   0  0  0  0  0  0  0  0  0  0  0  0
  -20.7024  -43.9243   -7.6948 C   0  0  0  0  0  0  0  0  0  0  0  0
  -20.0096  -42.7549   -7.9544 C   0  0  0  0  0  0  0  0  0  0  0  0
  -18.6330  -42.8214   -7.9329 C   0  0  0  0  0  0  0  0  0  0  0  0
  -17.9886  -44.0570   -7.6532 C   0  0  0  0  0  0  0  0  0  0  0  0
  -18.6497  -45.2262   -7.3938 C   0  0  0  0  0  0  0  0  0  0  0  0
  -20.0145  -45.1331   -7.4207 C   0  0  0  0  0  0  0  0  0  0  0  0
  -17.9699  -46.4413   -7.1191 N   0  0  0  0  0  0  0  0  0  0  0  0
  -18.7633  -47.5914   -6.7719 C   0  0  0  0  0  0  0  0  0  0  0  0
  -16.2629  -46.5818   -7.1869 S   0  0  0  0  0  6  0  0  0  0  0  0
  -15.4914  -45.8310   -5.7729 C   0  0  0  0  0  0  0  0  0  0  0  0
  -15.8652  -48.0110   -7.2366 O   0  0  0  0  0  0  0  0  0  0  0  0
  -15.7092  -45.8827   -8.4018 O   0  0  0  0  0  0  0  0  0  0  0  0
  -17.6046  -41.7845   -8.1742 C   0  0  0  0  0  0  0  0  0  0  0  0
  -16.5227  -42.1492   -8.8632 O   0  0  0  0  0  0  0  0  0  0  0  0
  -17.4697  -40.4369   -7.8415 N   0  0  0  0  0  0  0  0  0  0  0  0
  -22.7513  -45.6357   -8.4514 S   0  0  0  0  0  6  0  0  0  0  0  0
  -23.6184  -45.1420   -9.9208 C   0  0  0  0  0  0  0  0  0  0  0  0
  -21.6316  -46.5176   -8.9005 O   0  0  0  0  0  0  0  0  0  0  0  0
  -23.6478  -46.3539   -7.4909 O   0  0  0  0  0  0  0  0  0  0  0  0
  -15.1098  -39.2171  -11.1788 C   0  0  0  0  0  0  0  0  0  0  0  0
  -14.7667  -39.8681  -12.3675 C   0  0  0  0  0  0  0  0  0  0  0  0
  -13.5507  -40.4914  -12.4203 C   0  0  0  0  0  0  0  0  0  0  0  0
  1  2  1  0
  2  3  1  0
  2  4  1  0
  4  5  2  0
  5  6  1  0
  6  7  1  0
  7  8  1  0
  8  9  1  0
  9 10  1  0
 10 11  1  6
 10 12  1  0
 12 13  1  1
 13 14  1  0
 14 15  1  1
 14 16  1  0
 16 17  1  0
 17 18  1  0
 18 19  1  0
 19 20  1  0
 20 21  1  0
 21 22  1  0
 22 23  1  0
 23 24  1  0
 24 25  2  0
 25 26  1  0
 26 27  2  0
 27 28  1  0
 28 29  2  0
 28 30  1  0
 30 31  1  0
 30 32  1  0
 32 33  1  0
 32 34  2  0
 32 35  2  0
 26 36  1  0
 36 37  2  0
 36 38  1  0
 23 39  1  0
 39 40  1  0
 39 41  2  0
 39 42  2  0
  6 43  2  0
 43 44  1  0
 44 45  2  0
 29 24  1  0
 38 12  1  0
 45  4  1  0
M  END
$$$$
