
     RDKit          3D

 45 47  0  0  0  0  0  0  0  0999 V2000
  -12.7501  -35.2823  -10.4588 C   0  0  0  0  0  0  0  0  0  0  0  0
  -13.9386  -35.6156  -11.2982 C   0  0  0  0  0  0  0  0  0  0  0  0
  -15.1447  -34.8269  -10.8266 C   0  0  0  0  0  0  0  0  0  0  0  0
  -14.2394  -37.0756  -11.3136 C   0  0  0  0  0  0  0  0  0  0  0  0
  -14.2037  -37.8127  -10.1499 C   0  0  0  0  0  0  0  0  0  0  0  0
  -14.4813  -39.1786  -10.1209 C   0  0  0  0  0  0  0  0  0  0  0  0
  -14.4438  -39.9625   -8.8750 C   0  0  0  0  0  0  0  0  0  0  0  0
  -15.0983  -39.3491   -7.7694 N   0  0  0  0  0  0  0  0  0  0  0  0
  -16.0861  -38.3632   -8.0347 C   0  0  0  0  0  0  0  0  0  0  0  0
  -17.3110  -38.8550   -8.7533 C   0  0  1  0  0  0  0  0  0  0  0  0
  -16.9557  -39.1615  -10.0612 O   0  0  0  0  0  0  0  0  0  0  0  0
  -18.0089  -40.0093   -8.0759 C   0  0  2  0  0  0  0  0  0  0  0  0
  -18.6268  -39.5935   -6.8012 C   0  0  0  0  0  0  0  0  0  0  0  0
  -20.0793  -39.1565   -6.9189 C   0  0  2  0  0  0  0  0  0  0  0  0
  -20.1483  -37.6739   -7.2072 C   0  0  0  0  0  0  0  0  0  0  0  0
  -20.8057  -39.3863   -5.5895 C   0  0  0  0  0  0  0  0  0  0  0  0
  -22.2883  -39.4976   -5.7930 C   0  0  0  0  0  0  0  0  0  0  0  0
  -22.9471  -40.5274   -4.9359 C   0  0  0  0  0  0  0  0  0  0  0  0
  -22.1676  -41.8002   -4.7886 C   0  0  0  0  0  0  0  0  0  0  0  0
  -23.0317  -43.0126   -4.6018 C   0  0  0  0  0  0  0  0  0  0  0  0
  -23.9418  -43.2823   -5.7665 C   0  0  0  0  0  0  0  0  0  0  0  0
  -23.3432  -43.0066   -7.0980 C   0  0  0  0  0  0  0  0  0  0  0  0
  -22.3960  -44.0095   -7.5615 N   0  0  0  0  0  0  0  0  0  0  0  0
  -20.9561  -43.9926   -7.5330 C   0  0  0  0  0  0  0  0  0  0  0  0
  -20.0490  -43.0159   -7.9050 C   0  0  0  0  0  0  0  0  0  0  0  0
  -18.7109  -43.3085   -7.7504 C   0  0  0  0  0  0  0  0  0  0  0  0
  -18.3185  -44.5710   -7.2288 C   0  0  0  0  0  0  0  0  0  0  0  0
  -19.1943  -45.5528   -6.8541 C   0  0  0  0  0  0  0  0  0  0  0  0
  -20.5156  -45.2373   -7.0170 C   0  0  0  0  0  0  0  0  0  0  0  0
  -18.7631  -46.8022   -6.3373 N   0  0  0  0  0  0  0  0  0  0  0  0
  -19.7719  -47.7527   -5.9480 C   0  0  0  0  0  0  0  0  0  0  0  0
  -17.1070  -47.2098   -6.1650 S   0  0  0  0  0  6  0  0  0  0  0  0
  -16.1947  -46.8687   -7.6515 C   0  0  0  0  0  0  0  0  0  0  0  0
  -16.4995  -46.4376   -5.0524 O   0  0  0  0  0  0  0  0  0  0  0  0
  -16.9370  -48.6804   -5.8829 O   0  0  0  0  0  0  0  0  0  0  0  0
  -17.4996  -42.5140   -8.0542 C   0  0  0  0  0  0  0  0  0  0  0  0
  -16.4610  -43.1647   -8.5797 O   0  0  0  0  0  0  0  0  0  0  0  0
  -17.1444  -41.1720   -7.9205 N   0  0  0  0  0  0  0  0  0  0  0  0
  -23.2297  -45.4365   -8.1998 S   0  0  0  0  0  6  0  0  0  0  0  0
  -22.7744  -45.6681   -9.9009 C   0  0  0  0  0  0  0  0  0  0  0  0
  -22.7872  -46.6663   -7.4752 O   0  0  0  0  0  0  0  0  0  0  0  0
  -24.7032  -45.2220   -8.0423 O   0  0  0  0  0  0  0  0  0  0  0  0
  -14.7952  -39.7667  -11.3113 C   0  0  0  0  0  0  0  0  0  0  0  0
  -14.8444  -39.0625  -12.5180 C   0  0  0  0  0  0  0  0  0  0  0  0
  -14.5622  -37.7248  -12.4829 C   0  0  0  0  0  0  0  0  0  0  0  0
  1  2  1  0
  2  3  1  0
  2  4  1  0
  4  5  2  0
  5  6  1  0
  6  7  1  0
  7  8  1  0
  8  9  1  0
  9 10  1  0
 10 11  1  6
 10 12  1  0
 12 13  1  1
 13 14  1  0
 14 15  1  1
 14 16  1  0
 16 17  1  0
 17 18  1  0
 18 19  1  0
 19 20  1  0
 20 21  1  0
 21 22  1  0
 22 23  1  0
 23 24  1  0
 24 25  2  0
 25 26  1  0
 26 27  2  0
 27 28  1  0
 28 29  2  0
 28 30  1  0
 30 31  1  0
 30 32  1  0
 32 33  1  0
 32 34  2  0
 32 35  2  0
 26 36  1  0
 36 37  2  0
 36 38  1  0
 23 39  1  0
 39 40  1  0
 39 41  2  0
 39 42  2  0
  6 43  2  0
 43 44  1  0
 44 45  2  0
 29 24  1  0
 38 12  1  0
 45  4  1  0
M  END
$$$$
