
     RDKit          3D

 45 47  0  0  0  0  0  0  0  0999 V2000
  -12.7732  -34.9098  -12.9289 C   0  0  0  0  0  0  0  0  0  0  0  0
  -13.5667  -35.3606  -11.7477 C   0  0  0  0  0  0  0  0  0  0  0  0
  -12.9261  -34.8565  -10.4691 C   0  0  0  0  0  0  0  0  0  0  0  0
  -13.7369  -36.8409  -11.7014 C   0  0  0  0  0  0  0  0  0  0  0  0
  -14.9164  -37.3989  -11.2584 C   0  0  0  0  0  0  0  0  0  0  0  0
  -15.1169  -38.7775  -11.2025 C   0  0  0  0  0  0  0  0  0  0  0  0
  -16.3794  -39.3700  -10.7299 C   0  0  0  0  0  0  0  0  0  0  0  0
  -16.6031  -39.2478   -9.3292 N   0  0  0  0  0  0  0  0  0  0  0  0
  -17.0808  -38.0066   -8.8299 C   0  0  0  0  0  0  0  0  0  0  0  0
  -17.8833  -38.0878   -7.5618 C   0  0  1  0  0  0  0  0  0  0  0  0
  -18.8944  -37.1367   -7.6239 O   0  0  0  0  0  0  0  0  0  0  0  0
  -18.4242  -39.4630   -7.2541 C   0  0  2  0  0  0  0  0  0  0  0  0
  -18.9366  -39.5446   -5.8721 C   0  0  0  0  0  0  0  0  0  0  0  0
  -20.4210  -39.2419   -5.7322 C   0  0  2  0  0  0  0  0  0  0  0  0
  -20.6247  -37.7605   -5.5092 C   0  0  0  0  0  0  0  0  0  0  0  0
  -20.9895  -39.9598   -4.5038 C   0  0  0  0  0  0  0  0  0  0  0  0
  -22.4733  -40.1486   -4.6234 C   0  0  0  0  0  0  0  0  0  0  0  0
  -22.9660  -41.4606   -4.1084 C   0  0  0  0  0  0  0  0  0  0  0  0
  -22.0867  -42.6274   -4.4469 C   0  0  0  0  0  0  0  0  0  0  0  0
  -22.8384  -43.9160   -4.6079 C   0  0  0  0  0  0  0  0  0  0  0  0
  -23.8413  -43.8863   -5.7265 C   0  0  0  0  0  0  0  0  0  0  0  0
  -23.4031  -43.1374   -6.9324 C   0  0  0  0  0  0  0  0  0  0  0  0
  -22.4391  -43.8365   -7.7689 N   0  0  0  0  0  0  0  0  0  0  0  0
  -21.0086  -43.6845   -7.8419 C   0  0  0  0  0  0  0  0  0  0  0  0
  -20.2164  -42.5538   -7.9362 C   0  0  0  0  0  0  0  0  0  0  0  0
  -18.8521  -42.7441   -7.9852 C   0  0  0  0  0  0  0  0  0  0  0  0
  -18.3192  -44.0610   -7.9396 C   0  0  0  0  0  0  0  0  0  0  0  0
  -19.0799  -45.1942   -7.8469 C   0  0  0  0  0  0  0  0  0  0  0  0
  -20.4301  -44.9779   -7.7993 C   0  0  0  0  0  0  0  0  0  0  0  0
  -18.5101  -46.4932   -7.8043 N   0  0  0  0  0  0  0  0  0  0  0  0
  -17.1211  -46.6296   -8.1576 C   0  0  0  0  0  0  0  0  0  0  0  0
  -19.4073  -47.8823   -7.3527 S   0  0  0  0  0  6  0  0  0  0  0  0
  -20.2477  -48.5958   -8.7465 C   0  0  0  0  0  0  0  0  0  0  0  0
  -18.5081  -48.9090   -6.7691 O   0  0  0  0  0  0  0  0  0  0  0  0
  -20.4687  -47.5365   -6.3402 O   0  0  0  0  0  0  0  0  0  0  0  0
  -17.7379  -41.7761   -8.0975 C   0  0  0  0  0  0  0  0  0  0  0  0
  -16.7147  -42.1146   -8.8829 O   0  0  0  0  0  0  0  0  0  0  0  0
  -17.4676  -40.5202   -7.5549 N   0  0  0  0  0  0  0  0  0  0  0  0
  -23.2297  -45.0582   -8.7796 S   0  0  0  0  0  6  0  0  0  0  0  0
  -24.0131  -46.2631   -7.7359 C   0  0  0  0  0  0  0  0  0  0  0  0
  -24.3177  -44.4365   -9.5936 O   0  0  0  0  0  0  0  0  0  0  0  0
  -22.1881  -45.6770   -9.6593 O   0  0  0  0  0  0  0  0  0  0  0  0
  -14.0810  -39.5657  -11.6112 C   0  0  0  0  0  0  0  0  0  0  0  0
  -12.8656  -39.0477  -12.0685 C   0  0  0  0  0  0  0  0  0  0  0  0
  -12.7285  -37.6875  -12.1003 C   0  0  0  0  0  0  0  0  0  0  0  0
  1  2  1  0
  2  3  1  0
  2  4  1  0
  4  5  2  0
  5  6  1  0
  6  7  1  0
  7  8  1  0
  8  9  1  0
  9 10  1  0
 10 11  1  6
 10 12  1  0
 12 13  1  1
 13 14  1  0
 14 15  1  1
 14 16  1  0
 16 17  1  0
 17 18  1  0
 18 19  1  0
 19 20  1  0
 20 21  1  0
 21 22  1  0
 22 23  1  0
 23 24  1  0
 24 25  2  0
 25 26  1  0
 26 27  2  0
 27 28  1  0
 28 29  2  0
 28 30  1  0
 30 31  1  0
 30 32  1  0
 32 33  1  0
 32 34  2  0
 32 35  2  0
 26 36  1  0
 36 37  2  0
 36 38  1  0
 23 39  1  0
 39 40  1  0
 39 41  2  0
 39 42  2  0
  6 43  2  0
 43 44  1  0
 44 45  2  0
 29 24  1  0
 38 12  1  0
 45  4  1  0
M  END
$$$$
