
     RDKit          3D

 45 47  0  0  0  0  0  0  0  0999 V2000
  -13.1587  -34.7721  -11.2381 C   0  0  0  0  0  0  0  0  0  0  0  0
  -12.6583  -35.8916  -10.3869 C   0  0  0  0  0  0  0  0  0  0  0  0
  -11.1426  -35.9267  -10.4138 C   0  0  0  0  0  0  0  0  0  0  0  0
  -13.2211  -37.2129  -10.7869 C   0  0  0  0  0  0  0  0  0  0  0  0
  -13.5428  -38.1565   -9.8356 C   0  0  0  0  0  0  0  0  0  0  0  0
  -14.0738  -39.4022  -10.1675 C   0  0  0  0  0  0  0  0  0  0  0  0
  -14.4178  -40.4074   -9.1479 C   0  0  0  0  0  0  0  0  0  0  0  0
  -15.1750  -39.9044   -8.0522 N   0  0  0  0  0  0  0  0  0  0  0  0
  -15.9274  -38.7148   -8.2440 C   0  0  0  0  0  0  0  0  0  0  0  0
  -17.2674  -38.8982   -8.8993 C   0  0  1  0  0  0  0  0  0  0  0  0
  -17.0611  -39.1568  -10.2489 O   0  0  0  0  0  0  0  0  0  0  0  0
  -18.1381  -39.9482   -8.2532 C   0  0  2  0  0  0  0  0  0  0  0  0
  -18.8540  -39.4087   -7.0802 C   0  0  0  0  0  0  0  0  0  0  0  0
  -20.2388  -38.8580   -7.3865 C   0  0  2  0  0  0  0  0  0  0  0  0
  -20.1406  -37.3941   -7.7514 C   0  0  0  0  0  0  0  0  0  0  0  0
  -21.1266  -38.9483   -6.1410 C   0  0  0  0  0  0  0  0  0  0  0  0
  -22.5812  -38.9456   -6.5096 C   0  0  0  0  0  0  0  0  0  0  0  0
  -23.4220  -39.8647   -5.6866 C   0  0  0  0  0  0  0  0  0  0  0  0
  -22.7823  -41.1881   -5.3891 C   0  0  0  0  0  0  0  0  0  0  0  0
  -23.7680  -42.3104   -5.2461 C   0  0  0  0  0  0  0  0  0  0  0  0
  -24.5633  -42.5691   -6.4945 C   0  0  0  0  0  0  0  0  0  0  0  0
  -23.7975  -42.4224   -7.7590 C   0  0  0  0  0  0  0  0  0  0  0  0
  -22.8993  -43.5269   -8.0609 N   0  0  0  0  0  0  0  0  0  0  0  0
  -21.4759  -43.6301   -7.8663 C   0  0  0  0  0  0  0  0  0  0  0  0
  -20.4484  -42.7567   -8.1768 C   0  0  0  0  0  0  0  0  0  0  0  0
  -19.1679  -43.1519   -7.8540 C   0  0  0  0  0  0  0  0  0  0  0  0
  -18.9519  -44.4108   -7.2306 C   0  0  0  0  0  0  0  0  0  0  0  0
  -19.9493  -45.2918   -6.9136 C   0  0  0  0  0  0  0  0  0  0  0  0
  -21.2102  -44.8756   -7.2438 C   0  0  0  0  0  0  0  0  0  0  0  0
  -19.6933  -46.5411   -6.2911 N   0  0  0  0  0  0  0  0  0  0  0  0
  -20.6454  -47.0163   -5.3214 C   0  0  0  0  0  0  0  0  0  0  0  0
  -18.3102  -47.4875   -6.6511 S   0  0  0  0  0  6  0  0  0  0  0  0
  -16.8462  -46.8106   -5.9049 C   0  0  0  0  0  0  0  0  0  0  0  0
  -18.4923  -48.8749   -6.1560 O   0  0  0  0  0  0  0  0  0  0  0  0
  -18.0556  -47.5328   -8.1358 O   0  0  0  0  0  0  0  0  0  0  0  0
  -17.8633  -42.4815   -8.0527 C   0  0  0  0  0  0  0  0  0  0  0  0
  -16.8359  -43.2470   -8.4223 O   0  0  0  0  0  0  0  0  0  0  0  0
  -17.4052  -41.1689   -7.9430 N   0  0  0  0  0  0  0  0  0  0  0  0
  -23.7824  -44.9129   -8.7228 S   0  0  0  0  0  6  0  0  0  0  0  0
  -22.8343  -45.6365  -10.0389 C   0  0  0  0  0  0  0  0  0  0  0  0
  -23.9387  -45.9757   -7.6839 O   0  0  0  0  0  0  0  0  0  0  0  0
  -25.1165  -44.4281   -9.1993 O   0  0  0  0  0  0  0  0  0  0  0  0
  -14.2657  -39.6540  -11.4946 C   0  0  0  0  0  0  0  0  0  0  0  0
  -13.9553  -38.7299  -12.4967 C   0  0  0  0  0  0  0  0  0  0  0  0
  -13.4372  -37.5252  -12.1092 C   0  0  0  0  0  0  0  0  0  0  0  0
  1  2  1  0
  2  3  1  0
  2  4  1  0
  4  5  2  0
  5  6  1  0
  6  7  1  0
  7  8  1  0
  8  9  1  0
  9 10  1  0
 10 11  1  6
 10 12  1  0
 12 13  1  1
 13 14  1  0
 14 15  1  1
 14 16  1  0
 16 17  1  0
 17 18  1  0
 18 19  1  0
 19 20  1  0
 20 21  1  0
 21 22  1  0
 22 23  1  0
 23 24  1  0
 24 25  2  0
 25 26  1  0
 26 27  2  0
 27 28  1  0
 28 29  2  0
 28 30  1  0
 30 31  1  0
 30 32  1  0
 32 33  1  0
 32 34  2  0
 32 35  2  0
 26 36  1  0
 36 37  2  0
 36 38  1  0
 23 39  1  0
 39 40  1  0
 39 41  2  0
 39 42  2  0
  6 43  2  0
 43 44  1  0
 44 45  2  0
 29 24  1  0
 38 12  1  0
 45  4  1  0
M  END
$$$$
