
     RDKit          3D

 45 47  0  0  0  0  0  0  0  0999 V2000
  -23.2707  -40.2345   -4.8210 C   0  0  0  0  0  0  0  0  0  0  0  0
  -21.7894  -40.0513   -4.8388 C   0  0  0  0  0  0  0  0  0  0  0  0
  -21.3726  -39.0857   -3.7466 C   0  0  0  0  0  0  0  0  0  0  0  0
  -21.2832  -39.5946   -6.1646 C   0  0  0  0  0  0  0  0  0  0  0  0
  -20.1436  -38.8251   -6.2544 C   0  0  0  0  0  0  0  0  0  0  0  0
  -19.6357  -38.3804   -7.4743 C   0  0  0  0  0  0  0  0  0  0  0  0
  -18.4167  -37.5596   -7.5663 C   0  0  0  0  0  0  0  0  0  0  0  0
  -17.5292  -37.6912   -6.4608 N   0  0  0  0  0  0  0  0  0  0  0  0
  -17.0155  -38.9811   -6.1602 C   0  0  0  0  0  0  0  0  0  0  0  0
  -16.3649  -39.6995   -7.3088 C   0  0  1  0  0  0  0  0  0  0  0  0
  -15.0235  -39.8903   -7.0003 O   0  0  0  0  0  0  0  0  0  0  0  0
  -17.0407  -40.9919   -7.6980 C   0  0  2  0  0  0  0  0  0  0  0  0
  -17.0697  -41.1656   -9.1637 C   0  0  0  0  0  0  0  0  0  0  0  0
  -15.8910  -41.9443   -9.7287 C   0  0  2  0  0  0  0  0  0  0  0  0
  -14.7613  -40.9966  -10.0623 C   0  0  0  0  0  0  0  0  0  0  0  0
  -16.2956  -42.6333  -11.0361 C   0  0  0  0  0  0  0  0  0  0  0  0
  -15.4044  -43.8040  -11.3313 C   0  0  0  0  0  0  0  0  0  0  0  0
  -16.1155  -44.9831  -11.9084 C   0  0  0  0  0  0  0  0  0  0  0  0
  -17.4511  -45.2649  -11.2871 C   0  0  0  0  0  0  0  0  0  0  0  0
  -17.8173  -46.7200  -11.2901 C   0  0  0  0  0  0  0  0  0  0  0  0
  -16.8671  -47.5763  -10.5015 C   0  0  0  0  0  0  0  0  0  0  0  0
  -16.3584  -46.9507   -9.2537 C   0  0  0  0  0  0  0  0  0  0  0  0
  -17.3076  -46.9278   -8.1508 N   0  0  0  0  0  0  0  0  0  0  0  0
  -18.1448  -45.8527   -7.6844 C   0  0  0  0  0  0  0  0  0  0  0  0
  -17.8588  -44.5250   -7.4186 C   0  0  0  0  0  0  0  0  0  0  0  0
  -18.8983  -43.7335   -6.9793 C   0  0  0  0  0  0  0  0  0  0  0  0
  -20.1945  -44.2935   -6.8174 C   0  0  0  0  0  0  0  0  0  0  0  0
  -20.5032  -45.6015   -7.0727 C   0  0  0  0  0  0  0  0  0  0  0  0
  -19.4546  -46.3652   -7.5077 C   0  0  0  0  0  0  0  0  0  0  0  0
  -21.8110  -46.1240   -6.8982 N   0  0  0  0  0  0  0  0  0  0  0  0
  -22.5699  -45.6703   -5.7620 C   0  0  0  0  0  0  0  0  0  0  0  0
  -22.5053  -47.2588   -7.9792 S   0  0  0  0  0  6  0  0  0  0  0  0
  -22.8540  -46.5236   -9.5591 C   0  0  0  0  0  0  0  0  0  0  0  0
  -21.5836  -48.4038   -8.1861 O   0  0  0  0  0  0  0  0  0  0  0  0
  -23.8154  -47.7817   -7.4487 O   0  0  0  0  0  0  0  0  0  0  0  0
  -18.9391  -42.3036   -6.5987 C   0  0  0  0  0  0  0  0  0  0  0  0
  -19.6856  -41.9761   -5.5434 O   0  0  0  0  0  0  0  0  0  0  0  0
  -18.3597  -41.1365   -7.0957 N   0  0  0  0  0  0  0  0  0  0  0  0
  -17.4064  -48.5068   -7.3532 S   0  0  0  0  0  6  0  0  0  0  0  0
  -18.6107  -49.5100   -8.1885 C   0  0  0  0  0  0  0  0  0  0  0  0
  -16.1042  -49.2308   -7.4675 O   0  0  0  0  0  0  0  0  0  0  0  0
  -17.7699  -48.2796   -5.9185 O   0  0  0  0  0  0  0  0  0  0  0  0
  -20.3238  -38.7438   -8.5949 C   0  0  0  0  0  0  0  0  0  0  0  0
  -21.4841  -39.5226   -8.5559 C   0  0  0  0  0  0  0  0  0  0  0  0
  -21.9336  -39.9287   -7.3299 C   0  0  0  0  0  0  0  0  0  0  0  0
  1  2  1  0
  2  3  1  0
  2  4  1  0
  4  5  2  0
  5  6  1  0
  6  7  1  0
  7  8  1  0
  8  9  1  0
  9 10  1  0
 10 11  1  1
 10 12  1  0
 12 13  1  6
 13 14  1  0
 14 15  1  6
 14 16  1  0
 16 17  1  0
 17 18  1  0
 18 19  1  0
 19 20  1  0
 20 21  1  0
 21 22  1  0
 22 23  1  0
 23 24  1  0
 24 25  2  0
 25 26  1  0
 26 27  2  0
 27 28  1  0
 28 29  2  0
 28 30  1  0
 30 31  1  0
 30 32  1  0
 32 33  1  0
 32 34  2  0
 32 35  2  0
 26 36  1  0
 36 37  2  0
 36 38  1  0
 23 39  1  0
 39 40  1  0
 39 41  2  0
 39 42  2  0
  6 43  2  0
 43 44  1  0
 44 45  2  0
 29 24  1  0
 38 12  1  0
 45  4  1  0
M  END
$$$$
