
     RDKit          3D

 45 47  0  0  0  0  0  0  0  0999 V2000
  -10.8921  -35.4256  -12.9768 C   0  0  0  0  0  0  0  0  0  0  0  0
  -11.7612  -36.5939  -13.3052 C   0  0  0  0  0  0  0  0  0  0  0  0
  -12.2826  -36.4705  -14.7237 C   0  0  0  0  0  0  0  0  0  0  0  0
  -12.8887  -36.7590  -12.3440 C   0  0  0  0  0  0  0  0  0  0  0  0
  -12.8299  -37.7102  -11.3487 C   0  0  0  0  0  0  0  0  0  0  0  0
  -13.8609  -37.8945  -10.4285 C   0  0  0  0  0  0  0  0  0  0  0  0
  -13.7937  -38.9111   -9.3653 C   0  0  0  0  0  0  0  0  0  0  0  0
  -14.9469  -39.7400   -9.2647 N   0  0  0  0  0  0  0  0  0  0  0  0
  -16.2234  -39.1171   -9.2436 C   0  0  0  0  0  0  0  0  0  0  0  0
  -16.8515  -38.9803   -7.8851 C   0  0  1  0  0  0  0  0  0  0  0  0
  -17.5165  -37.7614   -7.8328 O   0  0  0  0  0  0  0  0  0  0  0  0
  -17.7517  -40.1280   -7.4969 C   0  0  2  0  0  0  0  0  0  0  0  0
  -18.5411  -39.8106   -6.2904 C   0  0  0  0  0  0  0  0  0  0  0  0
  -19.9091  -39.2080   -6.5739 C   0  0  2  0  0  0  0  0  0  0  0  0
  -19.8002  -37.7023   -6.6571 C   0  0  0  0  0  0  0  0  0  0  0  0
  -20.8698  -39.5224   -5.4225 C   0  0  0  0  0  0  0  0  0  0  0  0
  -22.2994  -39.4466   -5.8720 C   0  0  0  0  0  0  0  0  0  0  0  0
  -23.1814  -40.4983   -5.2843 C   0  0  0  0  0  0  0  0  0  0  0  0
  -22.5508  -41.8561   -5.1966 C   0  0  0  0  0  0  0  0  0  0  0  0
  -23.5348  -42.9820   -5.3222 C   0  0  0  0  0  0  0  0  0  0  0  0
  -24.2513  -43.0040   -6.6428 C   0  0  0  0  0  0  0  0  0  0  0  0
  -23.4117  -42.6302   -7.8101 C   0  0  0  0  0  0  0  0  0  0  0  0
  -22.4885  -43.6637   -8.2545 N   0  0  0  0  0  0  0  0  0  0  0  0
  -21.0787  -43.8061   -7.9960 C   0  0  0  0  0  0  0  0  0  0  0  0
  -20.0410  -42.8943   -8.0779 C   0  0  0  0  0  0  0  0  0  0  0  0
  -18.7794  -43.3468   -7.7560 C   0  0  0  0  0  0  0  0  0  0  0  0
  -18.5919  -44.6995   -7.3624 C   0  0  0  0  0  0  0  0  0  0  0  0
  -19.5999  -45.6201   -7.2738 C   0  0  0  0  0  0  0  0  0  0  0  0
  -20.8417  -45.1458   -7.5978 C   0  0  0  0  0  0  0  0  0  0  0  0
  -19.3725  -46.9635   -6.8768 N   0  0  0  0  0  0  0  0  0  0  0  0
  -20.3183  -47.9603   -7.3062 C   0  0  0  0  0  0  0  0  0  0  0  0
  -18.0297  -47.4300   -5.9189 S   0  0  0  0  0  6  0  0  0  0  0  0
  -18.1244  -46.7385   -4.2846 C   0  0  0  0  0  0  0  0  0  0  0  0
  -17.9695  -48.9085   -5.8015 O   0  0  0  0  0  0  0  0  0  0  0  0
  -16.7380  -46.9392   -6.5204 O   0  0  0  0  0  0  0  0  0  0  0  0
  -17.4702  -42.6560   -7.7486 C   0  0  0  0  0  0  0  0  0  0  0  0
  -16.4166  -43.3443   -8.1894 O   0  0  0  0  0  0  0  0  0  0  0  0
  -17.0296  -41.3876   -7.3722 N   0  0  0  0  0  0  0  0  0  0  0  0
  -23.3196  -44.9013   -9.2120 S   0  0  0  0  0  6  0  0  0  0  0  0
  -22.6456  -44.9202  -10.8552 C   0  0  0  0  0  0  0  0  0  0  0  0
  -23.0690  -46.2587   -8.6394 O   0  0  0  0  0  0  0  0  0  0  0  0
  -24.7823  -44.5814   -9.2140 O   0  0  0  0  0  0  0  0  0  0  0  0
  -14.9491  -37.0814  -10.5546 C   0  0  0  0  0  0  0  0  0  0  0  0
  -15.0560  -36.1022  -11.5468 C   0  0  0  0  0  0  0  0  0  0  0  0
  -14.0125  -35.9689  -12.4204 C   0  0  0  0  0  0  0  0  0  0  0  0
  1  2  1  0
  2  3  1  0
  2  4  1  0
  4  5  2  0
  5  6  1  0
  6  7  1  0
  7  8  1  0
  8  9  1  0
  9 10  1  0
 10 11  1  6
 10 12  1  0
 12 13  1  1
 13 14  1  0
 14 15  1  1
 14 16  1  0
 16 17  1  0
 17 18  1  0
 18 19  1  0
 19 20  1  0
 20 21  1  0
 21 22  1  0
 22 23  1  0
 23 24  1  0
 24 25  2  0
 25 26  1  0
 26 27  2  0
 27 28  1  0
 28 29  2  0
 28 30  1  0
 30 31  1  0
 30 32  1  0
 32 33  1  0
 32 34  2  0
 32 35  2  0
 26 36  1  0
 36 37  2  0
 36 38  1  0
 23 39  1  0
 39 40  1  0
 39 41  2  0
 39 42  2  0
  6 43  2  0
 43 44  1  0
 44 45  2  0
 29 24  1  0
 38 12  1  0
 45  4  1  0
M  END
$$$$
