
     RDKit          3D

 45 47  0  0  0  0  0  0  0  0999 V2000
  -11.9647  -37.2964  -12.6050 C   0  0  0  0  0  0  0  0  0  0  0  0
  -12.3262  -35.8489  -12.5578 C   0  0  0  0  0  0  0  0  0  0  0  0
  -11.1505  -35.0366  -12.0507 C   0  0  0  0  0  0  0  0  0  0  0  0
  -13.5401  -35.5869  -11.7330 C   0  0  0  0  0  0  0  0  0  0  0  0
  -13.8131  -36.3538  -10.6212 C   0  0  0  0  0  0  0  0  0  0  0  0
  -14.9352  -36.1395   -9.8220 C   0  0  0  0  0  0  0  0  0  0  0  0
  -15.2227  -36.9602   -8.6337 C   0  0  0  0  0  0  0  0  0  0  0  0
  -16.4540  -37.6728   -8.6898 N   0  0  0  0  0  0  0  0  0  0  0  0
  -16.4281  -39.0287   -9.1127 C   0  0  0  0  0  0  0  0  0  0  0  0
  -17.6819  -39.5199   -9.7802 C   0  0  1  0  0  0  0  0  0  0  0  0
  -17.3401  -40.0371  -11.0237 O   0  0  0  0  0  0  0  0  0  0  0  0
  -18.4777  -40.5068   -8.9611 C   0  0  2  0  0  0  0  0  0  0  0  0
  -19.2955  -39.8245   -7.9389 C   0  0  0  0  0  0  0  0  0  0  0  0
  -20.7108  -39.4894   -8.3857 C   0  0  2  0  0  0  0  0  0  0  0  0
  -20.7357  -38.1231   -9.0325 C   0  0  0  0  0  0  0  0  0  0  0  0
  -21.6430  -39.4248   -7.1714 C   0  0  0  0  0  0  0  0  0  0  0  0
  -23.0725  -39.6436   -7.5720 C   0  0  0  0  0  0  0  0  0  0  0  0
  -23.8592  -40.4652   -6.6049 C   0  0  0  0  0  0  0  0  0  0  0  0
  -23.1108  -41.6320   -6.0325 C   0  0  0  0  0  0  0  0  0  0  0  0
  -23.9907  -42.7996   -5.6949 C   0  0  0  0  0  0  0  0  0  0  0  0
  -24.6988  -43.3779   -6.8874 C   0  0  0  0  0  0  0  0  0  0  0  0
  -23.8924  -43.4038   -8.1349 C   0  0  0  0  0  0  0  0  0  0  0  0
  -22.8800  -44.4479   -8.1863 N   0  0  0  0  0  0  0  0  0  0  0  0
  -21.4638  -44.3644   -7.9370 C   0  0  0  0  0  0  0  0  0  0  0  0
  -20.5109  -43.4680   -8.3879 C   0  0  0  0  0  0  0  0  0  0  0  0
  -19.2150  -43.6588   -7.9587 C   0  0  0  0  0  0  0  0  0  0  0  0
  -18.9093  -44.7423   -7.0911 C   0  0  0  0  0  0  0  0  0  0  0  0
  -19.8318  -45.6418   -6.6316 C   0  0  0  0  0  0  0  0  0  0  0  0
  -21.1099  -45.4300   -7.0717 C   0  0  0  0  0  0  0  0  0  0  0  0
  -19.4872  -46.7121   -5.7658 N   0  0  0  0  0  0  0  0  0  0  0  0
  -20.4011  -47.0366   -4.7018 C   0  0  0  0  0  0  0  0  0  0  0  0
  -18.0420  -47.6167   -5.9435 S   0  0  0  0  0  6  0  0  0  0  0  0
  -16.6049  -46.5793   -5.8146 C   0  0  0  0  0  0  0  0  0  0  0  0
  -17.9597  -48.6668   -4.8977 O   0  0  0  0  0  0  0  0  0  0  0  0
  -17.9778  -48.2756   -7.2973 O   0  0  0  0  0  0  0  0  0  0  0  0
  -17.9723  -42.9100   -8.2521 C   0  0  0  0  0  0  0  0  0  0  0  0
  -16.8606  -43.6235   -8.4341 O   0  0  0  0  0  0  0  0  0  0  0  0
  -17.6470  -41.5613   -8.3942 N   0  0  0  0  0  0  0  0  0  0  0  0
  -23.5952  -46.0199   -8.5818 S   0  0  0  0  0  6  0  0  0  0  0  0
  -23.5528  -46.2558  -10.3417 C   0  0  0  0  0  0  0  0  0  0  0  0
  -22.7831  -47.1258   -7.9898 O   0  0  0  0  0  0  0  0  0  0  0  0
  -24.9953  -46.0390   -8.0513 O   0  0  0  0  0  0  0  0  0  0  0  0
  -15.7666  -35.1226  -10.1908 C   0  0  0  0  0  0  0  0  0  0  0  0
  -15.5332  -34.3171  -11.3094 C   0  0  0  0  0  0  0  0  0  0  0  0
  -14.4160  -34.5758  -12.0544 C   0  0  0  0  0  0  0  0  0  0  0  0
  1  2  1  0
  2  3  1  0
  2  4  1  0
  4  5  2  0
  5  6  1  0
  6  7  1  0
  7  8  1  0
  8  9  1  0
  9 10  1  0
 10 11  1  6
 10 12  1  0
 12 13  1  1
 13 14  1  0
 14 15  1  1
 14 16  1  0
 16 17  1  0
 17 18  1  0
 18 19  1  0
 19 20  1  0
 20 21  1  0
 21 22  1  0
 22 23  1  0
 23 24  1  0
 24 25  2  0
 25 26  1  0
 26 27  2  0
 27 28  1  0
 28 29  2  0
 28 30  1  0
 30 31  1  0
 30 32  1  0
 32 33  1  0
 32 34  2  0
 32 35  2  0
 26 36  1  0
 36 37  2  0
 36 38  1  0
 23 39  1  0
 39 40  1  0
 39 41  2  0
 39 42  2  0
  6 43  2  0
 43 44  1  0
 44 45  2  0
 29 24  1  0
 38 12  1  0
 45  4  1  0
M  END
$$$$
