
     RDKit          3D

 45 47  0  0  0  0  0  0  0  0999 V2000
  -23.5710  -37.2528   -7.4914 C   0  0  0  0  0  0  0  0  0  0  0  0
  -22.9842  -38.4748   -8.1163 C   0  0  0  0  0  0  0  0  0  0  0  0
  -24.0816  -39.4689   -8.4427 C   0  0  0  0  0  0  0  0  0  0  0  0
  -21.9376  -39.1089   -7.2649 C   0  0  0  0  0  0  0  0  0  0  0  0
  -20.9606  -38.3438   -6.6658 C   0  0  0  0  0  0  0  0  0  0  0  0
  -19.9664  -38.8972   -5.8602 C   0  0  0  0  0  0  0  0  0  0  0  0
  -18.9249  -38.0760   -5.2203 C   0  0  0  0  0  0  0  0  0  0  0  0
  -17.6742  -38.0703   -5.9005 N   0  0  0  0  0  0  0  0  0  0  0  0
  -16.9617  -39.2944   -6.0090 C   0  0  0  0  0  0  0  0  0  0  0  0
  -16.5802  -39.6967   -7.4059 C   0  0  1  0  0  0  0  0  0  0  0  0
  -15.2007  -39.8572   -7.4522 O   0  0  0  0  0  0  0  0  0  0  0  0
  -17.3049  -40.9157   -7.9228 C   0  0  2  0  0  0  0  0  0  0  0  0
  -18.4361  -40.5418   -8.7945 C   0  0  0  0  0  0  0  0  0  0  0  0
  -18.0930  -40.4705  -10.2751 C   0  0  2  0  0  0  0  0  0  0  0  0
  -17.6197  -39.0783  -10.6265 C   0  0  0  0  0  0  0  0  0  0  0  0
  -19.3438  -40.7419  -11.1173 C   0  0  0  0  0  0  0  0  0  0  0  0
  -18.9795  -41.2162  -12.4935 C   0  0  0  0  0  0  0  0  0  0  0  0
  -19.8708  -42.2891  -13.0261 C   0  0  0  0  0  0  0  0  0  0  0  0
  -20.2646  -43.3245  -12.0150 C   0  0  0  0  0  0  0  0  0  0  0  0
  -20.4932  -44.6836  -12.6084 C   0  0  0  0  0  0  0  0  0  0  0  0
  -19.2695  -45.2645  -13.2587 C   0  0  0  0  0  0  0  0  0  0  0  0
  -17.9957  -44.9789  -12.5496 C   0  0  0  0  0  0  0  0  0  0  0  0
  -17.7749  -45.7695  -11.3479 N   0  0  0  0  0  0  0  0  0  0  0  0
  -17.9732  -45.4126   -9.9667 C   0  0  0  0  0  0  0  0  0  0  0  0
  -17.5960  -44.2885   -9.2531 C   0  0  0  0  0  0  0  0  0  0  0  0
  -17.9443  -44.2435   -7.9202 C   0  0  0  0  0  0  0  0  0  0  0  0
  -18.6594  -45.3255   -7.3388 C   0  0  0  0  0  0  0  0  0  0  0  0
  -19.0435  -46.4470   -8.0215 C   0  0  0  0  0  0  0  0  0  0  0  0
  -18.6863  -46.4666   -9.3421 C   0  0  0  0  0  0  0  0  0  0  0  0
  -19.7568  -47.5077   -7.4050 N   0  0  0  0  0  0  0  0  0  0  0  0
  -20.3287  -48.5174   -8.2570 C   0  0  0  0  0  0  0  0  0  0  0  0
  -19.9556  -47.6239   -5.7063 S   0  0  0  0  0  6  0  0  0  0  0  0
  -21.6563  -47.4165   -5.2344 C   0  0  0  0  0  0  0  0  0  0  0  0
  -19.4912  -48.9482   -5.2228 O   0  0  0  0  0  0  0  0  0  0  0  0
  -19.1765  -46.5481   -4.9944 O   0  0  0  0  0  0  0  0  0  0  0  0
  -17.6930  -43.2180   -6.8827 C   0  0  0  0  0  0  0  0  0  0  0  0
  -17.3790  -43.6521   -5.6616 O   0  0  0  0  0  0  0  0  0  0  0  0
  -17.7034  -41.8238   -6.8551 N   0  0  0  0  0  0  0  0  0  0  0  0
  -17.2203  -47.4046  -11.7455 S   0  0  0  0  0  6  0  0  0  0  0  0
  -18.5760  -48.3350  -12.4170 C   0  0  0  0  0  0  0  0  0  0  0  0
  -16.1751  -47.3554  -12.8124 O   0  0  0  0  0  0  0  0  0  0  0  0
  -16.6820  -48.0285  -10.4954 O   0  0  0  0  0  0  0  0  0  0  0  0
  -19.9999  -40.2498   -5.6855 C   0  0  0  0  0  0  0  0  0  0  0  0
  -20.9697  -41.0687   -6.2716 C   0  0  0  0  0  0  0  0  0  0  0  0
  -21.9189  -40.4679   -7.0515 C   0  0  0  0  0  0  0  0  0  0  0  0
  1  2  1  0
  2  3  1  0
  2  4  1  0
  4  5  2  0
  5  6  1  0
  6  7  1  0
  7  8  1  0
  8  9  1  0
  9 10  1  0
 10 11  1  1
 10 12  1  0
 12 13  1  1
 13 14  1  0
 14 15  1  6
 14 16  1  0
 16 17  1  0
 17 18  1  0
 18 19  1  0
 19 20  1  0
 20 21  1  0
 21 22  1  0
 22 23  1  0
 23 24  1  0
 24 25  2  0
 25 26  1  0
 26 27  2  0
 27 28  1  0
 28 29  2  0
 28 30  1  0
 30 31  1  0
 30 32  1  0
 32 33  1  0
 32 34  2  0
 32 35  2  0
 26 36  1  0
 36 37  2  0
 36 38  1  0
 23 39  1  0
 39 40  1  0
 39 41  2  0
 39 42  2  0
  6 43  2  0
 43 44  1  0
 44 45  2  0
 29 24  1  0
 38 12  1  0
 45  4  1  0
M  END
$$$$
