
     RDKit          3D

 45 47  0  0  0  0  0  0  0  0999 V2000
  -21.1387  -35.8421   -7.3485 C   0  0  0  0  0  0  0  0  0  0  0  0
  -20.9381  -36.9082   -6.3232 C   0  0  0  0  0  0  0  0  0  0  0  0
  -21.5500  -36.4806   -5.0033 C   0  0  0  0  0  0  0  0  0  0  0  0
  -19.5030  -37.2697   -6.1439 C   0  0  0  0  0  0  0  0  0  0  0  0
  -18.6442  -37.2921   -7.2214 C   0  0  0  0  0  0  0  0  0  0  0  0
  -17.2954  -37.6217   -7.0959 C   0  0  0  0  0  0  0  0  0  0  0  0
  -16.3804  -37.6429   -8.2495 C   0  0  0  0  0  0  0  0  0  0  0  0
  -16.4311  -38.8366   -9.0237 N   0  0  0  0  0  0  0  0  0  0  0  0
  -17.6392  -39.5840   -9.0296 C   0  0  0  0  0  0  0  0  0  0  0  0
  -17.6485  -40.7871   -9.9302 C   0  0  1  0  0  0  0  0  0  0  0  0
  -16.3324  -41.1205  -10.2262 O   0  0  0  0  0  0  0  0  0  0  0  0
  -18.4176  -41.9664   -9.3860 C   0  0  2  0  0  0  0  0  0  0  0  0
  -19.5355  -41.5312   -8.5257 C   0  0  0  0  0  0  0  0  0  0  0  0
  -20.8618  -41.3660   -9.2526 C   0  0  2  0  0  0  0  0  0  0  0  0
  -20.9838  -39.9564   -9.7855 C   0  0  0  0  0  0  0  0  0  0  0  0
  -22.0245  -41.5759   -8.2772 C   0  0  0  0  0  0  0  0  0  0  0  0
  -23.2797  -41.9621   -9.0034 C   0  0  0  0  0  0  0  0  0  0  0  0
  -24.0993  -42.9937   -8.3011 C   0  0  0  0  0  0  0  0  0  0  0  0
  -23.2992  -44.0902   -7.6634 C   0  0  0  0  0  0  0  0  0  0  0  0
  -24.0175  -45.4069   -7.6193 C   0  0  0  0  0  0  0  0  0  0  0  0
  -24.3508  -45.9509   -8.9797 C   0  0  0  0  0  0  0  0  0  0  0  0
  -23.3089  -45.7182  -10.0129 C   0  0  0  0  0  0  0  0  0  0  0  0
  -22.1450  -46.5860   -9.9130 N   0  0  0  0  0  0  0  0  0  0  0  0
  -20.8480  -46.3182   -9.3467 C   0  0  0  0  0  0  0  0  0  0  0  0
  -19.9892  -45.2446   -9.5046 C   0  0  0  0  0  0  0  0  0  0  0  0
  -18.7988  -45.2841   -8.8109 C   0  0  0  0  0  0  0  0  0  0  0  0
  -18.5010  -46.3978   -7.9795 C   0  0  0  0  0  0  0  0  0  0  0  0
  -19.3317  -47.4708   -7.8067 C   0  0  0  0  0  0  0  0  0  0  0  0
  -20.5063  -47.4068   -8.5055 C   0  0  0  0  0  0  0  0  0  0  0  0
  -18.9983  -48.5655   -6.9673 N   0  0  0  0  0  0  0  0  0  0  0  0
  -19.2275  -49.8939   -7.4727 C   0  0  0  0  0  0  0  0  0  0  0  0
  -18.3417  -48.3604   -5.3972 S   0  0  0  0  0  6  0  0  0  0  0  0
  -18.7514  -46.7678   -4.7234 C   0  0  0  0  0  0  0  0  0  0  0  0
  -18.8607  -49.4067   -4.4812 O   0  0  0  0  0  0  0  0  0  0  0  0
  -16.8372  -48.4431   -5.4237 O   0  0  0  0  0  0  0  0  0  0  0  0
  -17.6688  -44.3292   -8.7617 C   0  0  0  0  0  0  0  0  0  0  0  0
  -16.4385  -44.8430   -8.7418 O   0  0  0  0  0  0  0  0  0  0  0  0
  -17.5563  -42.9396   -8.7269 N   0  0  0  0  0  0  0  0  0  0  0  0
  -22.4823  -48.1948  -10.5742 S   0  0  0  0  0  6  0  0  0  0  0  0
  -22.9108  -49.2947   -9.2472 C   0  0  0  0  0  0  0  0  0  0  0  0
  -23.6695  -48.1473  -11.4806 O   0  0  0  0  0  0  0  0  0  0  0  0
  -21.2636  -48.6586  -11.3101 O   0  0  0  0  0  0  0  0  0  0  0  0
  -16.8518  -37.9263   -5.8422 C   0  0  0  0  0  0  0  0  0  0  0  0
  -17.6832  -37.9179   -4.7183 C   0  0  0  0  0  0  0  0  0  0  0  0
  -18.9969  -37.5867   -4.9045 C   0  0  0  0  0  0  0  0  0  0  0  0
  1  2  1  0
  2  3  1  0
  2  4  1  0
  4  5  2  0
  5  6  1  0
  6  7  1  0
  7  8  1  0
  8  9  1  0
  9 10  1  0
 10 11  1  1
 10 12  1  0
 12 13  1  1
 13 14  1  0
 14 15  1  1
 14 16  1  0
 16 17  1  0
 17 18  1  0
 18 19  1  0
 19 20  1  0
 20 21  1  0
 21 22  1  0
 22 23  1  0
 23 24  1  0
 24 25  2  0
 25 26  1  0
 26 27  2  0
 27 28  1  0
 28 29  2  0
 28 30  1  0
 30 31  1  0
 30 32  1  0
 32 33  1  0
 32 34  2  0
 32 35  2  0
 26 36  1  0
 36 37  2  0
 36 38  1  0
 23 39  1  0
 39 40  1  0
 39 41  2  0
 39 42  2  0
  6 43  2  0
 43 44  1  0
 44 45  2  0
 29 24  1  0
 38 12  1  0
 45  4  1  0
M  END
$$$$
