
     RDKit          3D

 45 47  0  0  0  0  0  0  0  0999 V2000
  -13.2689  -38.1115  -15.0323 C   0  0  0  0  0  0  0  0  0  0  0  0
  -12.4006  -37.4187  -14.0352 C   0  0  0  0  0  0  0  0  0  0  0  0
  -11.1324  -38.2181  -13.8071 C   0  0  0  0  0  0  0  0  0  0  0  0
  -13.1000  -37.1639  -12.7435 C   0  0  0  0  0  0  0  0  0  0  0  0
  -13.2482  -38.1706  -11.8143 C   0  0  0  0  0  0  0  0  0  0  0  0
  -13.8927  -37.9729  -10.5939 C   0  0  0  0  0  0  0  0  0  0  0  0
  -14.0478  -39.0508   -9.6028 C   0  0  0  0  0  0  0  0  0  0  0  0
  -15.3568  -39.1682   -9.0553 N   0  0  0  0  0  0  0  0  0  0  0  0
  -16.4546  -39.2669   -9.9515 C   0  0  0  0  0  0  0  0  0  0  0  0
  -17.7795  -38.8214   -9.3994 C   0  0  1  0  0  0  0  0  0  0  0  0
  -18.5327  -38.2972  -10.4428 O   0  0  0  0  0  0  0  0  0  0  0  0
  -18.5318  -39.8914   -8.6461 C   0  0  2  0  0  0  0  0  0  0  0  0
  -19.2534  -39.3296   -7.4872 C   0  0  0  0  0  0  0  0  0  0  0  0
  -20.6909  -38.9244   -7.7770 C   0  0  2  0  0  0  0  0  0  0  0  0
  -20.7352  -37.4887   -8.2489 C   0  0  0  0  0  0  0  0  0  0  0  0
  -21.5255  -38.9977   -6.4941 C   0  0  0  0  0  0  0  0  0  0  0  0
  -22.9860  -39.1476   -6.8042 C   0  0  0  0  0  0  0  0  0  0  0  0
  -23.7143  -40.0718   -5.8851 C   0  0  0  0  0  0  0  0  0  0  0  0
  -22.9502  -41.3094   -5.5196 C   0  0  0  0  0  0  0  0  0  0  0  0
  -23.8272  -42.4985   -5.2581 C   0  0  0  0  0  0  0  0  0  0  0  0
  -24.6374  -42.9169   -6.4524 C   0  0  0  0  0  0  0  0  0  0  0  0
  -23.9299  -42.7995   -7.7535 C   0  0  0  0  0  0  0  0  0  0  0  0
  -22.9478  -43.8420   -8.0111 N   0  0  0  0  0  0  0  0  0  0  0  0
  -21.5152  -43.8076   -7.8660 C   0  0  0  0  0  0  0  0  0  0  0  0
  -20.5800  -42.8747   -8.2784 C   0  0  0  0  0  0  0  0  0  0  0  0
  -19.2595  -43.1331   -7.9792 C   0  0  0  0  0  0  0  0  0  0  0  0
  -18.9123  -44.3188   -7.2765 C   0  0  0  0  0  0  0  0  0  0  0  0
  -19.8165  -45.2562   -6.8584 C   0  0  0  0  0  0  0  0  0  0  0  0
  -21.1196  -44.9758   -7.1673 C   0  0  0  0  0  0  0  0  0  0  0  0
  -19.4303  -46.4291   -6.1590 N   0  0  0  0  0  0  0  0  0  0  0  0
  -20.4581  -47.3784   -5.8198 C   0  0  0  0  0  0  0  0  0  0  0  0
  -17.8060  -46.7471   -5.7129 S   0  0  0  0  0  6  0  0  0  0  0  0
  -16.9957  -47.7876   -6.9042 C   0  0  0  0  0  0  0  0  0  0  0  0
  -17.0445  -45.4779   -5.6015 O   0  0  0  0  0  0  0  0  0  0  0  0
  -17.7379  -47.4700   -4.3924 O   0  0  0  0  0  0  0  0  0  0  0  0
  -18.0268  -42.3696   -8.2766 C   0  0  0  0  0  0  0  0  0  0  0  0
  -16.9484  -43.0693   -8.6310 O   0  0  0  0  0  0  0  0  0  0  0  0
  -17.6836  -41.0179   -8.2790 N   0  0  0  0  0  0  0  0  0  0  0  0
  -23.7260  -45.3443   -8.5370 S   0  0  0  0  0  6  0  0  0  0  0  0
  -24.7050  -45.9936   -7.2049 C   0  0  0  0  0  0  0  0  0  0  0  0
  -24.6725  -45.0750   -9.6616 O   0  0  0  0  0  0  0  0  0  0  0  0
  -22.6527  -46.3004   -8.9563 O   0  0  0  0  0  0  0  0  0  0  0  0
  -14.3792  -36.7214  -10.3521 C   0  0  0  0  0  0  0  0  0  0  0  0
  -14.2541  -35.6677  -11.2624 C   0  0  0  0  0  0  0  0  0  0  0  0
  -13.6120  -35.9229  -12.4425 C   0  0  0  0  0  0  0  0  0  0  0  0
  1  2  1  0
  2  3  1  0
  2  4  1  0
  4  5  2  0
  5  6  1  0
  6  7  1  0
  7  8  1  0
  8  9  1  0
  9 10  1  0
 10 11  1  6
 10 12  1  0
 12 13  1  1
 13 14  1  0
 14 15  1  1
 14 16  1  0
 16 17  1  0
 17 18  1  0
 18 19  1  0
 19 20  1  0
 20 21  1  0
 21 22  1  0
 22 23  1  0
 23 24  1  0
 24 25  2  0
 25 26  1  0
 26 27  2  0
 27 28  1  0
 28 29  2  0
 28 30  1  0
 30 31  1  0
 30 32  1  0
 32 33  1  0
 32 34  2  0
 32 35  2  0
 26 36  1  0
 36 37  2  0
 36 38  1  0
 23 39  1  0
 39 40  1  0
 39 41  2  0
 39 42  2  0
  6 43  2  0
 43 44  1  0
 44 45  2  0
 29 24  1  0
 38 12  1  0
 45  4  1  0
M  END
$$$$
