
     RDKit          3D

 43 46  0  0  0  0  0  0  0  0999 V2000
  -21.6264  -43.6655  -12.4984 C   0  0  0  0  0  0  0  0  0  0  0  0
  -20.2904  -43.3040  -12.5480 O   0  0  0  0  0  0  0  0  0  0  0  0
  -19.8648  -42.7096  -11.3694 C   0  0  0  0  0  0  0  0  0  0  0  0
  -18.3907  -42.5220  -11.3076 C   0  0  0  0  0  0  0  0  0  0  0  0
  -17.6003  -42.5221  -12.4179 C   0  0  0  0  0  0  0  0  0  0  0  0
  -16.1873  -42.3450  -12.3833 C   0  0  0  0  0  0  0  0  0  0  0  0
  -15.5544  -42.1622  -11.1732 C   0  0  0  0  0  0  0  0  0  0  0  0
  -16.3240  -42.1554  -10.0289 C   0  0  0  0  0  0  0  0  0  0  0  0
  -17.7307  -42.3369  -10.1247 C   0  0  0  0  0  0  0  0  0  0  0  0
  -15.9639  -41.9866   -8.6087 C   0  0  0  0  0  0  0  0  0  0  0  0
  -16.5626  -42.7680   -7.7195 O   0  0  0  0  0  0  0  0  0  0  0  0
  -15.0687  -41.1219   -7.9373 N   0  0  0  0  0  0  0  0  0  0  0  0
  -14.9730  -39.6971   -7.9991 C   0  0  1  0  0  0  0  0  0  0  0  0
  -14.5775  -39.1699   -9.3591 C   0  0  0  0  0  0  0  0  0  0  0  0
  -13.1123  -39.5178   -9.6139 C   0  0  2  0  0  0  0  0  0  0  0  0
  -12.2618  -39.1117   -8.4359 C   0  0  0  0  0  0  0  0  0  0  0  0
  -12.6693  -38.6978  -10.7906 C   0  0  0  0  0  0  0  0  0  0  0  0
  -11.3774  -39.1294  -11.4092 C   0  0  0  0  0  0  0  0  0  0  0  0
  -11.3616  -40.5172  -11.9602 C   0  0  0  0  0  0  0  0  0  0  0  0
  -12.5079  -40.6526  -12.9500 C   0  0  0  0  0  0  0  0  0  0  0  0
  -12.4901  -42.0581  -13.4625 C   0  0  0  0  0  0  0  0  0  0  0  0
  -13.4049  -42.1977  -14.6356 C   0  0  0  0  0  0  0  0  0  0  0  0
  -14.7403  -41.5642  -14.4396 C   0  0  0  0  0  0  0  0  0  0  0  0
  -15.6854  -42.3953  -13.7204 N   0  0  0  0  0  0  0  0  0  0  0  0
  -16.1343  -38.9754   -7.3793 C   0  0  2  0  0  0  0  0  0  0  0  0
  -15.9672  -38.5048   -6.1194 O   0  0  0  0  0  0  0  0  0  0  0  0
  -17.3889  -39.8162   -7.4431 C   0  0  0  0  0  0  0  0  0  0  0  0
  -18.3133  -39.1451   -8.3305 N   0  0  0  0  0  0  0  0  0  0  0  0
  -19.3696  -39.9605   -8.8336 C   0  0  1  0  0  0  0  0  0  0  0  0
  -20.1403  -40.6805   -7.7843 C   0  0  0  0  0  0  0  0  0  0  0  0
  -20.9628  -39.7694   -6.9085 C   0  0  0  0  0  0  0  0  0  0  0  0
  -22.2870  -40.4886   -6.6418 C   0  0  0  0  0  0  0  0  0  0  0  0
  -20.3201  -39.4945   -5.5896 C   0  0  0  0  0  0  0  0  0  0  0  0
  -21.3219  -38.5647   -7.5882 O   0  0  0  0  0  0  0  0  0  0  0  0
  -21.3010  -38.4804   -8.9741 C   0  0  0  0  0  0  0  0  0  0  0  0
  -22.2022  -37.7431   -9.7036 C   0  0  0  0  0  0  0  0  0  0  0  0
  -22.1405  -37.6900  -11.0806 C   0  0  0  0  0  0  0  0  0  0  0  0
  -21.1742  -38.3727  -11.7920 C   0  0  0  0  0  0  0  0  0  0  0  0
  -20.2682  -39.1153  -11.0443 C   0  0  0  0  0  0  0  0  0  0  0  0
  -20.3308  -39.1672   -9.6702 C   0  0  0  0  0  0  0  0  0  0  0  0
  -21.0940  -38.3263  -13.2824 C   0  0  0  0  0  0  0  0  0  0  0  0
  -21.5869  -39.6532  -13.8635 C   0  0  0  0  0  0  0  0  0  0  0  0
  -19.7298  -37.9873  -13.7868 C   0  0  0  0  0  0  0  0  0  0  0  0
  1  2  1  0
  2  3  1  0
  3  4  1  0
  4  5  2  0
  5  6  1  0
  6  7  2  0
  7  8  1  0
  8  9  2  0
  8 10  1  0
 10 11  2  0
 10 12  1  0
 12 13  1  0
 13 14  1  6
 14 15  1  0
 15 16  1  1
 15 17  1  0
 17 18  1  0
 18 19  1  0
 19 20  1  0
 20 21  1  0
 21 22  1  0
 22 23  1  0
 23 24  1  0
 13 25  1  0
 25 26  1  1
 25 27  1  0
 27 28  1  0
 29 28  1  1
 29 30  1  0
 30 31  1  0
 31 32  1  0
 31 33  1  0
 31 34  1  0
 34 35  1  0
 35 36  2  0
 36 37  1  0
 37 38  2  0
 38 39  1  0
 39 40  2  0
 38 41  1  0
 41 42  1  0
 41 43  1  0
  9  4  1  0
 24  6  1  0
 40 35  1  0
 40 29  1  0
M  END
$$$$
