
     RDKit          3D

 43 46  0  0  0  0  0  0  0  0999 V2000
  -17.9016  -48.0045  -10.0123 C   0  0  0  0  0  0  0  0  0  0  0  0
  -17.6211  -46.6485  -10.0382 O   0  0  0  0  0  0  0  0  0  0  0  0
  -17.4651  -46.1216   -8.7648 C   0  0  0  0  0  0  0  0  0  0  0  0
  -18.4562  -45.0597   -8.4451 C   0  0  0  0  0  0  0  0  0  0  0  0
  -19.5682  -45.2918   -7.6921 C   0  0  0  0  0  0  0  0  0  0  0  0
  -20.5311  -44.2915   -7.3736 C   0  0  0  0  0  0  0  0  0  0  0  0
  -20.3566  -43.0068   -7.8400 C   0  0  0  0  0  0  0  0  0  0  0  0
  -19.2413  -42.7362   -8.6045 C   0  0  0  0  0  0  0  0  0  0  0  0
  -18.3138  -43.7749   -8.8902 C   0  0  0  0  0  0  0  0  0  0  0  0
  -18.7703  -41.4923   -9.2418 C   0  0  0  0  0  0  0  0  0  0  0  0
  -18.2702  -41.5740  -10.4678 O   0  0  0  0  0  0  0  0  0  0  0  0
  -18.7260  -40.1458   -8.8120 N   0  0  0  0  0  0  0  0  0  0  0  0
  -18.1619  -39.5974   -7.6187 C   0  0  1  0  0  0  0  0  0  0  0  0
  -18.8477  -40.0557   -6.3523 C   0  0  0  0  0  0  0  0  0  0  0  0
  -20.2298  -39.4096   -6.2805 C   0  0  2  0  0  0  0  0  0  0  0  0
  -20.1296  -37.9233   -6.5188 C   0  0  0  0  0  0  0  0  0  0  0  0
  -20.7291  -39.6063   -4.8787 C   0  0  0  0  0  0  0  0  0  0  0  0
  -22.1898  -39.3461   -4.6873 C   0  0  0  0  0  0  0  0  0  0  0  0
  -23.1064  -40.2183   -5.4805 C   0  0  0  0  0  0  0  0  0  0  0  0
  -22.7702  -41.6694   -5.1749 C   0  0  0  0  0  0  0  0  0  0  0  0
  -23.6786  -42.5211   -6.0043 C   0  0  0  0  0  0  0  0  0  0  0  0
  -23.6038  -43.9468   -5.5637 C   0  0  0  0  0  0  0  0  0  0  0  0
  -22.2135  -44.4427   -5.3541 C   0  0  0  0  0  0  0  0  0  0  0  0
  -21.5555  -44.8798   -6.5695 N   0  0  0  0  0  0  0  0  0  0  0  0
  -16.6635  -39.6650   -7.5596 C   0  0  2  0  0  0  0  0  0  0  0  0
  -16.0610  -39.0844   -6.4935 O   0  0  0  0  0  0  0  0  0  0  0  0
  -16.0485  -39.1395   -8.8366 C   0  0  0  0  0  0  0  0  0  0  0  0
  -14.6127  -39.2525   -8.7024 N   0  0  0  0  0  0  0  0  0  0  0  0
  -13.8699  -38.1331   -9.1811 C   0  0  1  0  0  0  0  0  0  0  0  0
  -12.4180  -38.3971   -9.3698 C   0  0  0  0  0  0  0  0  0  0  0  0
  -12.1208  -39.3564  -10.4946 C   0  0  0  0  0  0  0  0  0  0  0  0
  -10.8658  -38.8368  -11.1995 C   0  0  0  0  0  0  0  0  0  0  0  0
  -11.8349  -40.7415  -10.0173 C   0  0  0  0  0  0  0  0  0  0  0  0
  -13.1448  -39.3364  -11.4913 O   0  0  0  0  0  0  0  0  0  0  0  0
  -14.0199  -38.2648  -11.6103 C   0  0  0  0  0  0  0  0  0  0  0  0
  -14.5086  -37.8135  -12.8125 C   0  0  0  0  0  0  0  0  0  0  0  0
  -15.3772  -36.7440  -12.8799 C   0  0  0  0  0  0  0  0  0  0  0  0
  -15.7970  -36.0759  -11.7470 C   0  0  0  0  0  0  0  0  0  0  0  0
  -15.2964  -36.5405  -10.5367 C   0  0  0  0  0  0  0  0  0  0  0  0
  -14.4299  -37.6080  -10.4710 C   0  0  0  0  0  0  0  0  0  0  0  0
  -16.7361  -34.9162  -11.8027 C   0  0  0  0  0  0  0  0  0  0  0  0
  -16.0834  -33.6967  -11.1485 C   0  0  0  0  0  0  0  0  0  0  0  0
  -18.0680  -35.2095  -11.1942 C   0  0  0  0  0  0  0  0  0  0  0  0
  1  2  1  0
  2  3  1  0
  3  4  1  0
  4  5  2  0
  5  6  1  0
  6  7  2  0
  7  8  1  0
  8  9  2  0
  8 10  1  0
 10 11  2  0
 10 12  1  0
 12 13  1  0
 13 14  1  1
 14 15  1  0
 15 16  1  1
 15 17  1  0
 17 18  1  0
 18 19  1  0
 19 20  1  0
 20 21  1  0
 21 22  1  0
 22 23  1  0
 23 24  1  0
 13 25  1  0
 25 26  1  1
 25 27  1  0
 27 28  1  0
 29 28  1  6
 29 30  1  0
 30 31  1  0
 31 32  1  0
 31 33  1  0
 31 34  1  0
 34 35  1  0
 35 36  2  0
 36 37  1  0
 37 38  2  0
 38 39  1  0
 39 40  2  0
 38 41  1  0
 41 42  1  0
 41 43  1  0
  9  4  1  0
 24  6  1  0
 40 35  1  0
 40 29  1  0
M  END
$$$$
