
     RDKit          3D

 43 46  0  0  0  0  0  0  0  0999 V2000
  -14.2871  -42.0344   -7.2201 C   0  0  0  0  0  0  0  0  0  0  0  0
  -14.5886  -43.2714   -6.6749 O   0  0  0  0  0  0  0  0  0  0  0  0
  -15.3483  -44.0512   -7.5341 C   0  0  0  0  0  0  0  0  0  0  0  0
  -16.7724  -43.6278   -7.6042 C   0  0  0  0  0  0  0  0  0  0  0  0
  -17.6779  -43.9226   -6.6293 C   0  0  0  0  0  0  0  0  0  0  0  0
  -19.0461  -43.5286   -6.6749 C   0  0  0  0  0  0  0  0  0  0  0  0
  -19.5107  -42.8085   -7.7537 C   0  0  0  0  0  0  0  0  0  0  0  0
  -18.6209  -42.4916   -8.7586 C   0  0  0  0  0  0  0  0  0  0  0  0
  -17.2665  -42.9117   -8.6588 C   0  0  0  0  0  0  0  0  0  0  0  0
  -18.7943  -41.7477  -10.0202 C   0  0  0  0  0  0  0  0  0  0  0  0
  -18.1972  -42.2203  -11.1064 O   0  0  0  0  0  0  0  0  0  0  0  0
  -19.4964  -40.5664  -10.3542 N   0  0  0  0  0  0  0  0  0  0  0  0
  -19.4257  -39.2732   -9.7498 C   0  0  1  0  0  0  0  0  0  0  0  0
  -19.9067  -39.2413   -8.3173 C   0  0  0  0  0  0  0  0  0  0  0  0
  -21.4225  -39.4276   -8.3037 C   0  0  2  0  0  0  0  0  0  0  0  0
  -22.0784  -38.4818   -9.2791 C   0  0  0  0  0  0  0  0  0  0  0  0
  -21.8941  -39.0520   -6.9290 C   0  0  0  0  0  0  0  0  0  0  0  0
  -23.2904  -39.4783   -6.6031 C   0  0  0  0  0  0  0  0  0  0  0  0
  -23.5362  -40.9509   -6.6361 C   0  0  0  0  0  0  0  0  0  0  0  0
  -22.5346  -41.6245   -5.7114 C   0  0  0  0  0  0  0  0  0  0  0  0
  -22.7801  -43.0984   -5.7869 C   0  0  0  0  0  0  0  0  0  0  0  0
  -22.0281  -43.8087   -4.7088 C   0  0  0  0  0  0  0  0  0  0  0  0
  -20.6124  -43.3636   -4.5651 C   0  0  0  0  0  0  0  0  0  0  0  0
  -19.6990  -43.9992   -5.4940 N   0  0  0  0  0  0  0  0  0  0  0  0
  -18.1230  -38.5611   -9.9718 C   0  0  2  0  0  0  0  0  0  0  0  0
  -18.1348  -37.5019  -10.8172 O   0  0  0  0  0  0  0  0  0  0  0  0
  -17.0420  -39.5311  -10.3909 C   0  0  0  0  0  0  0  0  0  0  0  0
  -15.9187  -38.7492  -10.8591 N   0  0  0  0  0  0  0  0  0  0  0  0
  -14.6828  -39.0079  -10.1960 C   0  0  1  0  0  0  0  0  0  0  0  0
  -14.3333  -40.4502  -10.0931 C   0  0  0  0  0  0  0  0  0  0  0  0
  -14.0093  -41.0882  -11.4204 C   0  0  0  0  0  0  0  0  0  0  0  0
  -12.8430  -42.0487  -11.1769 C   0  0  0  0  0  0  0  0  0  0  0  0
  -15.1445  -41.8819  -11.9767 C   0  0  0  0  0  0  0  0  0  0  0  0
  -13.5159  -40.1318  -12.3606 O   0  0  0  0  0  0  0  0  0  0  0  0
  -12.9914  -38.9139  -11.9485 C   0  0  0  0  0  0  0  0  0  0  0  0
  -11.9424  -38.2872  -12.5768 C   0  0  0  0  0  0  0  0  0  0  0  0
  -11.4560  -37.0763  -12.1298 C   0  0  0  0  0  0  0  0  0  0  0  0
  -11.9967  -36.4359  -11.0327 C   0  0  0  0  0  0  0  0  0  0  0  0
  -13.0569  -37.0787  -10.4047 C   0  0  0  0  0  0  0  0  0  0  0  0
  -13.5413  -38.2869  -10.8520 C   0  0  0  0  0  0  0  0  0  0  0  0
  -11.4816  -35.1255  -10.5356 C   0  0  0  0  0  0  0  0  0  0  0  0
  -11.8367  -34.0230  -11.5354 C   0  0  0  0  0  0  0  0  0  0  0  0
  -10.0167  -35.1423  -10.2454 C   0  0  0  0  0  0  0  0  0  0  0  0
  1  2  1  0
  2  3  1  0
  3  4  1  0
  4  5  2  0
  5  6  1  0
  6  7  2  0
  7  8  1  0
  8  9  2  0
  8 10  1  0
 10 11  2  0
 10 12  1  0
 12 13  1  0
 13 14  1  1
 14 15  1  0
 15 16  1  6
 15 17  1  0
 17 18  1  0
 18 19  1  0
 19 20  1  0
 20 21  1  0
 21 22  1  0
 22 23  1  0
 23 24  1  0
 13 25  1  0
 25 26  1  6
 25 27  1  0
 27 28  1  0
 29 28  1  6
 29 30  1  0
 30 31  1  0
 31 32  1  0
 31 33  1  0
 31 34  1  0
 34 35  1  0
 35 36  2  0
 36 37  1  0
 37 38  2  0
 38 39  1  0
 39 40  2  0
 38 41  1  0
 41 42  1  0
 41 43  1  0
  9  4  1  0
 24  6  1  0
 40 35  1  0
 40 29  1  0
M  END
$$$$
