
     RDKit          3D

 43 46  0  0  0  0  0  0  0  0999 V2000
  -15.7003  -47.0640  -10.2500 C   0  0  0  0  0  0  0  0  0  0  0  0
  -16.3157  -45.8446  -10.0212 O   0  0  0  0  0  0  0  0  0  0  0  0
  -16.7206  -45.7017   -8.7024 C   0  0  0  0  0  0  0  0  0  0  0  0
  -17.8431  -44.7403   -8.5355 C   0  0  0  0  0  0  0  0  0  0  0  0
  -19.0119  -45.0717   -7.9179 C   0  0  0  0  0  0  0  0  0  0  0  0
  -20.1002  -44.1687   -7.7471 C   0  0  0  0  0  0  0  0  0  0  0  0
  -19.9959  -42.8802   -8.2238 C   0  0  0  0  0  0  0  0  0  0  0  0
  -18.8261  -42.5103   -8.8535 C   0  0  0  0  0  0  0  0  0  0  0  0
  -17.7730  -43.4546   -8.9951 C   0  0  0  0  0  0  0  0  0  0  0  0
  -18.4038  -41.2352   -9.4625 C   0  0  0  0  0  0  0  0  0  0  0  0
  -17.7496  -41.2847  -10.6155 O   0  0  0  0  0  0  0  0  0  0  0  0
  -18.5455  -39.8846   -9.0677 N   0  0  0  0  0  0  0  0  0  0  0  0
  -18.1906  -39.2642   -7.8300 C   0  0  1  0  0  0  0  0  0  0  0  0
  -18.9802  -39.7699   -6.6447 C   0  0  0  0  0  0  0  0  0  0  0  0
  -20.4171  -39.2652   -6.7601 C   0  0  2  0  0  0  0  0  0  0  0  0
  -20.4342  -37.7801   -7.0252 C   0  0  0  0  0  0  0  0  0  0  0  0
  -21.0651  -39.4898   -5.4249 C   0  0  0  0  0  0  0  0  0  0  0  0
  -22.5566  -39.3751   -5.4207 C   0  0  0  0  0  0  0  0  0  0  0  0
  -23.2776  -40.3471   -6.2955 C   0  0  0  0  0  0  0  0  0  0  0  0
  -22.8414  -41.7522   -5.9114 C   0  0  0  0  0  0  0  0  0  0  0  0
  -23.5518  -42.7034   -6.8218 C   0  0  0  0  0  0  0  0  0  0  0  0
  -23.3930  -44.1076   -6.3363 C   0  0  0  0  0  0  0  0  0  0  0  0
  -21.9976  -44.4577   -5.9448 C   0  0  0  0  0  0  0  0  0  0  0  0
  -21.1541  -44.8448   -7.0583 N   0  0  0  0  0  0  0  0  0  0  0  0
  -16.7117  -39.1797   -7.5865 C   0  0  2  0  0  0  0  0  0  0  0  0
  -16.2968  -38.3687   -6.5831 O   0  0  0  0  0  0  0  0  0  0  0  0
  -15.9742  -38.8290   -8.8585 C   0  0  0  0  0  0  0  0  0  0  0  0
  -14.6557  -39.4172   -8.7689 N   0  0  0  0  0  0  0  0  0  0  0  0
  -13.5830  -38.5602   -9.1546 C   0  0  1  0  0  0  0  0  0  0  0  0
  -12.2412  -39.2011   -9.1108 C   0  0  0  0  0  0  0  0  0  0  0  0
  -12.0514  -40.2745  -10.1526 C   0  0  0  0  0  0  0  0  0  0  0  0
  -10.6166  -40.1424  -10.6681 C   0  0  0  0  0  0  0  0  0  0  0  0
  -12.2130  -41.6531   -9.6034 C   0  0  0  0  0  0  0  0  0  0  0  0
  -12.8810  -40.0550  -11.2954 O   0  0  0  0  0  0  0  0  0  0  0  0
  -13.4153  -38.8040  -11.5739 C   0  0  0  0  0  0  0  0  0  0  0  0
  -13.5909  -38.3198  -12.8477 C   0  0  0  0  0  0  0  0  0  0  0  0
  -14.1269  -37.0691  -13.0742 C   0  0  0  0  0  0  0  0  0  0  0  0
  -14.5118  -36.2442  -12.0362 C   0  0  0  0  0  0  0  0  0  0  0  0
  -14.3294  -36.7437  -10.7522 C   0  0  0  0  0  0  0  0  0  0  0  0
  -13.7947  -37.9921  -10.5278 C   0  0  0  0  0  0  0  0  0  0  0  0
  -15.0928  -34.8877  -12.2642 C   0  0  0  0  0  0  0  0  0  0  0  0
  -14.2488  -33.8399  -11.5355 C   0  0  0  0  0  0  0  0  0  0  0  0
  -16.5311  -34.7918  -11.8738 C   0  0  0  0  0  0  0  0  0  0  0  0
  1  2  1  0
  2  3  1  0
  3  4  1  0
  4  5  2  0
  5  6  1  0
  6  7  2  0
  7  8  1  0
  8  9  2  0
  8 10  1  0
 10 11  2  0
 10 12  1  0
 12 13  1  0
 13 14  1  1
 14 15  1  0
 15 16  1  1
 15 17  1  0
 17 18  1  0
 18 19  1  0
 19 20  1  0
 20 21  1  0
 21 22  1  0
 22 23  1  0
 23 24  1  0
 13 25  1  0
 25 26  1  1
 25 27  1  0
 27 28  1  0
 29 28  1  6
 29 30  1  0
 30 31  1  0
 31 32  1  0
 31 33  1  0
 31 34  1  0
 34 35  1  0
 35 36  2  0
 36 37  1  0
 37 38  2  0
 38 39  1  0
 39 40  2  0
 38 41  1  0
 41 42  1  0
 41 43  1  0
  9  4  1  0
 24  6  1  0
 40 35  1  0
 40 29  1  0
M  END
$$$$
