
     RDKit          3D

 43 46  0  0  0  0  0  0  0  0999 V2000
  -14.3582  -46.0981   -7.6838 C   0  0  0  0  0  0  0  0  0  0  0  0
  -15.3856  -45.2345   -7.3424 O   0  0  0  0  0  0  0  0  0  0  0  0
  -16.6348  -45.7782   -7.6021 C   0  0  0  0  0  0  0  0  0  0  0  0
  -17.7317  -44.7750   -7.5528 C   0  0  0  0  0  0  0  0  0  0  0  0
  -18.8866  -44.9791   -6.8587 C   0  0  0  0  0  0  0  0  0  0  0  0
  -19.9506  -44.0338   -6.7975 C   0  0  0  0  0  0  0  0  0  0  0  0
  -19.8355  -42.8362   -7.4689 C   0  0  0  0  0  0  0  0  0  0  0  0
  -18.6791  -42.5959   -8.1808 C   0  0  0  0  0  0  0  0  0  0  0  0
  -17.6503  -43.5767   -8.2058 C   0  0  0  0  0  0  0  0  0  0  0  0
  -18.2507  -41.4396   -8.9899 C   0  0  0  0  0  0  0  0  0  0  0  0
  -17.6348  -41.6808  -10.1398 O   0  0  0  0  0  0  0  0  0  0  0  0
  -18.3525  -40.0415   -8.8030 N   0  0  0  0  0  0  0  0  0  0  0  0
  -17.9458  -39.2485   -7.6856 C   0  0  1  0  0  0  0  0  0  0  0  0
  -18.7073  -39.5476   -6.4149 C   0  0  0  0  0  0  0  0  0  0  0  0
  -20.1367  -39.0308   -6.5654 C   0  0  2  0  0  0  0  0  0  0  0  0
  -20.1322  -37.6037   -7.0544 C   0  0  0  0  0  0  0  0  0  0  0  0
  -20.7461  -39.0328   -5.1937 C   0  0  0  0  0  0  0  0  0  0  0  0
  -22.2341  -38.8818   -5.1646 C   0  0  0  0  0  0  0  0  0  0  0  0
  -23.0021  -39.9577   -5.8593 C   0  0  0  0  0  0  0  0  0  0  0  0
  -22.5824  -41.2981   -5.2768 C   0  0  0  0  0  0  0  0  0  0  0  0
  -23.3405  -42.3592   -6.0100 C   0  0  0  0  0  0  0  0  0  0  0  0
  -23.1947  -43.6763   -5.3197 C   0  0  0  0  0  0  0  0  0  0  0  0
  -21.7949  -43.9972   -4.9190 C   0  0  0  0  0  0  0  0  0  0  0  0
  -20.9953  -44.5705   -5.9835 N   0  0  0  0  0  0  0  0  0  0  0  0
  -16.4585  -39.1646   -7.5000 C   0  0  2  0  0  0  0  0  0  0  0  0
  -15.9913  -38.1768   -6.6983 O   0  0  0  0  0  0  0  0  0  0  0  0
  -15.7501  -39.1110   -8.8343 C   0  0  0  0  0  0  0  0  0  0  0  0
  -14.5283  -39.8745   -8.7050 N   0  0  0  0  0  0  0  0  0  0  0  0
  -13.3493  -39.2111   -9.1563 C   0  0  1  0  0  0  0  0  0  0  0  0
  -12.1304  -40.0641   -9.1610 C   0  0  0  0  0  0  0  0  0  0  0  0
  -12.1702  -41.1669  -10.1886 C   0  0  0  0  0  0  0  0  0  0  0  0
  -10.7598  -41.2797  -10.7716 C   0  0  0  0  0  0  0  0  0  0  0  0
  -12.5294  -42.4930   -9.6051 C   0  0  0  0  0  0  0  0  0  0  0  0
  -13.0066  -40.8275  -11.2966 O   0  0  0  0  0  0  0  0  0  0  0  0
  -13.3410  -39.5089  -11.5754 C   0  0  0  0  0  0  0  0  0  0  0  0
  -13.4960  -39.0180  -12.8493 C   0  0  0  0  0  0  0  0  0  0  0  0
  -13.8295  -37.6989  -13.0762 C   0  0  0  0  0  0  0  0  0  0  0  0
  -14.0231  -36.8091  -12.0384 C   0  0  0  0  0  0  0  0  0  0  0  0
  -13.8634  -37.3161  -10.7543 C   0  0  0  0  0  0  0  0  0  0  0  0
  -13.5308  -38.6327  -10.5295 C   0  0  0  0  0  0  0  0  0  0  0  0
  -14.3836  -35.3782  -12.2668 C   0  0  0  0  0  0  0  0  0  0  0  0
  -13.1478  -34.4995  -12.0619 C   0  0  0  0  0  0  0  0  0  0  0  0
  -15.5229  -34.9171  -11.4183 C   0  0  0  0  0  0  0  0  0  0  0  0
  1  2  1  0
  2  3  1  0
  3  4  1  0
  4  5  2  0
  5  6  1  0
  6  7  2  0
  7  8  1  0
  8  9  2  0
  8 10  1  0
 10 11  2  0
 10 12  1  0
 12 13  1  0
 13 14  1  1
 14 15  1  0
 15 16  1  1
 15 17  1  0
 17 18  1  0
 18 19  1  0
 19 20  1  0
 20 21  1  0
 21 22  1  0
 22 23  1  0
 23 24  1  0
 13 25  1  0
 25 26  1  1
 25 27  1  0
 27 28  1  0
 29 28  1  6
 29 30  1  0
 30 31  1  0
 31 32  1  0
 31 33  1  0
 31 34  1  0
 34 35  1  0
 35 36  2  0
 36 37  1  0
 37 38  2  0
 38 39  1  0
 39 40  2  0
 38 41  1  0
 41 42  1  0
 41 43  1  0
  9  4  1  0
 24  6  1  0
 40 35  1  0
 40 29  1  0
M  END
$$$$
