
     RDKit          3D

 43 46  0  0  0  0  0  0  0  0999 V2000
  -16.7008  -47.7111   -7.1758 C   0  0  0  0  0  0  0  0  0  0  0  0
  -16.6122  -46.6980   -8.1160 O   0  0  0  0  0  0  0  0  0  0  0  0
  -17.7274  -46.6485   -8.9391 C   0  0  0  0  0  0  0  0  0  0  0  0
  -18.6434  -45.5220   -8.6165 C   0  0  0  0  0  0  0  0  0  0  0  0
  -19.7948  -45.6883   -7.9065 C   0  0  0  0  0  0  0  0  0  0  0  0
  -20.6874  -44.6253   -7.5862 C   0  0  0  0  0  0  0  0  0  0  0  0
  -20.3983  -43.3451   -8.0054 C   0  0  0  0  0  0  0  0  0  0  0  0
  -19.2402  -43.1403   -8.7256 C   0  0  0  0  0  0  0  0  0  0  0  0
  -18.3869  -44.2398   -9.0154 C   0  0  0  0  0  0  0  0  0  0  0  0
  -18.6530  -41.9190   -9.3075 C   0  0  0  0  0  0  0  0  0  0  0  0
  -18.1197  -42.0033  -10.5193 O   0  0  0  0  0  0  0  0  0  0  0  0
  -18.5190  -40.5934   -8.8335 N   0  0  0  0  0  0  0  0  0  0  0  0
  -17.9546  -40.1266   -7.6062 C   0  0  1  0  0  0  0  0  0  0  0  0
  -18.7161  -40.5669   -6.3772 C   0  0  0  0  0  0  0  0  0  0  0  0
  -20.0455  -39.8167   -6.3279 C   0  0  2  0  0  0  0  0  0  0  0  0
  -19.8224  -38.3364   -6.5150 C   0  0  0  0  0  0  0  0  0  0  0  0
  -20.6055  -40.0149   -4.9494 C   0  0  0  0  0  0  0  0  0  0  0  0
  -22.0472  -39.6467   -4.7955 C   0  0  0  0  0  0  0  0  0  0  0  0
  -23.0014  -40.4203   -5.6445 C   0  0  0  0  0  0  0  0  0  0  0  0
  -22.7892  -41.9018   -5.3755 C   0  0  0  0  0  0  0  0  0  0  0  0
  -23.7325  -42.6545   -6.2597 C   0  0  0  0  0  0  0  0  0  0  0  0
  -23.7833  -44.0942   -5.8631 C   0  0  0  0  0  0  0  0  0  0  0  0
  -22.4435  -44.7037   -5.6262 C   0  0  0  0  0  0  0  0  0  0  0  0
  -21.7808  -45.1549   -6.8339 N   0  0  0  0  0  0  0  0  0  0  0  0
  -16.4687  -40.3134   -7.5025 C   0  0  2  0  0  0  0  0  0  0  0  0
  -15.7911  -39.4450   -6.7129 O   0  0  0  0  0  0  0  0  0  0  0  0
  -15.8325  -40.3532   -8.8732 C   0  0  0  0  0  0  0  0  0  0  0  0
  -14.4011  -40.4364   -8.6822 N   0  0  0  0  0  0  0  0  0  0  0  0
  -13.6968  -39.2064   -8.8408 C   0  0  1  0  0  0  0  0  0  0  0  0
  -12.2302  -39.3067   -8.6119 C   0  0  0  0  0  0  0  0  0  0  0  0
  -11.5095  -40.1110   -9.6642 C   0  0  0  0  0  0  0  0  0  0  0  0
  -10.1798  -39.4015   -9.9299 C   0  0  0  0  0  0  0  0  0  0  0  0
  -11.2026  -41.5036   -9.2231 C   0  0  0  0  0  0  0  0  0  0  0  0
  -12.2019  -40.0878  -10.9141 O   0  0  0  0  0  0  0  0  0  0  0  0
  -13.1322  -39.1000  -11.2094 C   0  0  0  0  0  0  0  0  0  0  0  0
  -13.3104  -38.5764  -12.4672 C   0  0  0  0  0  0  0  0  0  0  0  0
  -14.2489  -37.5955  -12.7115 C   0  0  0  0  0  0  0  0  0  0  0  0
  -15.0528  -37.0923  -11.7081 C   0  0  0  0  0  0  0  0  0  0  0  0
  -14.8638  -37.6287  -10.4400 C   0  0  0  0  0  0  0  0  0  0  0  0
  -13.9270  -38.6077  -10.1978 C   0  0  0  0  0  0  0  0  0  0  0  0
  -16.0727  -36.0301  -11.9556 C   0  0  0  0  0  0  0  0  0  0  0  0
  -15.4129  -34.6532  -11.8564 C   0  0  0  0  0  0  0  0  0  0  0  0
  -17.2562  -36.1302  -11.0503 C   0  0  0  0  0  0  0  0  0  0  0  0
  1  2  1  0
  2  3  1  0
  3  4  1  0
  4  5  2  0
  5  6  1  0
  6  7  2  0
  7  8  1  0
  8  9  2  0
  8 10  1  0
 10 11  2  0
 10 12  1  0
 12 13  1  0
 13 14  1  1
 14 15  1  0
 15 16  1  1
 15 17  1  0
 17 18  1  0
 18 19  1  0
 19 20  1  0
 20 21  1  0
 21 22  1  0
 22 23  1  0
 23 24  1  0
 13 25  1  0
 25 26  1  1
 25 27  1  0
 27 28  1  0
 29 28  1  6
 29 30  1  0
 30 31  1  0
 31 32  1  0
 31 33  1  0
 31 34  1  0
 34 35  1  0
 35 36  2  0
 36 37  1  0
 37 38  2  0
 38 39  1  0
 39 40  2  0
 38 41  1  0
 41 42  1  0
 41 43  1  0
  9  4  1  0
 24  6  1  0
 40 35  1  0
 40 29  1  0
M  END
$$$$
