
     RDKit          3D

 43 46  0  0  0  0  0  0  0  0999 V2000
  -16.4101  -46.7655   -8.2009 C   0  0  0  0  0  0  0  0  0  0  0  0
  -16.3468  -45.4528   -8.6377 O   0  0  0  0  0  0  0  0  0  0  0  0
  -17.3104  -45.1724   -9.5950 C   0  0  0  0  0  0  0  0  0  0  0  0
  -18.4146  -44.3186   -9.0815 C   0  0  0  0  0  0  0  0  0  0  0  0
  -19.4919  -44.8264   -8.4188 C   0  0  0  0  0  0  0  0  0  0  0  0
  -20.5612  -44.0289   -7.9188 C   0  0  0  0  0  0  0  0  0  0  0  0
  -20.5340  -42.6635   -8.1011 C   0  0  0  0  0  0  0  0  0  0  0  0
  -19.4577  -42.1156   -8.7669 C   0  0  0  0  0  0  0  0  0  0  0  0
  -18.4192  -42.9612   -9.2437 C   0  0  0  0  0  0  0  0  0  0  0  0
  -19.1316  -40.7208   -9.1182 C   0  0  0  0  0  0  0  0  0  0  0  0
  -18.6277  -40.4858  -10.3227 O   0  0  0  0  0  0  0  0  0  0  0  0
  -19.2392  -39.4989   -8.4144 N   0  0  0  0  0  0  0  0  0  0  0  0
  -18.7386  -39.1557   -7.1205 C   0  0  1  0  0  0  0  0  0  0  0  0
  -19.3659  -39.9442   -5.9940 C   0  0  0  0  0  0  0  0  0  0  0  0
  -20.8120  -39.4852   -5.8187 C   0  0  2  0  0  0  0  0  0  0  0  0
  -20.8810  -37.9804   -5.7374 C   0  0  0  0  0  0  0  0  0  0  0  0
  -21.2833  -40.0275   -4.5009 C   0  0  0  0  0  0  0  0  0  0  0  0
  -22.7637  -39.9774   -4.2915 C   0  0  0  0  0  0  0  0  0  0  0  0
  -23.5772  -40.7586   -5.2702 C   0  0  0  0  0  0  0  0  0  0  0  0
  -23.0785  -42.1951   -5.2687 C   0  0  0  0  0  0  0  0  0  0  0  0
  -23.8862  -42.9478   -6.2783 C   0  0  0  0  0  0  0  0  0  0  0  0
  -23.6499  -44.4172   -6.1453 C   0  0  0  0  0  0  0  0  0  0  0  0
  -22.2120  -44.7888   -6.0138 C   0  0  0  0  0  0  0  0  0  0  0  0
  -21.5110  -44.8836   -7.2790 N   0  0  0  0  0  0  0  0  0  0  0  0
  -17.2420  -39.0676   -7.0437 C   0  0  2  0  0  0  0  0  0  0  0  0
  -16.7052  -38.7086   -5.8523 O   0  0  0  0  0  0  0  0  0  0  0  0
  -16.6971  -38.1737   -8.1341 C   0  0  0  0  0  0  0  0  0  0  0  0
  -15.9009  -39.0017   -9.0132 N   0  0  0  0  0  0  0  0  0  0  0  0
  -15.0480  -38.2898   -9.9074 C   0  0  1  0  0  0  0  0  0  0  0  0
  -13.6658  -38.8325   -9.9977 C   0  0  0  0  0  0  0  0  0  0  0  0
  -13.5920  -40.1878  -10.6545 C   0  0  0  0  0  0  0  0  0  0  0  0
  -12.3342  -40.1893  -11.5262 C   0  0  0  0  0  0  0  0  0  0  0  0
  -13.4665  -41.3043   -9.6717 C   0  0  0  0  0  0  0  0  0  0  0  0
  -14.6761  -40.3955  -11.5621 O   0  0  0  0  0  0  0  0  0  0  0  0
  -15.3998  -39.3309  -12.0829 C   0  0  0  0  0  0  0  0  0  0  0  0
  -15.9110  -39.3119  -13.3582 C   0  0  0  0  0  0  0  0  0  0  0  0
  -16.6245  -38.2301  -13.8309 C   0  0  0  0  0  0  0  0  0  0  0  0
  -16.8594  -37.1165  -13.0494 C   0  0  0  0  0  0  0  0  0  0  0  0
  -16.3376  -37.1463  -11.7617 C   0  0  0  0  0  0  0  0  0  0  0  0
  -15.6260  -38.2266  -11.2913 C   0  0  0  0  0  0  0  0  0  0  0  0
  -17.6290  -35.9372  -13.5461 C   0  0  0  0  0  0  0  0  0  0  0  0
  -18.6009  -36.3836  -14.6402 C   0  0  0  0  0  0  0  0  0  0  0  0
  -16.7549  -34.8227  -14.0197 C   0  0  0  0  0  0  0  0  0  0  0  0
  1  2  1  0
  2  3  1  0
  3  4  1  0
  4  5  2  0
  5  6  1  0
  6  7  2  0
  7  8  1  0
  8  9  2  0
  8 10  1  0
 10 11  2  0
 10 12  1  0
 12 13  1  0
 13 14  1  1
 14 15  1  0
 15 16  1  1
 15 17  1  0
 17 18  1  0
 18 19  1  0
 19 20  1  0
 20 21  1  0
 21 22  1  0
 22 23  1  0
 23 24  1  0
 13 25  1  0
 25 26  1  1
 25 27  1  0
 27 28  1  0
 29 28  1  1
 29 30  1  0
 30 31  1  0
 31 32  1  0
 31 33  1  0
 31 34  1  0
 34 35  1  0
 35 36  2  0
 36 37  1  0
 37 38  2  0
 38 39  1  0
 39 40  2  0
 38 41  1  0
 41 42  1  0
 41 43  1  0
  9  4  1  0
 24  6  1  0
 40 35  1  0
 40 29  1  0
M  END
$$$$
