
     RDKit          3D

 43 46  0  0  0  0  0  0  0  0999 V2000
  -17.3288  -48.1967   -8.1019 C   0  0  0  0  0  0  0  0  0  0  0  0
  -17.3857  -46.9154   -8.6244 O   0  0  0  0  0  0  0  0  0  0  0  0
  -17.2313  -45.9438   -7.6468 C   0  0  0  0  0  0  0  0  0  0  0  0
  -18.2716  -44.8825   -7.7068 C   0  0  0  0  0  0  0  0  0  0  0  0
  -19.5150  -45.0380   -7.1710 C   0  0  0  0  0  0  0  0  0  0  0  0
  -20.5271  -44.0366   -7.2167 C   0  0  0  0  0  0  0  0  0  0  0  0
  -20.2646  -42.8321   -7.8320 C   0  0  0  0  0  0  0  0  0  0  0  0
  -19.0155  -42.6402   -8.3842 C   0  0  0  0  0  0  0  0  0  0  0  0
  -18.0447  -43.6759   -8.3080 C   0  0  0  0  0  0  0  0  0  0  0  0
  -18.4272  -41.4912   -9.0974 C   0  0  0  0  0  0  0  0  0  0  0  0
  -17.6825  -41.7396  -10.1667 O   0  0  0  0  0  0  0  0  0  0  0  0
  -18.4789  -40.0943   -8.8831 N   0  0  0  0  0  0  0  0  0  0  0  0
  -18.1778  -39.3511   -7.7000 C   0  0  1  0  0  0  0  0  0  0  0  0
  -19.1104  -39.6365   -6.5455 C   0  0  0  0  0  0  0  0  0  0  0  0
  -20.4797  -39.0377   -6.8603 C   0  0  2  0  0  0  0  0  0  0  0  0
  -20.3381  -37.6021   -7.3018 C   0  0  0  0  0  0  0  0  0  0  0  0
  -21.2592  -39.0374   -5.5775 C   0  0  0  0  0  0  0  0  0  0  0  0
  -22.7287  -38.8045   -5.7327 C   0  0  0  0  0  0  0  0  0  0  0  0
  -23.4566  -39.8197   -6.5510 C   0  0  0  0  0  0  0  0  0  0  0  0
  -23.1855  -41.1945   -5.9605 C   0  0  0  0  0  0  0  0  0  0  0  0
  -23.8979  -42.1945   -6.8152 C   0  0  0  0  0  0  0  0  0  0  0  0
  -23.9108  -43.5333   -6.1518 C   0  0  0  0  0  0  0  0  0  0  0  0
  -22.5925  -43.9407   -5.5868 C   0  0  0  0  0  0  0  0  0  0  0  0
  -21.6942  -44.5329   -6.5581 N   0  0  0  0  0  0  0  0  0  0  0  0
  -16.7242  -39.3543   -7.3250 C   0  0  2  0  0  0  0  0  0  0  0  0
  -16.3991  -38.8501   -6.1099 O   0  0  0  0  0  0  0  0  0  0  0  0
  -15.8900  -38.6821   -8.3915 C   0  0  0  0  0  0  0  0  0  0  0  0
  -15.3008  -39.7265   -9.2005 N   0  0  0  0  0  0  0  0  0  0  0  0
  -13.9888  -39.4489   -9.6856 C   0  0  1  0  0  0  0  0  0  0  0  0
  -13.1134  -40.6461   -9.8034 C   0  0  0  0  0  0  0  0  0  0  0  0
  -13.5483  -41.6073  -10.8807 C   0  0  0  0  0  0  0  0  0  0  0  0
  -12.2742  -42.1287  -11.5492 C   0  0  0  0  0  0  0  0  0  0  0  0
  -14.2951  -42.7831  -10.3442 C   0  0  0  0  0  0  0  0  0  0  0  0
  -14.2717  -40.9449  -11.9200 O   0  0  0  0  0  0  0  0  0  0  0  0
  -14.1710  -39.5735  -12.1130 C   0  0  0  0  0  0  0  0  0  0  0  0
  -14.2076  -38.9759  -13.3497 C   0  0  0  0  0  0  0  0  0  0  0  0
  -14.1039  -37.6077  -13.4908 C   0  0  0  0  0  0  0  0  0  0  0  0
  -13.9583  -36.7733  -12.4005 C   0  0  0  0  0  0  0  0  0  0  0  0
  -13.9221  -37.3882  -11.1547 C   0  0  0  0  0  0  0  0  0  0  0  0
  -14.0259  -38.7537  -11.0155 C   0  0  0  0  0  0  0  0  0  0  0  0
  -13.8440  -35.2907  -12.5359 C   0  0  0  0  0  0  0  0  0  0  0  0
  -12.4150  -34.8548  -12.2057 C   0  0  0  0  0  0  0  0  0  0  0  0
  -14.8418  -34.5470  -11.7103 C   0  0  0  0  0  0  0  0  0  0  0  0
  1  2  1  0
  2  3  1  0
  3  4  1  0
  4  5  2  0
  5  6  1  0
  6  7  2  0
  7  8  1  0
  8  9  2  0
  8 10  1  0
 10 11  2  0
 10 12  1  0
 12 13  1  0
 13 14  1  1
 14 15  1  0
 15 16  1  1
 15 17  1  0
 17 18  1  0
 18 19  1  0
 19 20  1  0
 20 21  1  0
 21 22  1  0
 22 23  1  0
 23 24  1  0
 13 25  1  0
 25 26  1  1
 25 27  1  0
 27 28  1  0
 29 28  1  6
 29 30  1  0
 30 31  1  0
 31 32  1  0
 31 33  1  0
 31 34  1  0
 34 35  1  0
 35 36  2  0
 36 37  1  0
 37 38  2  0
 38 39  1  0
 39 40  2  0
 38 41  1  0
 41 42  1  0
 41 43  1  0
  9  4  1  0
 24  6  1  0
 40 35  1  0
 40 29  1  0
M  END
$$$$
