
     RDKit          3D

 43 46  0  0  0  0  0  0  0  0999 V2000
  -15.8851  -46.6317  -10.3925 C   0  0  0  0  0  0  0  0  0  0  0  0
  -15.7900  -46.0573   -9.1359 O   0  0  0  0  0  0  0  0  0  0  0  0
  -16.8700  -46.3819   -8.3286 C   0  0  0  0  0  0  0  0  0  0  0  0
  -17.8776  -45.2922   -8.2328 C   0  0  0  0  0  0  0  0  0  0  0  0
  -19.1452  -45.4983   -7.7766 C   0  0  0  0  0  0  0  0  0  0  0  0
  -20.1270  -44.4710   -7.6766 C   0  0  0  0  0  0  0  0  0  0  0  0
  -19.8073  -43.1857   -8.0562 C   0  0  0  0  0  0  0  0  0  0  0  0
  -18.5325  -42.9410   -8.5218 C   0  0  0  0  0  0  0  0  0  0  0  0
  -17.5941  -44.0060   -8.5995 C   0  0  0  0  0  0  0  0  0  0  0  0
  -17.8850  -41.7038   -8.9965 C   0  0  0  0  0  0  0  0  0  0  0  0
  -17.1053  -41.7828  -10.0668 O   0  0  0  0  0  0  0  0  0  0  0  0
  -17.9070  -40.3666   -8.5368 N   0  0  0  0  0  0  0  0  0  0  0  0
  -17.6331  -39.8571   -7.2298 C   0  0  1  0  0  0  0  0  0  0  0  0
  -18.6185  -40.3120   -6.1780 C   0  0  0  0  0  0  0  0  0  0  0  0
  -19.9573  -39.6204   -6.4270 C   0  0  2  0  0  0  0  0  0  0  0  0
  -19.7589  -38.1347   -6.5985 C   0  0  0  0  0  0  0  0  0  0  0  0
  -20.7869  -39.8224   -5.1926 C   0  0  0  0  0  0  0  0  0  0  0  0
  -22.2422  -39.5157   -5.3538 C   0  0  0  0  0  0  0  0  0  0  0  0
  -22.9643  -40.3433   -6.3655 C   0  0  0  0  0  0  0  0  0  0  0  0
  -22.7547  -41.8098   -6.0225 C   0  0  0  0  0  0  0  0  0  0  0  0
  -23.4595  -42.6165   -7.0669 C   0  0  0  0  0  0  0  0  0  0  0  0
  -23.5354  -44.0509   -6.6554 C   0  0  0  0  0  0  0  0  0  0  0  0
  -22.2523  -44.5972   -6.1278 C   0  0  0  0  0  0  0  0  0  0  0  0
  -21.3325  -45.0368   -7.1582 N   0  0  0  0  0  0  0  0  0  0  0  0
  -16.1962  -39.9767   -6.8119 C   0  0  2  0  0  0  0  0  0  0  0  0
  -15.8958  -39.6445   -5.5328 O   0  0  0  0  0  0  0  0  0  0  0  0
  -15.2940  -39.2169   -7.7573 C   0  0  0  0  0  0  0  0  0  0  0  0
  -16.0378  -38.9935   -8.9776 N   0  0  0  0  0  0  0  0  0  0  0  0
  -15.9751  -37.6641   -9.4900 C   0  0  1  0  0  0  0  0  0  0  0  0
  -14.6956  -37.3304  -10.1718 C   0  0  0  0  0  0  0  0  0  0  0  0
  -14.4900  -38.0758  -11.4663 C   0  0  0  0  0  0  0  0  0  0  0  0
  -13.8481  -37.0915  -12.4467 C   0  0  0  0  0  0  0  0  0  0  0  0
  -13.5706  -39.2433  -11.3254 C   0  0  0  0  0  0  0  0  0  0  0  0
  -15.7329  -38.4451  -12.0672 O   0  0  0  0  0  0  0  0  0  0  0  0
  -16.9185  -37.8042  -11.7330 C   0  0  0  0  0  0  0  0  0  0  0  0
  -17.9302  -37.5626  -12.6308 C   0  0  0  0  0  0  0  0  0  0  0  0
  -19.0912  -36.9218  -12.2508 C   0  0  0  0  0  0  0  0  0  0  0  0
  -19.2937  -36.4925  -10.9543 C   0  0  0  0  0  0  0  0  0  0  0  0
  -18.2640  -36.7417  -10.0549 C   0  0  0  0  0  0  0  0  0  0  0  0
  -17.1062  -37.3814  -10.4355 C   0  0  0  0  0  0  0  0  0  0  0  0
  -20.5440  -35.7969  -10.5269 C   0  0  0  0  0  0  0  0  0  0  0  0
  -20.5350  -34.3593  -11.0506 C   0  0  0  0  0  0  0  0  0  0  0  0
  -20.7610  -35.8341   -9.0498 C   0  0  0  0  0  0  0  0  0  0  0  0
  1  2  1  0
  2  3  1  0
  3  4  1  0
  4  5  2  0
  5  6  1  0
  6  7  2  0
  7  8  1  0
  8  9  2  0
  8 10  1  0
 10 11  2  0
 10 12  1  0
 12 13  1  0
 13 14  1  1
 14 15  1  0
 15 16  1  1
 15 17  1  0
 17 18  1  0
 18 19  1  0
 19 20  1  0
 20 21  1  0
 21 22  1  0
 22 23  1  0
 23 24  1  0
 13 25  1  0
 25 26  1  1
 25 27  1  0
 27 28  1  0
 29 28  1  6
 29 30  1  0
 30 31  1  0
 31 32  1  0
 31 33  1  0
 31 34  1  0
 34 35  1  0
 35 36  2  0
 36 37  1  0
 37 38  2  0
 38 39  1  0
 39 40  2  0
 38 41  1  0
 41 42  1  0
 41 43  1  0
  9  4  1  0
 24  6  1  0
 40 35  1  0
 40 29  1  0
M  END
$$$$
