
     RDKit          3D

 43 46  0  0  0  0  0  0  0  0999 V2000
  -15.4343  -46.5128   -6.6637 C   0  0  0  0  0  0  0  0  0  0  0  0
  -16.7747  -46.6327   -6.3365 O   0  0  0  0  0  0  0  0  0  0  0  0
  -17.5843  -46.6975   -7.4606 C   0  0  0  0  0  0  0  0  0  0  0  0
  -18.4450  -45.4967   -7.6321 C   0  0  0  0  0  0  0  0  0  0  0  0
  -19.7703  -45.4882   -7.3142 C   0  0  0  0  0  0  0  0  0  0  0  0
  -20.6141  -44.3512   -7.4702 C   0  0  0  0  0  0  0  0  0  0  0  0
  -20.0901  -43.1790   -7.9699 C   0  0  0  0  0  0  0  0  0  0  0  0
  -18.7517  -43.1518   -8.3012 C   0  0  0  0  0  0  0  0  0  0  0  0
  -17.9579  -44.3177   -8.1237 C   0  0  0  0  0  0  0  0  0  0  0  0
  -17.9007  -42.0782   -8.8475 C   0  0  0  0  0  0  0  0  0  0  0  0
  -17.0278  -42.3990   -9.7935 O   0  0  0  0  0  0  0  0  0  0  0  0
  -17.7966  -40.6954   -8.5705 N   0  0  0  0  0  0  0  0  0  0  0  0
  -17.6002  -40.0385   -7.3164 C   0  0  1  0  0  0  0  0  0  0  0  0
  -18.7437  -40.2215   -6.3453 C   0  0  0  0  0  0  0  0  0  0  0  0
  -19.9459  -39.4235   -6.8458 C   0  0  2  0  0  0  0  0  0  0  0  0
  -19.5376  -38.0106   -7.1816 C   0  0  0  0  0  0  0  0  0  0  0  0
  -20.9224  -39.3497   -5.7083 C   0  0  0  0  0  0  0  0  0  0  0  0
  -22.2993  -38.9041   -6.0872 C   0  0  0  0  0  0  0  0  0  0  0  0
  -23.0108  -39.7797   -7.0654 C   0  0  0  0  0  0  0  0  0  0  0  0
  -23.0330  -41.1960   -6.5126 C   0  0  0  0  0  0  0  0  0  0  0  0
  -23.7212  -42.0578   -7.5235 C   0  0  0  0  0  0  0  0  0  0  0  0
  -24.0279  -43.4000   -6.9430 C   0  0  0  0  0  0  0  0  0  0  0  0
  -22.8914  -44.0088   -6.1941 C   0  0  0  0  0  0  0  0  0  0  0  0
  -21.9319  -44.6945   -7.0369 N   0  0  0  0  0  0  0  0  0  0  0  0
  -16.2445  -40.2612   -6.7114 C   0  0  2  0  0  0  0  0  0  0  0  0
  -15.8114  -39.3439   -5.8127 O   0  0  0  0  0  0  0  0  0  0  0  0
  -15.1981  -40.4502   -7.7859 C   0  0  0  0  0  0  0  0  0  0  0  0
  -15.6090  -39.6672   -8.9307 N   0  0  0  0  0  0  0  0  0  0  0  0
  -14.5805  -38.8782   -9.5251 C   0  0  1  0  0  0  0  0  0  0  0  0
  -13.3705  -39.6475   -9.9217 C   0  0  0  0  0  0  0  0  0  0  0  0
  -13.6092  -40.5982  -11.0674 C   0  0  0  0  0  0  0  0  0  0  0  0
  -12.3631  -40.5445  -11.9542 C   0  0  0  0  0  0  0  0  0  0  0  0
  -13.7910  -42.0114  -10.6224 C   0  0  0  0  0  0  0  0  0  0  0  0
  -14.6823  -40.1601  -11.9035 O   0  0  0  0  0  0  0  0  0  0  0  0
  -15.1073  -38.8382  -11.9045 C   0  0  0  0  0  0  0  0  0  0  0  0
  -15.5582  -38.1864  -13.0269 C   0  0  0  0  0  0  0  0  0  0  0  0
  -15.9708  -36.8711  -12.9778 C   0  0  0  0  0  0  0  0  0  0  0  0
  -15.9511  -36.1463  -11.8029 C   0  0  0  0  0  0  0  0  0  0  0  0
  -15.4930  -36.8151  -10.6741 C   0  0  0  0  0  0  0  0  0  0  0  0
  -15.0819  -38.1278  -10.7246 C   0  0  0  0  0  0  0  0  0  0  0  0
  -16.3935  -34.7219  -11.7328 C   0  0  0  0  0  0  0  0  0  0  0  0
  -15.2010  -33.8320  -11.3762 C   0  0  0  0  0  0  0  0  0  0  0  0
  -17.5315  -34.5062  -10.7901 C   0  0  0  0  0  0  0  0  0  0  0  0
  1  2  1  0
  2  3  1  0
  3  4  1  0
  4  5  2  0
  5  6  1  0
  6  7  2  0
  7  8  1  0
  8  9  2  0
  8 10  1  0
 10 11  2  0
 10 12  1  0
 12 13  1  0
 13 14  1  1
 14 15  1  0
 15 16  1  1
 15 17  1  0
 17 18  1  0
 18 19  1  0
 19 20  1  0
 20 21  1  0
 21 22  1  0
 22 23  1  0
 23 24  1  0
 13 25  1  0
 25 26  1  6
 25 27  1  0
 27 28  1  0
 29 28  1  6
 29 30  1  0
 30 31  1  0
 31 32  1  0
 31 33  1  0
 31 34  1  0
 34 35  1  0
 35 36  2  0
 36 37  1  0
 37 38  2  0
 38 39  1  0
 39 40  2  0
 38 41  1  0
 41 42  1  0
 41 43  1  0
  9  4  1  0
 24  6  1  0
 40 35  1  0
 40 29  1  0
M  END
$$$$
