
     RDKit          3D

 43 46  0  0  0  0  0  0  0  0999 V2000
  -23.1546  -41.8095   -4.9416 C   0  0  0  0  0  0  0  0  0  0  0  0
  -22.7737  -42.0812   -6.2452 O   0  0  0  0  0  0  0  0  0  0  0  0
  -22.9820  -43.4094   -6.5856 C   0  0  0  0  0  0  0  0  0  0  0  0
  -21.7185  -44.1629   -6.8039 C   0  0  0  0  0  0  0  0  0  0  0  0
  -21.6955  -45.4907   -7.1103 C   0  0  0  0  0  0  0  0  0  0  0  0
  -20.4985  -46.2331   -7.3231 C   0  0  0  0  0  0  0  0  0  0  0  0
  -19.2788  -45.6008   -7.2190 C   0  0  0  0  0  0  0  0  0  0  0  0
  -19.2649  -44.2566   -6.9112 C   0  0  0  0  0  0  0  0  0  0  0  0
  -20.4916  -43.5671   -6.7097 C   0  0  0  0  0  0  0  0  0  0  0  0
  -18.1521  -43.3056   -6.7312 C   0  0  0  0  0  0  0  0  0  0  0  0
  -18.2329  -42.4380   -5.7310 O   0  0  0  0  0  0  0  0  0  0  0  0
  -16.9415  -43.0945   -7.4311 N   0  0  0  0  0  0  0  0  0  0  0  0
  -16.7330  -42.8770   -8.8282 C   0  0  1  0  0  0  0  0  0  0  0  0
  -17.1128  -44.0567   -9.6934 C   0  0  0  0  0  0  0  0  0  0  0  0
  -16.0964  -45.1752   -9.4728 C   0  0  2  0  0  0  0  0  0  0  0  0
  -14.6908  -44.6425   -9.6004 C   0  0  0  0  0  0  0  0  0  0  0  0
  -16.3003  -46.1715  -10.5768 C   0  0  0  0  0  0  0  0  0  0  0  0
  -15.6402  -47.4964  -10.3603 C   0  0  0  0  0  0  0  0  0  0  0  0
  -16.0976  -48.2523   -9.1564 C   0  0  0  0  0  0  0  0  0  0  0  0
  -17.6084  -48.4062   -9.2330 C   0  0  0  0  0  0  0  0  0  0  0  0
  -18.0445  -49.1369   -8.0025 C   0  0  0  0  0  0  0  0  0  0  0  0
  -19.4692  -49.5688   -8.1292 C   0  0  0  0  0  0  0  0  0  0  0  0
  -20.3793  -48.5066   -8.6454 C   0  0  0  0  0  0  0  0  0  0  0  0
  -20.8450  -47.5856   -7.6276 N   0  0  0  0  0  0  0  0  0  0  0  0
  -17.2520  -41.5607   -9.3298 C   0  0  2  0  0  0  0  0  0  0  0  0
  -16.8659  -41.1776  -10.5710 O   0  0  0  0  0  0  0  0  0  0  0  0
  -16.9576  -40.4533   -8.3439 C   0  0  0  0  0  0  0  0  0  0  0  0
  -18.1914  -40.1531   -7.6511 N   0  0  0  0  0  0  0  0  0  0  0  0
  -18.3753  -38.7807   -7.3094 C   0  0  1  0  0  0  0  0  0  0  0  0
  -17.4448  -37.8477   -8.0000 C   0  0  0  0  0  0  0  0  0  0  0  0
  -17.6899  -37.7403   -9.4839 C   0  0  0  0  0  0  0  0  0  0  0  0
  -17.4891  -36.2707   -9.8604 C   0  0  0  0  0  0  0  0  0  0  0  0
  -16.7328  -38.5525  -10.2917 C   0  0  0  0  0  0  0  0  0  0  0  0
  -19.0490  -38.0295   -9.8179 O   0  0  0  0  0  0  0  0  0  0  0  0
  -20.0596  -37.9596   -8.8681 C   0  0  0  0  0  0  0  0  0  0  0  0
  -21.3369  -37.5380   -9.1483 C   0  0  0  0  0  0  0  0  0  0  0  0
  -22.3080  -37.4860   -8.1699 C   0  0  0  0  0  0  0  0  0  0  0  0
  -22.0458  -37.8532   -6.8651 C   0  0  0  0  0  0  0  0  0  0  0  0
  -20.7507  -38.2776   -6.5929 C   0  0  0  0  0  0  0  0  0  0  0  0
  -19.7829  -38.3292   -7.5703 C   0  0  0  0  0  0  0  0  0  0  0  0
  -23.0852  -37.8021   -5.7943 C   0  0  0  0  0  0  0  0  0  0  0  0
  -23.0004  -36.4615   -5.0616 C   0  0  0  0  0  0  0  0  0  0  0  0
  -23.0015  -38.9475   -4.8396 C   0  0  0  0  0  0  0  0  0  0  0  0
  1  2  1  0
  2  3  1  0
  3  4  1  0
  4  5  2  0
  5  6  1  0
  6  7  2  0
  7  8  1  0
  8  9  2  0
  8 10  1  0
 10 11  2  0
 10 12  1  0
 12 13  1  0
 13 14  1  6
 14 15  1  0
 15 16  1  6
 15 17  1  0
 17 18  1  0
 18 19  1  0
 19 20  1  0
 20 21  1  0
 21 22  1  0
 22 23  1  0
 23 24  1  0
 13 25  1  0
 25 26  1  6
 25 27  1  0
 27 28  1  0
 29 28  1  6
 29 30  1  0
 30 31  1  0
 31 32  1  0
 31 33  1  0
 31 34  1  0
 34 35  1  0
 35 36  2  0
 36 37  1  0
 37 38  2  0
 38 39  1  0
 39 40  2  0
 38 41  1  0
 41 42  1  0
 41 43  1  0
  9  4  1  0
 24  6  1  0
 40 35  1  0
 40 29  1  0
M  END
$$$$
