
     RDKit          3D

 43 46  0  0  0  0  0  0  0  0999 V2000
  -15.2537  -44.5013   -7.6672 C   0  0  0  0  0  0  0  0  0  0  0  0
  -15.2698  -45.6753   -8.4017 O   0  0  0  0  0  0  0  0  0  0  0  0
  -16.2305  -45.6542   -9.4017 C   0  0  0  0  0  0  0  0  0  0  0  0
  -17.4102  -44.8144   -9.0626 C   0  0  0  0  0  0  0  0  0  0  0  0
  -18.5029  -45.3060   -8.4132 C   0  0  0  0  0  0  0  0  0  0  0  0
  -19.6438  -44.5215   -8.0786 C   0  0  0  0  0  0  0  0  0  0  0  0
  -19.6747  -43.1866   -8.4187 C   0  0  0  0  0  0  0  0  0  0  0  0
  -18.5849  -42.6555   -9.0759 C   0  0  0  0  0  0  0  0  0  0  0  0
  -17.4737  -43.4870   -9.3838 C   0  0  0  0  0  0  0  0  0  0  0  0
  -18.3078  -41.2933   -9.5684 C   0  0  0  0  0  0  0  0  0  0  0  0
  -17.7348  -41.1681  -10.7583 O   0  0  0  0  0  0  0  0  0  0  0  0
  -18.5266  -40.0075   -9.0219 N   0  0  0  0  0  0  0  0  0  0  0  0
  -18.1348  -39.4895   -7.7487 C   0  0  1  0  0  0  0  0  0  0  0  0
  -18.7967  -40.1798   -6.5784 C   0  0  0  0  0  0  0  0  0  0  0  0
  -20.2732  -39.7903   -6.5492 C   0  0  2  0  0  0  0  0  0  0  0  0
  -20.4253  -38.2928   -6.6506 C   0  0  0  0  0  0  0  0  0  0  0  0
  -20.8056  -40.2054   -5.2086 C   0  0  0  0  0  0  0  0  0  0  0  0
  -22.2976  -40.2195   -5.0995 C   0  0  0  0  0  0  0  0  0  0  0  0
  -23.0002  -41.1544   -6.0280 C   0  0  0  0  0  0  0  0  0  0  0  0
  -22.4293  -42.5492   -5.8259 C   0  0  0  0  0  0  0  0  0  0  0  0
  -23.1255  -43.4590   -6.7880 C   0  0  0  0  0  0  0  0  0  0  0  0
  -22.8233  -44.8869   -6.4681 C   0  0  0  0  0  0  0  0  0  0  0  0
  -21.3806  -45.1550   -6.2041 C   0  0  0  0  0  0  0  0  0  0  0  0
  -20.5902  -45.3522   -7.4030 N   0  0  0  0  0  0  0  0  0  0  0  0
  -16.6536  -39.3045   -7.5895 C   0  0  2  0  0  0  0  0  0  0  0  0
  -16.2301  -38.6294   -6.4934 O   0  0  0  0  0  0  0  0  0  0  0  0
  -16.0505  -38.6851   -8.8296 C   0  0  0  0  0  0  0  0  0  0  0  0
  -15.3504  -39.7336   -9.5387 N   0  0  0  0  0  0  0  0  0  0  0  0
  -13.9777  -39.4643   -9.8165 C   0  0  1  0  0  0  0  0  0  0  0  0
  -13.1119  -40.6736   -9.8542 C   0  0  0  0  0  0  0  0  0  0  0  0
  -13.3987  -41.5842  -11.0213 C   0  0  0  0  0  0  0  0  0  0  0  0
  -12.0483  -42.1054  -11.5182 C   0  0  0  0  0  0  0  0  0  0  0  0
  -14.2327  -42.7642  -10.6470 C   0  0  0  0  0  0  0  0  0  0  0  0
  -13.9530  -40.8684  -12.1270 O   0  0  0  0  0  0  0  0  0  0  0  0
  -13.8055  -39.4929  -12.2476 C   0  0  0  0  0  0  0  0  0  0  0  0
  -13.6526  -38.8483  -13.4513 C   0  0  0  0  0  0  0  0  0  0  0  0
  -13.5097  -37.4780  -13.5203 C   0  0  0  0  0  0  0  0  0  0  0  0
  -13.5128  -36.6888  -12.3876 C   0  0  0  0  0  0  0  0  0  0  0  0
  -13.6677  -37.3511  -11.1756 C   0  0  0  0  0  0  0  0  0  0  0  0
  -13.8104  -38.7185  -11.1084 C   0  0  0  0  0  0  0  0  0  0  0  0
  -13.3586  -35.2047  -12.4448 C   0  0  0  0  0  0  0  0  0  0  0  0
  -12.0520  -34.7986  -11.7599 C   0  0  0  0  0  0  0  0  0  0  0  0
  -14.5239  -34.4705  -11.8675 C   0  0  0  0  0  0  0  0  0  0  0  0
  1  2  1  0
  2  3  1  0
  3  4  1  0
  4  5  2  0
  5  6  1  0
  6  7  2  0
  7  8  1  0
  8  9  2  0
  8 10  1  0
 10 11  2  0
 10 12  1  0
 12 13  1  0
 13 14  1  1
 14 15  1  0
 15 16  1  1
 15 17  1  0
 17 18  1  0
 18 19  1  0
 19 20  1  0
 20 21  1  0
 21 22  1  0
 22 23  1  0
 23 24  1  0
 13 25  1  0
 25 26  1  1
 25 27  1  0
 27 28  1  0
 29 28  1  6
 29 30  1  0
 30 31  1  0
 31 32  1  0
 31 33  1  0
 31 34  1  0
 34 35  1  0
 35 36  2  0
 36 37  1  0
 37 38  2  0
 38 39  1  0
 39 40  2  0
 38 41  1  0
 41 42  1  0
 41 43  1  0
  9  4  1  0
 24  6  1  0
 40 35  1  0
 40 29  1  0
M  END
$$$$
