
     RDKit          3D

 43 46  0  0  0  0  0  0  0  0999 V2000
  -15.9782  -46.9967   -6.5149 C   0  0  0  0  0  0  0  0  0  0  0  0
  -17.1328  -46.2505   -6.6830 O   0  0  0  0  0  0  0  0  0  0  0  0
  -17.3283  -45.8789   -8.0049 C   0  0  0  0  0  0  0  0  0  0  0  0
  -18.2918  -44.7567   -8.1611 C   0  0  0  0  0  0  0  0  0  0  0  0
  -19.5781  -44.8221   -7.7153 C   0  0  0  0  0  0  0  0  0  0  0  0
  -20.5185  -43.7611   -7.8542 C   0  0  0  0  0  0  0  0  0  0  0  0
  -20.1360  -42.5900   -8.4710 C   0  0  0  0  0  0  0  0  0  0  0  0
  -18.8407  -42.4890   -8.9334 C   0  0  0  0  0  0  0  0  0  0  0  0
  -17.9458  -43.5809   -8.7666 C   0  0  0  0  0  0  0  0  0  0  0  0
  -18.1305  -41.3957   -9.6229 C   0  0  0  0  0  0  0  0  0  0  0  0
  -17.3279  -41.7149  -10.6298 O   0  0  0  0  0  0  0  0  0  0  0  0
  -18.1085  -39.9937   -9.4393 N   0  0  0  0  0  0  0  0  0  0  0  0
  -17.8469  -39.2431   -8.2514 C   0  0  1  0  0  0  0  0  0  0  0  0
  -18.8767  -39.4430   -7.1634 C   0  0  0  0  0  0  0  0  0  0  0  0
  -20.1788  -38.7678   -7.5892 C   0  0  2  0  0  0  0  0  0  0  0  0
  -19.9146  -37.3546   -8.0461 C   0  0  0  0  0  0  0  0  0  0  0  0
  -21.0472  -38.6891   -6.3675 C   0  0  0  0  0  0  0  0  0  0  0  0
  -22.4839  -38.3692   -6.6346 C   0  0  0  0  0  0  0  0  0  0  0  0
  -23.2139  -39.3560   -7.4849 C   0  0  0  0  0  0  0  0  0  0  0  0
  -23.0743  -40.7308   -6.8504 C   0  0  0  0  0  0  0  0  0  0  0  0
  -23.7853  -41.7044   -7.7362 C   0  0  0  0  0  0  0  0  0  0  0  0
  -23.9312  -43.0239   -7.0505 C   0  0  0  0  0  0  0  0  0  0  0  0
  -22.6858  -43.4991   -6.3826 C   0  0  0  0  0  0  0  0  0  0  0  0
  -21.7592  -44.1685   -7.2739 N   0  0  0  0  0  0  0  0  0  0  0  0
  -16.4274  -39.3279   -7.7706 C   0  0  2  0  0  0  0  0  0  0  0  0
  -16.0246  -38.3998   -6.8689 O   0  0  0  0  0  0  0  0  0  0  0  0
  -15.4636  -39.3538   -8.9349 C   0  0  0  0  0  0  0  0  0  0  0  0
  -14.6220  -40.5190   -8.7726 N   0  0  0  0  0  0  0  0  0  0  0  0
  -13.2739  -40.3576   -9.2089 C   0  0  1  0  0  0  0  0  0  0  0  0
  -12.4067  -41.5423   -8.9689 C   0  0  0  0  0  0  0  0  0  0  0  0
  -12.7705  -42.7369   -9.8140 C   0  0  0  0  0  0  0  0  0  0  0  0
  -11.4561  -43.3954  -10.2390 C   0  0  0  0  0  0  0  0  0  0  0  0
  -13.5698  -43.7543   -9.0695 C   0  0  0  0  0  0  0  0  0  0  0  0
  -13.4055  -42.3482  -11.0339 O   0  0  0  0  0  0  0  0  0  0  0  0
  -13.2740  -41.0627  -11.5420 C   0  0  0  0  0  0  0  0  0  0  0  0
  -13.2101  -40.7799  -12.8851 C   0  0  0  0  0  0  0  0  0  0  0  0
  -13.0796  -39.4849  -13.3421 C   0  0  0  0  0  0  0  0  0  0  0  0
  -13.0066  -38.4122  -12.4760 C   0  0  0  0  0  0  0  0  0  0  0  0
  -13.0718  -38.7097  -11.1200 C   0  0  0  0  0  0  0  0  0  0  0  0
  -13.2023  -40.0024  -10.6655 C   0  0  0  0  0  0  0  0  0  0  0  0
  -12.8646  -37.0048  -12.9542 C   0  0  0  0  0  0  0  0  0  0  0  0
  -13.1745  -36.9386  -14.4511 C   0  0  0  0  0  0  0  0  0  0  0  0
  -11.5269  -36.4139  -12.6512 C   0  0  0  0  0  0  0  0  0  0  0  0
  1  2  1  0
  2  3  1  0
  3  4  1  0
  4  5  2  0
  5  6  1  0
  6  7  2  0
  7  8  1  0
  8  9  2  0
  8 10  1  0
 10 11  2  0
 10 12  1  0
 12 13  1  0
 13 14  1  1
 14 15  1  0
 15 16  1  1
 15 17  1  0
 17 18  1  0
 18 19  1  0
 19 20  1  0
 20 21  1  0
 21 22  1  0
 22 23  1  0
 23 24  1  0
 13 25  1  0
 25 26  1  1
 25 27  1  0
 27 28  1  0
 29 28  1  6
 29 30  1  0
 30 31  1  0
 31 32  1  0
 31 33  1  0
 31 34  1  0
 34 35  1  0
 35 36  2  0
 36 37  1  0
 37 38  2  0
 38 39  1  0
 39 40  2  0
 38 41  1  0
 41 42  1  0
 41 43  1  0
  9  4  1  0
 24  6  1  0
 40 35  1  0
 40 29  1  0
M  END
$$$$
