
     RDKit          3D

 43 46  0  0  0  0  0  0  0  0999 V2000
  -16.3339  -46.1629  -10.7654 C   0  0  0  0  0  0  0  0  0  0  0  0
  -17.1938  -46.5544   -9.7528 O   0  0  0  0  0  0  0  0  0  0  0  0
  -17.0114  -45.8129   -8.5951 C   0  0  0  0  0  0  0  0  0  0  0  0
  -18.0561  -44.7734   -8.3949 C   0  0  0  0  0  0  0  0  0  0  0  0
  -19.2614  -45.0412   -7.8178 C   0  0  0  0  0  0  0  0  0  0  0  0
  -20.2770  -44.0628   -7.6163 C   0  0  0  0  0  0  0  0  0  0  0  0
  -20.0585  -42.7633   -8.0185 C   0  0  0  0  0  0  0  0  0  0  0  0
  -18.8489  -42.4566   -8.6054 C   0  0  0  0  0  0  0  0  0  0  0  0
  -17.8724  -43.4748   -8.7806 C   0  0  0  0  0  0  0  0  0  0  0  0
  -18.3116  -41.1891   -9.1346 C   0  0  0  0  0  0  0  0  0  0  0  0
  -17.6379  -41.2294  -10.2767 O   0  0  0  0  0  0  0  0  0  0  0  0
  -18.3529  -39.8549   -8.6677 N   0  0  0  0  0  0  0  0  0  0  0  0
  -17.9769  -39.3336   -7.3911 C   0  0  1  0  0  0  0  0  0  0  0  0
  -18.8311  -39.8366   -6.2502 C   0  0  0  0  0  0  0  0  0  0  0  0
  -20.2197  -39.2106   -6.3630 C   0  0  2  0  0  0  0  0  0  0  0  0
  -20.1111  -37.7169   -6.5450 C   0  0  0  0  0  0  0  0  0  0  0  0
  -20.9134  -39.4535   -5.0542 C   0  0  0  0  0  0  0  0  0  0  0  0
  -22.3906  -39.2178   -5.0703 C   0  0  0  0  0  0  0  0  0  0  0  0
  -23.1677  -40.0788   -6.0108 C   0  0  0  0  0  0  0  0  0  0  0  0
  -22.8549  -41.5336   -5.6980 C   0  0  0  0  0  0  0  0  0  0  0  0
  -23.6191  -42.3728   -6.6726 C   0  0  0  0  0  0  0  0  0  0  0  0
  -23.5849  -43.8095   -6.2636 C   0  0  0  0  0  0  0  0  0  0  0  0
  -22.2314  -44.2932   -5.8673 C   0  0  0  0  0  0  0  0  0  0  0  0
  -21.3970  -44.6869   -6.9854 N   0  0  0  0  0  0  0  0  0  0  0  0
  -16.5019  -39.3835   -7.1167 C   0  0  2  0  0  0  0  0  0  0  0  0
  -16.0895  -38.9939   -5.8860 O   0  0  0  0  0  0  0  0  0  0  0  0
  -15.7303  -38.6252   -8.1725 C   0  0  0  0  0  0  0  0  0  0  0  0
  -15.0504  -39.6018   -8.9949 N   0  0  0  0  0  0  0  0  0  0  0  0
  -13.6963  -39.2876   -9.3133 C   0  0  1  0  0  0  0  0  0  0  0  0
  -12.8038  -40.4721   -9.4294 C   0  0  0  0  0  0  0  0  0  0  0  0
  -13.1131  -41.3457  -10.6188 C   0  0  0  0  0  0  0  0  0  0  0  0
  -11.7707  -41.8136  -11.1854 C   0  0  0  0  0  0  0  0  0  0  0  0
  -13.9036  -42.5597  -10.2589 C   0  0  0  0  0  0  0  0  0  0  0  0
  -13.7264  -40.6036  -11.6750 O   0  0  0  0  0  0  0  0  0  0  0  0
  -13.6167  -39.2213  -11.7485 C   0  0  0  0  0  0  0  0  0  0  0  0
  -13.5256  -38.5287  -12.9316 C   0  0  0  0  0  0  0  0  0  0  0  0
  -13.4184  -37.1536  -12.9536 C   0  0  0  0  0  0  0  0  0  0  0  0
  -13.3970  -36.4074  -11.7923 C   0  0  0  0  0  0  0  0  0  0  0  0
  -13.4894  -37.1181  -10.6015 C   0  0  0  0  0  0  0  0  0  0  0  0
  -13.5965  -38.4902  -10.5812 C   0  0  0  0  0  0  0  0  0  0  0  0
  -13.2808  -34.9187  -11.7986 C   0  0  0  0  0  0  0  0  0  0  0  0
  -14.5845  -34.3053  -12.3137 C   0  0  0  0  0  0  0  0  0  0  0  0
  -12.1054  -34.4248  -12.5763 C   0  0  0  0  0  0  0  0  0  0  0  0
  1  2  1  0
  2  3  1  0
  3  4  1  0
  4  5  2  0
  5  6  1  0
  6  7  2  0
  7  8  1  0
  8  9  2  0
  8 10  1  0
 10 11  2  0
 10 12  1  0
 12 13  1  0
 13 14  1  1
 14 15  1  0
 15 16  1  1
 15 17  1  0
 17 18  1  0
 18 19  1  0
 19 20  1  0
 20 21  1  0
 21 22  1  0
 22 23  1  0
 23 24  1  0
 13 25  1  0
 25 26  1  1
 25 27  1  0
 27 28  1  0
 29 28  1  6
 29 30  1  0
 30 31  1  0
 31 32  1  0
 31 33  1  0
 31 34  1  0
 34 35  1  0
 35 36  2  0
 36 37  1  0
 37 38  2  0
 38 39  1  0
 39 40  2  0
 38 41  1  0
 41 42  1  0
 41 43  1  0
  9  4  1  0
 24  6  1  0
 40 35  1  0
 40 29  1  0
M  END
$$$$
