
     RDKit          3D

 43 46  0  0  0  0  0  0  0  0999 V2000
  -17.6541  -47.9629   -9.0794 C   0  0  0  0  0  0  0  0  0  0  0  0
  -17.0299  -46.7285   -9.0117 O   0  0  0  0  0  0  0  0  0  0  0  0
  -17.3090  -46.0649   -7.8262 C   0  0  0  0  0  0  0  0  0  0  0  0
  -18.1492  -44.8527   -8.0177 C   0  0  0  0  0  0  0  0  0  0  0  0
  -19.4443  -44.7799   -7.5998 C   0  0  0  0  0  0  0  0  0  0  0  0
  -20.2681  -43.6306   -7.7726 C   0  0  0  0  0  0  0  0  0  0  0  0
  -19.7551  -42.5138   -8.3954 C   0  0  0  0  0  0  0  0  0  0  0  0
  -18.4470  -42.5523   -8.8302 C   0  0  0  0  0  0  0  0  0  0  0  0
  -17.6722  -43.7272   -8.6301 C   0  0  0  0  0  0  0  0  0  0  0  0
  -17.6144  -41.5474   -9.5175 C   0  0  0  0  0  0  0  0  0  0  0  0
  -16.8280  -41.9616  -10.5023 O   0  0  0  0  0  0  0  0  0  0  0  0
  -17.4528  -40.1524   -9.3509 N   0  0  0  0  0  0  0  0  0  0  0  0
  -17.1405  -39.4152   -8.1670 C   0  0  1  0  0  0  0  0  0  0  0  0
  -18.2077  -39.4929   -7.0996 C   0  0  0  0  0  0  0  0  0  0  0  0
  -19.4248  -38.6947   -7.5626 C   0  0  2  0  0  0  0  0  0  0  0  0
  -19.0078  -37.3226   -8.0311 C   0  0  0  0  0  0  0  0  0  0  0  0
  -20.3057  -38.5098   -6.3614 C   0  0  0  0  0  0  0  0  0  0  0  0
  -21.6962  -38.0489   -6.6642 C   0  0  0  0  0  0  0  0  0  0  0  0
  -22.5056  -38.9685   -7.5181 C   0  0  0  0  0  0  0  0  0  0  0  0
  -22.5206  -40.3408   -6.8635 C   0  0  0  0  0  0  0  0  0  0  0  0
  -23.3090  -41.2497   -7.7526 C   0  0  0  0  0  0  0  0  0  0  0  0
  -23.6034  -42.5372   -7.0539 C   0  0  0  0  0  0  0  0  0  0  0  0
  -22.4273  -43.1271   -6.3527 C   0  0  0  0  0  0  0  0  0  0  0  0
  -21.5558  -43.9006   -7.2149 N   0  0  0  0  0  0  0  0  0  0  0  0
  -15.7473  -39.6373   -7.6540 C   0  0  2  0  0  0  0  0  0  0  0  0
  -15.1324  -38.5846   -7.0621 O   0  0  0  0  0  0  0  0  0  0  0  0
  -14.8562  -40.2001   -8.7376 C   0  0  0  0  0  0  0  0  0  0  0  0
  -14.0601  -39.1075   -9.2521 N   0  0  0  0  0  0  0  0  0  0  0  0
  -14.3831  -38.6953  -10.5786 C   0  0  1  0  0  0  0  0  0  0  0  0
  -14.0492  -37.2767  -10.8775 C   0  0  0  0  0  0  0  0  0  0  0  0
  -12.5672  -37.0014  -10.9157 C   0  0  0  0  0  0  0  0  0  0  0  0
  -12.3292  -36.0176  -12.0635 C   0  0  0  0  0  0  0  0  0  0  0  0
  -12.0605  -36.3696   -9.6618 C   0  0  0  0  0  0  0  0  0  0  0  0
  -11.8209  -38.1694  -11.2636 O   0  0  0  0  0  0  0  0  0  0  0  0
  -12.4166  -39.2446  -11.9097 C   0  0  0  0  0  0  0  0  0  0  0  0
  -11.7749  -40.0174  -12.8472 C   0  0  0  0  0  0  0  0  0  0  0  0
  -12.4092  -41.0767  -13.4623 C   0  0  0  0  0  0  0  0  0  0  0  0
  -13.7158  -41.4118  -13.1681 C   0  0  0  0  0  0  0  0  0  0  0  0
  -14.3553  -40.6234  -12.2189 C   0  0  0  0  0  0  0  0  0  0  0  0
  -13.7209  -39.5669  -11.6058 C   0  0  0  0  0  0  0  0  0  0  0  0
  -14.4171  -42.5546  -13.8253 C   0  0  0  0  0  0  0  0  0  0  0  0
  -13.6210  -43.8418  -13.6003 C   0  0  0  0  0  0  0  0  0  0  0  0
  -14.6785  -42.3262  -15.2778 C   0  0  0  0  0  0  0  0  0  0  0  0
  1  2  1  0
  2  3  1  0
  3  4  1  0
  4  5  2  0
  5  6  1  0
  6  7  2  0
  7  8  1  0
  8  9  2  0
  8 10  1  0
 10 11  2  0
 10 12  1  0
 12 13  1  0
 13 14  1  1
 14 15  1  0
 15 16  1  1
 15 17  1  0
 17 18  1  0
 18 19  1  0
 19 20  1  0
 20 21  1  0
 21 22  1  0
 22 23  1  0
 23 24  1  0
 13 25  1  0
 25 26  1  6
 25 27  1  0
 27 28  1  0
 29 28  1  1
 29 30  1  0
 30 31  1  0
 31 32  1  0
 31 33  1  0
 31 34  1  0
 34 35  1  0
 35 36  2  0
 36 37  1  0
 37 38  2  0
 38 39  1  0
 39 40  2  0
 38 41  1  0
 41 42  1  0
 41 43  1  0
  9  4  1  0
 24  6  1  0
 40 35  1  0
 40 29  1  0
M  END
$$$$
