
     RDKit          3D

 37 39  0  0  0  0  0  0  0  0999 V2000
  -11.7821  -35.1211  -13.4330 C   0  0  0  0  0  0  0  0  0  0  0  0
  -12.7110  -36.3001  -13.7377 C   0  0  0  0  0  0  0  0  0  0  0  0
  -11.8286  -37.4449  -14.1698 C   0  0  0  0  0  0  0  0  0  0  0  0
  -13.4452  -36.6335  -12.4804 C   0  0  0  0  0  0  0  0  0  0  0  0
  -12.9359  -37.4611  -11.5096 C   0  0  0  0  0  0  0  0  0  0  0  0
  -13.6401  -37.7539  -10.3500 C   0  0  0  0  0  0  0  0  0  0  0  0
  -13.1135  -38.6430   -9.2907 C   0  0  0  0  0  0  0  0  0  0  0  0
  -13.9428  -39.7859   -9.0270 N   0  0  0  0  0  0  0  0  0  0  0  0
  -15.3052  -39.4675   -9.3464 C   0  0  0  0  0  0  0  0  0  0  0  0
  -16.1677  -39.2753   -8.1365 C   0  0  1  0  0  0  0  0  0  0  0  0
  -16.2779  -37.9215   -7.8594 O   0  0  0  0  0  0  0  0  0  0  0  0
  -17.5699  -39.8279   -8.3463 C   0  0  2  0  0  0  0  0  0  0  0  0
  -18.5510  -38.6789   -8.0851 C   0  0  0  0  0  0  0  0  0  0  0  0
  -19.9266  -39.1823   -7.7160 C   0  0  2  0  0  0  0  0  0  0  0  0
  -20.9519  -38.8217   -8.7841 C   0  0  0  0  0  0  0  0  0  0  0  0
  -20.3592  -38.6988   -6.3532 C   0  0  0  0  0  0  0  0  0  0  0  0
  -21.8483  -38.4651   -6.2634 C   0  0  0  0  0  0  0  0  0  0  0  0
  -22.4399  -39.0761   -5.0085 C   0  0  0  0  0  0  0  0  0  0  0  0
  -23.3744  -40.2222   -5.3172 C   0  0  0  0  0  0  0  0  0  0  0  0
  -22.7199  -41.3468   -6.0459 C   0  0  0  0  0  0  0  0  0  0  0  0
  -22.1091  -42.3458   -5.0945 C   0  0  0  0  0  0  0  0  0  0  0  0
  -21.5493  -43.5296   -5.8251 C   0  0  0  0  0  0  0  0  0  0  0  0
  -20.3727  -43.0925   -6.7077 C   0  0  0  0  0  0  0  0  0  0  0  0
  -19.6824  -44.2789   -7.2703 C   0  0  0  0  0  0  0  0  0  0  0  0
  -19.8581  -45.3808   -6.6404 O   0  0  0  0  0  0  0  0  0  0  0  0
  -18.8736  -44.2450   -8.4233 N   0  0  0  0  0  0  0  0  0  0  0  0
  -18.8424  -45.3938   -9.2956 C   0  0  0  0  0  0  0  0  0  0  0  0
  -18.8634  -44.7978  -10.7131 C   0  0  0  0  0  0  0  0  0  0  0  0
  -19.5593  -43.4418  -10.6834 C   0  0  0  0  0  0  0  0  0  0  0  0
  -18.7200  -42.4069   -9.9165 C   0  0  0  0  0  0  0  0  0  0  0  0
  -18.0583  -43.1128   -8.7953 C   0  0  1  0  0  0  0  0  0  0  0  0
  -17.6763  -42.2788   -7.6387 C   0  0  0  0  0  0  0  0  0  0  0  0
  -17.1001  -42.9480   -6.7040 O   0  0  0  0  0  0  0  0  0  0  0  0
  -17.8598  -40.9113   -7.4510 N   0  0  0  0  0  0  0  0  0  0  0  0
  -14.8917  -37.1620  -10.2253 C   0  0  0  0  0  0  0  0  0  0  0  0
  -15.4227  -36.3284  -11.1863 C   0  0  0  0  0  0  0  0  0  0  0  0
  -14.6980  -36.0627  -12.3177 C   0  0  0  0  0  0  0  0  0  0  0  0
  1  2  1  0
  2  3  1  0
  2  4  1  0
  4  5  2  0
  5  6  1  0
  6  7  1  0
  7  8  1  0
  8  9  1  0
  9 10  1  0
 10 11  1  6
 10 12  1  0
 12 13  1  1
 13 14  1  0
 14 15  1  6
 14 16  1  0
 16 17  1  0
 17 18  1  0
 18 19  1  0
 19 20  1  0
 20 21  1  0
 21 22  1  0
 22 23  1  0
 23 24  1  0
 24 25  2  0
 24 26  1  0
 26 27  1  0
 27 28  1  0
 28 29  1  0
 29 30  1  0
 31 30  1  6
 31 32  1  0
 32 33  2  0
 32 34  1  0
  6 35  2  0
 35 36  1  0
 36 37  2  0
 31 26  1  0
 34 12  1  0
 37  4  1  0
M  END
$$$$
