
     RDKit          3D

 37 39  0  0  0  0  0  0  0  0999 V2000
  -22.4103  -37.9740   -3.9028 C   0  0  0  0  0  0  0  0  0  0  0  0
  -21.5985  -39.2551   -3.6896 C   0  0  0  0  0  0  0  0  0  0  0  0
  -22.2488  -39.9935   -2.5462 C   0  0  0  0  0  0  0  0  0  0  0  0
  -21.6701  -40.0505   -4.9519 C   0  0  0  0  0  0  0  0  0  0  0  0
  -20.7903  -39.8871   -5.9940 C   0  0  0  0  0  0  0  0  0  0  0  0
  -20.8799  -40.6404   -7.1563 C   0  0  0  0  0  0  0  0  0  0  0  0
  -19.9452  -40.4822   -8.2927 C   0  0  0  0  0  0  0  0  0  0  0  0
  -18.9678  -39.4473   -8.1004 N   0  0  0  0  0  0  0  0  0  0  0  0
  -17.6878  -40.0445   -7.8464 C   0  0  0  0  0  0  0  0  0  0  0  0
  -16.5963  -39.0395   -7.6382 C   0  0  1  0  0  0  0  0  0  0  0  0
  -16.2725  -38.9830   -6.2916 O   0  0  0  0  0  0  0  0  0  0  0  0
  -15.3362  -39.4031   -8.4099 C   0  0  2  0  0  0  0  0  0  0  0  0
  -14.4387  -38.1600   -8.4188 C   0  0  0  0  0  0  0  0  0  0  0  0
  -13.4572  -38.1788   -9.5671 C   0  0  2  0  0  0  0  0  0  0  0  0
  -12.0227  -38.2929   -9.0659 C   0  0  0  0  0  0  0  0  0  0  0  0
  -13.6285  -36.9871  -10.4773 C   0  0  0  0  0  0  0  0  0  0  0  0
  -12.3245  -36.5227  -11.0808 C   0  0  0  0  0  0  0  0  0  0  0  0
  -12.4493  -36.2774  -12.5716 C   0  0  0  0  0  0  0  0  0  0  0  0
  -11.6346  -37.2581  -13.3820 C   0  0  0  0  0  0  0  0  0  0  0  0
  -12.0295  -38.6807  -13.1707 C   0  0  0  0  0  0  0  0  0  0  0  0
  -13.1287  -39.0992  -14.1155 C   0  0  0  0  0  0  0  0  0  0  0  0
  -13.4469  -40.5580  -13.9769 C   0  0  0  0  0  0  0  0  0  0  0  0
  -14.0292  -40.8376  -12.5851 C   0  0  0  0  0  0  0  0  0  0  0  0
  -14.5388  -42.2288  -12.5101 C   0  0  0  0  0  0  0  0  0  0  0  0
  -14.8122  -42.7869  -13.6306 O   0  0  0  0  0  0  0  0  0  0  0  0
  -14.7270  -42.9336  -11.3049 N   0  0  0  0  0  0  0  0  0  0  0  0
  -14.5100  -44.3598  -11.2819 C   0  0  0  0  0  0  0  0  0  0  0  0
  -13.7731  -44.6128   -9.9561 C   0  0  0  0  0  0  0  0  0  0  0  0
  -12.9956  -43.3625   -9.5608 C   0  0  0  0  0  0  0  0  0  0  0  0
  -13.9479  -42.2169   -9.1808 C   0  0  0  0  0  0  0  0  0  0  0  0
  -15.1306  -42.3084  -10.0675 C   0  0  1  0  0  0  0  0  0  0  0  0
  -15.8817  -41.0552  -10.2785 C   0  0  0  0  0  0  0  0  0  0  0  0
  -16.8999  -41.2025  -11.0499 O   0  0  0  0  0  0  0  0  0  0  0  0
  -15.6264  -39.7877   -9.7617 N   0  0  0  0  0  0  0  0  0  0  0  0
  -21.9113  -41.5711   -7.2073 C   0  0  0  0  0  0  0  0  0  0  0  0
  -22.8055  -41.7523   -6.1739 C   0  0  0  0  0  0  0  0  0  0  0  0
  -22.6855  -40.9901   -5.0423 C   0  0  0  0  0  0  0  0  0  0  0  0
  1  2  1  0
  2  3  1  0
  2  4  1  0
  4  5  2  0
  5  6  1  0
  6  7  1  0
  7  8  1  0
  8  9  1  0
  9 10  1  0
 10 11  1  1
 10 12  1  0
 12 13  1  6
 13 14  1  0
 14 15  1  1
 14 16  1  0
 16 17  1  0
 17 18  1  0
 18 19  1  0
 19 20  1  0
 20 21  1  0
 21 22  1  0
 22 23  1  0
 23 24  1  0
 24 25  2  0
 24 26  1  0
 26 27  1  0
 27 28  1  0
 28 29  1  0
 29 30  1  0
 31 30  1  1
 31 32  1  0
 32 33  2  0
 32 34  1  0
  6 35  2  0
 35 36  1  0
 36 37  2  0
 31 26  1  0
 34 12  1  0
 37  4  1  0
M  END
$$$$
