
     RDKit          3D

 37 39  0  0  0  0  0  0  0  0999 V2000
  -23.6064  -40.2959   -9.1222 C   0  0  0  0  0  0  0  0  0  0  0  0
  -22.9906  -40.1095   -7.7323 C   0  0  0  0  0  0  0  0  0  0  0  0
  -22.1834  -41.3516   -7.4473 C   0  0  0  0  0  0  0  0  0  0  0  0
  -22.1148  -38.9006   -7.7847 C   0  0  0  0  0  0  0  0  0  0  0  0
  -20.8661  -38.9015   -8.3569 C   0  0  0  0  0  0  0  0  0  0  0  0
  -20.0730  -37.7630   -8.3920 C   0  0  0  0  0  0  0  0  0  0  0  0
  -18.7247  -37.7391   -9.0014 C   0  0  0  0  0  0  0  0  0  0  0  0
  -17.9429  -38.9125   -8.7269 N   0  0  0  0  0  0  0  0  0  0  0  0
  -17.0815  -38.6577   -7.6077 C   0  0  0  0  0  0  0  0  0  0  0  0
  -15.6314  -38.5941   -7.9789 C   0  0  1  0  0  0  0  0  0  0  0  0
  -14.9222  -37.9728   -6.9628 O   0  0  0  0  0  0  0  0  0  0  0  0
  -15.0381  -39.9799   -8.1870 C   0  0  2  0  0  0  0  0  0  0  0  0
  -13.5178  -39.8460   -8.0400 C   0  0  0  0  0  0  0  0  0  0  0  0
  -12.7809  -40.9619   -8.7428 C   0  0  2  0  0  0  0  0  0  0  0  0
  -12.0481  -41.8529   -7.7472 C   0  0  0  0  0  0  0  0  0  0  0  0
  -11.8453  -40.4403   -9.8061 C   0  0  0  0  0  0  0  0  0  0  0  0
  -10.6034  -41.2861   -9.9555 C   0  0  0  0  0  0  0  0  0  0  0  0
  -10.3005  -41.5905  -11.4093 C   0  0  0  0  0  0  0  0  0  0  0  0
  -10.4564  -43.0585  -11.7301 C   0  0  0  0  0  0  0  0  0  0  0  0
  -11.8317  -43.5806  -11.4846 C   0  0  0  0  0  0  0  0  0  0  0  0
  -12.7148  -43.4132  -12.6962 C   0  0  0  0  0  0  0  0  0  0  0  0
  -14.0617  -44.0377  -12.4853 C   0  0  0  0  0  0  0  0  0  0  0  0
  -14.8151  -43.2960  -11.3732 C   0  0  0  0  0  0  0  0  0  0  0  0
  -16.2194  -43.7682  -11.2991 C   0  0  0  0  0  0  0  0  0  0  0  0
  -16.6791  -44.3281  -12.3560 O   0  0  0  0  0  0  0  0  0  0  0  0
  -17.0361  -43.6315  -10.1593 N   0  0  0  0  0  0  0  0  0  0  0  0
  -18.0128  -44.6523   -9.8664 C   0  0  0  0  0  0  0  0  0  0  0  0
  -17.9231  -44.8407   -8.3428 C   0  0  0  0  0  0  0  0  0  0  0  0
  -16.5226  -44.4714   -7.8671 C   0  0  0  0  0  0  0  0  0  0  0  0
  -16.2688  -42.9624   -8.0156 C   0  0  0  0  0  0  0  0  0  0  0  0
  -16.9569  -42.5142   -9.2480 C   0  0  1  0  0  0  0  0  0  0  0  0
  -16.4203  -41.2948   -9.8838 C   0  0  0  0  0  0  0  0  0  0  0  0
  -17.0648  -40.9541  -10.9430 O   0  0  0  0  0  0  0  0  0  0  0  0
  -15.3441  -40.5055   -9.4868 N   0  0  0  0  0  0  0  0  0  0  0  0
  -20.6136  -36.6197   -7.8148 C   0  0  0  0  0  0  0  0  0  0  0  0
  -21.8641  -36.5955   -7.2351 C   0  0  0  0  0  0  0  0  0  0  0  0
  -22.6178  -37.7390   -7.2195 C   0  0  0  0  0  0  0  0  0  0  0  0
  1  2  1  0
  2  3  1  0
  2  4  1  0
  4  5  2  0
  5  6  1  0
  6  7  1  0
  7  8  1  0
  8  9  1  0
  9 10  1  0
 10 11  1  1
 10 12  1  0
 12 13  1  6
 13 14  1  0
 14 15  1  1
 14 16  1  0
 16 17  1  0
 17 18  1  0
 18 19  1  0
 19 20  1  0
 20 21  1  0
 21 22  1  0
 22 23  1  0
 23 24  1  0
 24 25  2  0
 24 26  1  0
 26 27  1  0
 27 28  1  0
 28 29  1  0
 29 30  1  0
 31 30  1  1
 31 32  1  0
 32 33  2  0
 32 34  1  0
  6 35  2  0
 35 36  1  0
 36 37  2  0
 31 26  1  0
 34 12  1  0
 37  4  1  0
M  END
$$$$
