
     RDKit          3D

 37 39  0  0  0  0  0  0  0  0999 V2000
  -23.6993  -41.6815   -5.6848 C   0  0  0  0  0  0  0  0  0  0  0  0
  -22.1759  -41.8385   -5.6670 C   0  0  0  0  0  0  0  0  0  0  0  0
  -21.8809  -43.2439   -6.1290 C   0  0  0  0  0  0  0  0  0  0  0  0
  -21.6071  -40.8322   -6.6130 C   0  0  0  0  0  0  0  0  0  0  0  0
  -20.5510  -40.0139   -6.2941 C   0  0  0  0  0  0  0  0  0  0  0  0
  -20.0418  -39.0870   -7.1931 C   0  0  0  0  0  0  0  0  0  0  0  0
  -18.9062  -38.1940   -6.8728 C   0  0  0  0  0  0  0  0  0  0  0  0
  -18.0528  -37.9154   -7.9942 N   0  0  0  0  0  0  0  0  0  0  0  0
  -16.8789  -38.7369   -7.9130 C   0  0  0  0  0  0  0  0  0  0  0  0
  -15.6054  -37.9701   -8.0995 C   0  0  1  0  0  0  0  0  0  0  0  0
  -15.0092  -37.7596   -6.8660 O   0  0  0  0  0  0  0  0  0  0  0  0
  -14.6154  -38.7204   -8.9783 C   0  0  2  0  0  0  0  0  0  0  0  0
  -13.4802  -37.7454   -9.3125 C   0  0  0  0  0  0  0  0  0  0  0  0
  -12.7476  -38.1405  -10.5731 C   0  0  2  0  0  0  0  0  0  0  0  0
  -11.3086  -38.5424  -10.2730 C   0  0  0  0  0  0  0  0  0  0  0  0
  -12.8085  -37.0600  -11.6252 C   0  0  0  0  0  0  0  0  0  0  0  0
  -11.5625  -37.0045  -12.4764 C   0  0  0  0  0  0  0  0  0  0  0  0
  -11.8926  -36.9150  -13.9533 C   0  0  0  0  0  0  0  0  0  0  0  0
  -11.4735  -38.1546  -14.7083 C   0  0  0  0  0  0  0  0  0  0  0  0
  -12.1307  -39.4015  -14.2208 C   0  0  0  0  0  0  0  0  0  0  0  0
  -13.4454  -39.6470  -14.9190 C   0  0  0  0  0  0  0  0  0  0  0  0
  -14.0500  -40.9561  -14.5079 C   0  0  0  0  0  0  0  0  0  0  0  0
  -14.4231  -40.9171  -13.0201 C   0  0  0  0  0  0  0  0  0  0  0  0
  -15.2075  -42.1219  -12.6541 C   0  0  0  0  0  0  0  0  0  0  0  0
  -15.7928  -42.7250  -13.6214 O   0  0  0  0  0  0  0  0  0  0  0  0
  -15.3305  -42.6108  -11.3386 N   0  0  0  0  0  0  0  0  0  0  0  0
  -15.4354  -44.0335  -11.1230 C   0  0  0  0  0  0  0  0  0  0  0  0
  -14.5496  -44.3000   -9.8945 C   0  0  0  0  0  0  0  0  0  0  0  0
  -13.4561  -43.2406   -9.8176 C   0  0  0  0  0  0  0  0  0  0  0  0
  -14.0469  -41.8598   -9.4891 C   0  0  0  0  0  0  0  0  0  0  0  0
  -15.3585  -41.7632  -10.1698 C   0  0  1  0  0  0  0  0  0  0  0  0
  -15.8376  -40.3984  -10.4648 C   0  0  0  0  0  0  0  0  0  0  0  0
  -16.9835  -40.3821  -11.0479 O   0  0  0  0  0  0  0  0  0  0  0  0
  -15.2192  -39.1800  -10.1964 N   0  0  0  0  0  0  0  0  0  0  0  0
  -20.6612  -39.0329   -8.4365 C   0  0  0  0  0  0  0  0  0  0  0  0
  -21.7221  -39.8441   -8.7784 C   0  0  0  0  0  0  0  0  0  0  0  0
  -22.1972  -40.7469   -7.8646 C   0  0  0  0  0  0  0  0  0  0  0  0
  1  2  1  0
  2  3  1  0
  2  4  1  0
  4  5  2  0
  5  6  1  0
  6  7  1  0
  7  8  1  0
  8  9  1  0
  9 10  1  0
 10 11  1  1
 10 12  1  0
 12 13  1  6
 13 14  1  0
 14 15  1  1
 14 16  1  0
 16 17  1  0
 17 18  1  0
 18 19  1  0
 19 20  1  0
 20 21  1  0
 21 22  1  0
 22 23  1  0
 23 24  1  0
 24 25  2  0
 24 26  1  0
 26 27  1  0
 27 28  1  0
 28 29  1  0
 29 30  1  0
 31 30  1  6
 31 32  1  0
 32 33  2  0
 32 34  1  0
  6 35  2  0
 35 36  1  0
 36 37  2  0
 31 26  1  0
 34 12  1  0
 37  4  1  0
M  END
$$$$
