
     RDKit          3D

 37 39  0  0  0  0  0  0  0  0999 V2000
  -15.2048  -34.9097  -11.2441 C   0  0  0  0  0  0  0  0  0  0  0  0
  -13.8762  -34.7757  -11.9940 C   0  0  0  0  0  0  0  0  0  0  0  0
  -12.9904  -33.8938  -11.1494 C   0  0  0  0  0  0  0  0  0  0  0  0
  -13.2953  -36.1449  -12.1319 C   0  0  0  0  0  0  0  0  0  0  0  0
  -13.5700  -37.1692  -11.2590 C   0  0  0  0  0  0  0  0  0  0  0  0
  -13.0162  -38.4328  -11.4111 C   0  0  0  0  0  0  0  0  0  0  0  0
  -13.2957  -39.5517  -10.4838 C   0  0  0  0  0  0  0  0  0  0  0  0
  -13.8349  -39.1362   -9.2189 N   0  0  0  0  0  0  0  0  0  0  0  0
  -15.2308  -38.8405   -9.3720 C   0  0  0  0  0  0  0  0  0  0  0  0
  -15.9834  -38.8486   -8.0765 C   0  0  1  0  0  0  0  0  0  0  0  0
  -16.0701  -37.5552   -7.5857 O   0  0  0  0  0  0  0  0  0  0  0  0
  -17.3980  -39.3830   -8.2460 C   0  0  2  0  0  0  0  0  0  0  0  0
  -18.3538  -38.2986   -7.7346 C   0  0  0  0  0  0  0  0  0  0  0  0
  -19.6922  -38.8695   -7.3288 C   0  0  2  0  0  0  0  0  0  0  0  0
  -20.8058  -38.3687   -8.2405 C   0  0  0  0  0  0  0  0  0  0  0  0
  -20.0062  -38.5987   -5.8775 C   0  0  0  0  0  0  0  0  0  0  0  0
  -21.4822  -38.4008   -5.6277 C   0  0  0  0  0  0  0  0  0  0  0  0
  -21.9632  -39.1987   -4.4318 C   0  0  0  0  0  0  0  0  0  0  0  0
  -22.9201  -40.2990   -4.8267 C   0  0  0  0  0  0  0  0  0  0  0  0
  -22.3299  -41.2945   -5.7673 C   0  0  0  0  0  0  0  0  0  0  0  0
  -21.6389  -42.4149   -5.0302 C   0  0  0  0  0  0  0  0  0  0  0  0
  -21.1432  -43.4700   -5.9733 C   0  0  0  0  0  0  0  0  0  0  0  0
  -20.0472  -42.8914   -6.8781 C   0  0  0  0  0  0  0  0  0  0  0  0
  -19.4071  -43.9722   -7.6673 C   0  0  0  0  0  0  0  0  0  0  0  0
  -19.5272  -45.1574   -7.1953 O   0  0  0  0  0  0  0  0  0  0  0  0
  -18.7005  -43.7573   -8.8670 N   0  0  0  0  0  0  0  0  0  0  0  0
  -18.7438  -44.7640   -9.8996 C   0  0  0  0  0  0  0  0  0  0  0  0
  -18.8871  -43.9652  -11.2059 C   0  0  0  0  0  0  0  0  0  0  0  0
  -19.5788  -42.6380  -10.9162 C   0  0  0  0  0  0  0  0  0  0  0  0
  -18.6772  -41.7167  -10.0783 C   0  0  0  0  0  0  0  0  0  0  0  0
  -17.9211  -42.5716   -9.1346 C   0  0  1  0  0  0  0  0  0  0  0  0
  -17.4415  -41.9128   -7.9038 C   0  0  0  0  0  0  0  0  0  0  0  0
  -16.7865  -42.7050   -7.1312 O   0  0  0  0  0  0  0  0  0  0  0  0
  -17.6090  -40.5907   -7.5001 N   0  0  0  0  0  0  0  0  0  0  0  0
  -12.1665  -38.6043  -12.4979 C   0  0  0  0  0  0  0  0  0  0  0  0
  -11.8765  -37.5911  -13.3865 C   0  0  0  0  0  0  0  0  0  0  0  0
  -12.4422  -36.3572  -13.2038 C   0  0  0  0  0  0  0  0  0  0  0  0
  1  2  1  0
  2  3  1  0
  2  4  1  0
  4  5  2  0
  5  6  1  0
  6  7  1  0
  7  8  1  0
  8  9  1  0
  9 10  1  0
 10 11  1  6
 10 12  1  0
 12 13  1  1
 13 14  1  0
 14 15  1  6
 14 16  1  0
 16 17  1  0
 17 18  1  0
 18 19  1  0
 19 20  1  0
 20 21  1  0
 21 22  1  0
 22 23  1  0
 23 24  1  0
 24 25  2  0
 24 26  1  0
 26 27  1  0
 27 28  1  0
 28 29  1  0
 29 30  1  0
 31 30  1  1
 31 32  1  0
 32 33  2  0
 32 34  1  0
  6 35  2  0
 35 36  1  0
 36 37  2  0
 31 26  1  0
 34 12  1  0
 37  4  1  0
M  END
$$$$
