
     RDKit          3D

 37 39  0  0  0  0  0  0  0  0999 V2000
  -17.3462  -35.6774  -12.6172 C   0  0  0  0  0  0  0  0  0  0  0  0
  -16.0009  -34.9507  -12.5297 C   0  0  0  0  0  0  0  0  0  0  0  0
  -16.1866  -33.8134  -11.5562 C   0  0  0  0  0  0  0  0  0  0  0  0
  -14.9911  -35.9291  -12.0255 C   0  0  0  0  0  0  0  0  0  0  0  0
  -15.0802  -36.5348  -10.7960 C   0  0  0  0  0  0  0  0  0  0  0  0
  -14.1270  -37.4411  -10.3524 C   0  0  0  0  0  0  0  0  0  0  0  0
  -14.2003  -38.1056   -9.0322 C   0  0  0  0  0  0  0  0  0  0  0  0
  -15.5297  -38.1807   -8.4934 N   0  0  0  0  0  0  0  0  0  0  0  0
  -15.6097  -39.2840   -7.5791 C   0  0  0  0  0  0  0  0  0  0  0  0
  -15.8928  -40.5920   -8.2527 C   0  0  1  0  0  0  0  0  0  0  0  0
  -15.3500  -41.6237   -7.5028 O   0  0  0  0  0  0  0  0  0  0  0  0
  -17.3866  -40.8468   -8.3911 C   0  0  2  0  0  0  0  0  0  0  0  0
  -18.0725  -39.4774   -8.4637 C   0  0  0  0  0  0  0  0  0  0  0  0
  -19.5241  -39.5491   -8.0517 C   0  0  2  0  0  0  0  0  0  0  0  0
  -20.4471  -39.2401   -9.2242 C   0  0  0  0  0  0  0  0  0  0  0  0
  -19.8212  -38.6596   -6.8690 C   0  0  0  0  0  0  0  0  0  0  0  0
  -21.2148  -38.0798   -6.9114 C   0  0  0  0  0  0  0  0  0  0  0  0
  -21.9210  -38.2123   -5.5766 C   0  0  0  0  0  0  0  0  0  0  0  0
  -23.0983  -39.1565   -5.6445 C   0  0  0  0  0  0  0  0  0  0  0  0
  -22.7283  -40.5442   -6.0469 C   0  0  0  0  0  0  0  0  0  0  0  0
  -22.3575  -41.3894   -4.8535 C   0  0  0  0  0  0  0  0  0  0  0  0
  -22.0934  -42.8117   -5.2480 C   0  0  0  0  0  0  0  0  0  0  0  0
  -20.8552  -42.8840   -6.1514 C   0  0  0  0  0  0  0  0  0  0  0  0
  -20.4635  -44.2971   -6.3761 C   0  0  0  0  0  0  0  0  0  0  0  0
  -20.8842  -45.1403   -5.5079 O   0  0  0  0  0  0  0  0  0  0  0  0
  -19.6787  -44.7326   -7.4621 N   0  0  0  0  0  0  0  0  0  0  0  0
  -19.9221  -46.0371   -8.0283 C   0  0  0  0  0  0  0  0  0  0  0  0
  -19.8166  -45.8201   -9.5470 C   0  0  0  0  0  0  0  0  0  0  0  0
  -20.1792  -44.3773   -9.8801 C   0  0  0  0  0  0  0  0  0  0  0  0
  -19.1163  -43.4033   -9.3459 C   0  0  0  0  0  0  0  0  0  0  0  0
  -18.6266  -43.9420   -8.0563 C   0  0  1  0  0  0  0  0  0  0  0  0
  -18.0518  -42.9577   -7.1183 C   0  0  0  0  0  0  0  0  0  0  0  0
  -17.6383  -43.4885   -6.0225 O   0  0  0  0  0  0  0  0  0  0  0  0
  -17.9119  -41.5813   -7.2758 N   0  0  0  0  0  0  0  0  0  0  0  0
  -13.0753  -37.7020  -11.2233 C   0  0  0  0  0  0  0  0  0  0  0  0
  -12.9655  -37.1061  -12.4615 C   0  0  0  0  0  0  0  0  0  0  0  0
  -13.9258  -36.2167  -12.8648 C   0  0  0  0  0  0  0  0  0  0  0  0
  1  2  1  0
  2  3  1  0
  2  4  1  0
  4  5  2  0
  5  6  1  0
  6  7  1  0
  7  8  1  0
  8  9  1  0
  9 10  1  0
 10 11  1  1
 10 12  1  0
 12 13  1  1
 13 14  1  0
 14 15  1  6
 14 16  1  0
 16 17  1  0
 17 18  1  0
 18 19  1  0
 19 20  1  0
 20 21  1  0
 21 22  1  0
 22 23  1  0
 23 24  1  0
 24 25  2  0
 24 26  1  0
 26 27  1  0
 27 28  1  0
 28 29  1  0
 29 30  1  0
 31 30  1  6
 31 32  1  0
 32 33  2  0
 32 34  1  0
  6 35  2  0
 35 36  1  0
 36 37  2  0
 31 26  1  0
 34 12  1  0
 37  4  1  0
M  END
$$$$
