
     RDKit          3D

 37 39  0  0  0  0  0  0  0  0999 V2000
  -14.8989  -34.5042  -11.0770 C   0  0  0  0  0  0  0  0  0  0  0  0
  -13.7636  -34.9249  -12.0149 C   0  0  0  0  0  0  0  0  0  0  0  0
  -12.4856  -34.4001  -11.4090 C   0  0  0  0  0  0  0  0  0  0  0  0
  -13.7561  -36.4174  -12.0738 C   0  0  0  0  0  0  0  0  0  0  0  0
  -13.3395  -37.2086  -11.0312 C   0  0  0  0  0  0  0  0  0  0  0  0
  -13.3432  -38.5942  -11.1130 C   0  0  0  0  0  0  0  0  0  0  0  0
  -12.8984  -39.4677  -10.0043 C   0  0  0  0  0  0  0  0  0  0  0  0
  -13.6899  -39.3409   -8.8123 N   0  0  0  0  0  0  0  0  0  0  0  0
  -15.0125  -39.8370   -9.0658 C   0  0  0  0  0  0  0  0  0  0  0  0
  -15.9536  -39.6269   -7.9190 C   0  0  1  0  0  0  0  0  0  0  0  0
  -16.0884  -38.2688   -7.6764 O   0  0  0  0  0  0  0  0  0  0  0  0
  -17.3361  -40.1922   -8.2094 C   0  0  2  0  0  0  0  0  0  0  0  0
  -18.3461  -39.0675   -7.9522 C   0  0  0  0  0  0  0  0  0  0  0  0
  -19.7282  -39.6036   -7.6618 C   0  0  2  0  0  0  0  0  0  0  0  0
  -20.7117  -39.2206   -8.7610 C   0  0  0  0  0  0  0  0  0  0  0  0
  -20.2275  -39.1748   -6.3035 C   0  0  0  0  0  0  0  0  0  0  0  0
  -21.7227  -38.9661   -6.2714 C   0  0  0  0  0  0  0  0  0  0  0  0
  -22.3585  -39.6296   -5.0658 C   0  0  0  0  0  0  0  0  0  0  0  0
  -23.2601  -40.7776   -5.4548 C   0  0  0  0  0  0  0  0  0  0  0  0
  -22.5563  -41.8662   -6.1923 C   0  0  0  0  0  0  0  0  0  0  0  0
  -21.9716  -42.8890   -5.2500 C   0  0  0  0  0  0  0  0  0  0  0  0
  -21.3615  -44.0380   -5.9956 C   0  0  0  0  0  0  0  0  0  0  0  0
  -20.1547  -43.5530   -6.8099 C   0  0  0  0  0  0  0  0  0  0  0  0
  -19.4216  -44.7087   -7.3821 C   0  0  0  0  0  0  0  0  0  0  0  0
  -19.6067  -45.8345   -6.7990 O   0  0  0  0  0  0  0  0  0  0  0  0
  -18.5639  -44.6224   -8.4964 N   0  0  0  0  0  0  0  0  0  0  0  0
  -18.4762  -45.7392   -9.4057 C   0  0  0  0  0  0  0  0  0  0  0  0
  -18.4450  -45.0940  -10.8012 C   0  0  0  0  0  0  0  0  0  0  0  0
  -19.1633  -43.7502  -10.7555 C   0  0  0  0  0  0  0  0  0  0  0  0
  -18.3750  -42.7307   -9.9170 C   0  0  0  0  0  0  0  0  0  0  0  0
  -17.7515  -43.4660   -8.7927 C   0  0  1  0  0  0  0  0  0  0  0  0
  -17.4338  -42.6678   -7.5923 C   0  0  0  0  0  0  0  0  0  0  0  0
  -16.8882  -43.3609   -6.6568 O   0  0  0  0  0  0  0  0  0  0  0  0
  -17.6473  -41.3106   -7.3657 N   0  0  0  0  0  0  0  0  0  0  0  0
  -13.7928  -39.1376  -12.3109 C   0  0  0  0  0  0  0  0  0  0  0  0
  -14.2156  -38.3634  -13.3702 C   0  0  0  0  0  0  0  0  0  0  0  0
  -14.1975  -36.9990  -13.2524 C   0  0  0  0  0  0  0  0  0  0  0  0
  1  2  1  0
  2  3  1  0
  2  4  1  0
  4  5  2  0
  5  6  1  0
  6  7  1  0
  7  8  1  0
  8  9  1  0
  9 10  1  0
 10 11  1  6
 10 12  1  0
 12 13  1  1
 13 14  1  0
 14 15  1  6
 14 16  1  0
 16 17  1  0
 17 18  1  0
 18 19  1  0
 19 20  1  0
 20 21  1  0
 21 22  1  0
 22 23  1  0
 23 24  1  0
 24 25  2  0
 24 26  1  0
 26 27  1  0
 27 28  1  0
 28 29  1  0
 29 30  1  0
 31 30  1  6
 31 32  1  0
 32 33  2  0
 32 34  1  0
  6 35  2  0
 35 36  1  0
 36 37  2  0
 31 26  1  0
 34 12  1  0
 37  4  1  0
M  END
$$$$
