
     RDKit          3D

 37 39  0  0  0  0  0  0  0  0999 V2000
  -15.9738  -34.9043  -13.4782 C   0  0  0  0  0  0  0  0  0  0  0  0
  -16.2736  -35.9895  -12.4399 C   0  0  0  0  0  0  0  0  0  0  0  0
  -17.2794  -36.9222  -13.0677 C   0  0  0  0  0  0  0  0  0  0  0  0
  -14.9929  -36.7001  -12.1466 C   0  0  0  0  0  0  0  0  0  0  0  0
  -14.9154  -37.8042  -11.3332 C   0  0  0  0  0  0  0  0  0  0  0  0
  -13.7113  -38.4456  -11.0777 C   0  0  0  0  0  0  0  0  0  0  0  0
  -13.6019  -39.6355  -10.2047 C   0  0  0  0  0  0  0  0  0  0  0  0
  -13.7186  -39.3400   -8.8038 N   0  0  0  0  0  0  0  0  0  0  0  0
  -15.0207  -38.7974   -8.5400 C   0  0  0  0  0  0  0  0  0  0  0  0
  -15.6991  -39.4310   -7.3640 C   0  0  1  0  0  0  0  0  0  0  0  0
  -15.7480  -38.5244   -6.3165 O   0  0  0  0  0  0  0  0  0  0  0  0
  -17.1251  -39.8500   -7.6901 C   0  0  2  0  0  0  0  0  0  0  0  0
  -18.0264  -38.6435   -7.4023 C   0  0  0  0  0  0  0  0  0  0  0  0
  -19.4576  -39.0543   -7.1470 C   0  0  2  0  0  0  0  0  0  0  0  0
  -20.3839  -38.5393   -8.2418 C   0  0  0  0  0  0  0  0  0  0  0  0
  -19.9330  -38.6285   -5.7792 C   0  0  0  0  0  0  0  0  0  0  0  0
  -21.4016  -38.2783   -5.7557 C   0  0  0  0  0  0  0  0  0  0  0  0
  -22.1153  -38.9204   -4.5824 C   0  0  0  0  0  0  0  0  0  0  0  0
  -23.1169  -39.9617   -5.0235 C   0  0  0  0  0  0  0  0  0  0  0  0
  -22.5100  -41.0857   -5.7933 C   0  0  0  0  0  0  0  0  0  0  0  0
  -22.0394  -42.1932   -4.8832 C   0  0  0  0  0  0  0  0  0  0  0  0
  -21.5313  -43.3680   -5.6643 C   0  0  0  0  0  0  0  0  0  0  0  0
  -20.2721  -42.9723   -6.4469 C   0  0  0  0  0  0  0  0  0  0  0  0
  -19.6448  -44.1719   -7.0536 C   0  0  0  0  0  0  0  0  0  0  0  0
  -19.9451  -45.2949   -6.5147 O   0  0  0  0  0  0  0  0  0  0  0  0
  -18.7668  -44.1285   -8.1546 N   0  0  0  0  0  0  0  0  0  0  0  0
  -18.7734  -45.2152   -9.1037 C   0  0  0  0  0  0  0  0  0  0  0  0
  -18.6605  -44.5263  -10.4739 C   0  0  0  0  0  0  0  0  0  0  0  0
  -19.2476  -43.1222  -10.3861 C   0  0  0  0  0  0  0  0  0  0  0  0
  -18.3775  -42.2140   -9.5019 C   0  0  0  0  0  0  0  0  0  0  0  0
  -17.8434  -43.0456   -8.3990 C   0  0  1  0  0  0  0  0  0  0  0  0
  -17.4680  -42.3253   -7.1664 C   0  0  0  0  0  0  0  0  0  0  0  0
  -17.0047  -43.1008   -6.2514 O   0  0  0  0  0  0  0  0  0  0  0  0
  -17.5539  -40.9629   -6.8919 N   0  0  0  0  0  0  0  0  0  0  0  0
  -12.5862  -37.9075  -11.6918 C   0  0  0  0  0  0  0  0  0  0  0  0
  -12.6403  -36.8006  -12.5117 C   0  0  0  0  0  0  0  0  0  0  0  0
  -13.8469  -36.1942  -12.7404 C   0  0  0  0  0  0  0  0  0  0  0  0
  1  2  1  0
  2  3  1  0
  2  4  1  0
  4  5  2  0
  5  6  1  0
  6  7  1  0
  7  8  1  0
  8  9  1  0
  9 10  1  0
 10 11  1  1
 10 12  1  0
 12 13  1  1
 13 14  1  0
 14 15  1  6
 14 16  1  0
 16 17  1  0
 17 18  1  0
 18 19  1  0
 19 20  1  0
 20 21  1  0
 21 22  1  0
 22 23  1  0
 23 24  1  0
 24 25  2  0
 24 26  1  0
 26 27  1  0
 27 28  1  0
 28 29  1  0
 29 30  1  0
 31 30  1  6
 31 32  1  0
 32 33  2  0
 32 34  1  0
  6 35  2  0
 35 36  1  0
 36 37  2  0
 31 26  1  0
 34 12  1  0
 37  4  1  0
M  END
$$$$
