
     RDKit          3D

 37 39  0  0  0  0  0  0  0  0999 V2000
  -12.6226  -34.7442  -11.7947 C   0  0  0  0  0  0  0  0  0  0  0  0
  -14.0796  -35.1798  -11.9761 C   0  0  0  0  0  0  0  0  0  0  0  0
  -14.5449  -34.5966  -13.2872 C   0  0  0  0  0  0  0  0  0  0  0  0
  -14.1031  -36.6728  -12.0144 C   0  0  0  0  0  0  0  0  0  0  0  0
  -13.6185  -37.4584  -10.9972 C   0  0  0  0  0  0  0  0  0  0  0  0
  -13.6532  -38.8446  -11.0589 C   0  0  0  0  0  0  0  0  0  0  0  0
  -13.1367  -39.7122   -9.9771 C   0  0  0  0  0  0  0  0  0  0  0  0
  -13.8744  -39.6095   -8.7488 N   0  0  0  0  0  0  0  0  0  0  0  0
  -15.2439  -39.9667   -8.9864 C   0  0  0  0  0  0  0  0  0  0  0  0
  -16.1475  -39.6478   -7.8347 C   0  0  1  0  0  0  0  0  0  0  0  0
  -16.2328  -38.2726   -7.6829 O   0  0  0  0  0  0  0  0  0  0  0  0
  -17.5544  -40.1850   -8.0522 C   0  0  2  0  0  0  0  0  0  0  0  0
  -18.5154  -38.9973   -7.9226 C   0  0  0  0  0  0  0  0  0  0  0  0
  -19.9157  -39.4386   -7.5666 C   0  0  2  0  0  0  0  0  0  0  0  0
  -20.8923  -39.1444   -8.6987 C   0  0  0  0  0  0  0  0  0  0  0  0
  -20.3851  -38.8357   -6.2649 C   0  0  0  0  0  0  0  0  0  0  0  0
  -21.8702  -38.5629   -6.2512 C   0  0  0  0  0  0  0  0  0  0  0  0
  -22.5219  -39.0560   -4.9744 C   0  0  0  0  0  0  0  0  0  0  0  0
  -23.4729  -40.2029   -5.2245 C   0  0  0  0  0  0  0  0  0  0  0  0
  -22.8205  -41.3974   -5.8342 C   0  0  0  0  0  0  0  0  0  0  0  0
  -22.2697  -42.3281   -4.7823 C   0  0  0  0  0  0  0  0  0  0  0  0
  -21.7134  -43.5798   -5.3927 C   0  0  0  0  0  0  0  0  0  0  0  0
  -20.4951  -43.2423   -6.2624 C   0  0  0  0  0  0  0  0  0  0  0  0
  -19.8147  -44.4856   -6.7002 C   0  0  0  0  0  0  0  0  0  0  0  0
  -20.0404  -45.5280   -5.9901 O   0  0  0  0  0  0  0  0  0  0  0  0
  -18.9640  -44.5640   -7.8205 N   0  0  0  0  0  0  0  0  0  0  0  0
  -18.9299  -45.7808   -8.5949 C   0  0  0  0  0  0  0  0  0  0  0  0
  -18.8847  -45.3027  -10.0558 C   0  0  0  0  0  0  0  0  0  0  0  0
  -19.5473  -43.9339  -10.1627 C   0  0  0  0  0  0  0  0  0  0  0  0
  -18.7108  -42.8582   -9.4509 C   0  0  0  0  0  0  0  0  0  0  0  0
  -18.1079  -43.4841   -8.2517 C   0  0  1  0  0  0  0  0  0  0  0  0
  -17.7474  -42.5667   -7.1528 C   0  0  0  0  0  0  0  0  0  0  0  0
  -17.2222  -43.1695   -6.1457 O   0  0  0  0  0  0  0  0  0  0  0  0
  -17.9034  -41.1848   -7.0837 N   0  0  0  0  0  0  0  0  0  0  0  0
  -14.2066  -39.3947  -12.2095 C   0  0  0  0  0  0  0  0  0  0  0  0
  -14.6988  -38.6260  -13.2426 C   0  0  0  0  0  0  0  0  0  0  0  0
  -14.6474  -37.2608  -13.1458 C   0  0  0  0  0  0  0  0  0  0  0  0
  1  2  1  0
  2  3  1  0
  2  4  1  0
  4  5  2  0
  5  6  1  0
  6  7  1  0
  7  8  1  0
  8  9  1  0
  9 10  1  0
 10 11  1  6
 10 12  1  0
 12 13  1  1
 13 14  1  0
 14 15  1  6
 14 16  1  0
 16 17  1  0
 17 18  1  0
 18 19  1  0
 19 20  1  0
 20 21  1  0
 21 22  1  0
 22 23  1  0
 23 24  1  0
 24 25  2  0
 24 26  1  0
 26 27  1  0
 27 28  1  0
 28 29  1  0
 29 30  1  0
 31 30  1  6
 31 32  1  0
 32 33  2  0
 32 34  1  0
  6 35  2  0
 35 36  1  0
 36 37  2  0
 31 26  1  0
 34 12  1  0
 37  4  1  0
M  END
$$$$
