
     RDKit          3D

 37 39  0  0  0  0  0  0  0  0999 V2000
  -10.6236  -36.1838  -10.9795 C   0  0  0  0  0  0  0  0  0  0  0  0
  -12.0477  -35.9842  -11.5066 C   0  0  0  0  0  0  0  0  0  0  0  0
  -11.9453  -35.0456  -12.6832 C   0  0  0  0  0  0  0  0  0  0  0  0
  -12.5642  -37.3204  -11.9296 C   0  0  0  0  0  0  0  0  0  0  0  0
  -13.8101  -37.7870  -11.5878 C   0  0  0  0  0  0  0  0  0  0  0  0
  -14.2651  -39.0336  -11.9949 C   0  0  0  0  0  0  0  0  0  0  0  0
  -15.6020  -39.5587  -11.6390 C   0  0  0  0  0  0  0  0  0  0  0  0
  -16.1873  -38.9251  -10.4904 N   0  0  0  0  0  0  0  0  0  0  0  0
  -15.5000  -39.3585   -9.3074 C   0  0  0  0  0  0  0  0  0  0  0  0
  -16.3044  -39.1797   -8.0561 C   0  0  1  0  0  0  0  0  0  0  0  0
  -16.4430  -37.8270   -7.7867 O   0  0  0  0  0  0  0  0  0  0  0  0
  -17.6973  -39.7782   -8.1872 C   0  0  2  0  0  0  0  0  0  0  0  0
  -18.6990  -38.6649   -7.8584 C   0  0  0  0  0  0  0  0  0  0  0  0
  -20.0326  -39.2171   -7.4128 C   0  0  2  0  0  0  0  0  0  0  0  0
  -21.1311  -38.8844   -8.4151 C   0  0  0  0  0  0  0  0  0  0  0  0
  -20.3992  -38.7576   -6.0226 C   0  0  0  0  0  0  0  0  0  0  0  0
  -21.8873  -38.5751   -5.8427 C   0  0  0  0  0  0  0  0  0  0  0  0
  -22.3824  -39.2142   -4.5603 C   0  0  0  0  0  0  0  0  0  0  0  0
  -23.2948  -40.3893   -4.8229 C   0  0  0  0  0  0  0  0  0  0  0  0
  -22.6475  -41.4862   -5.5988 C   0  0  0  0  0  0  0  0  0  0  0  0
  -21.9481  -42.4701   -4.6939 C   0  0  0  0  0  0  0  0  0  0  0  0
  -21.3934  -43.6293   -5.4665 C   0  0  0  0  0  0  0  0  0  0  0  0
  -20.2867  -43.1467   -6.4135 C   0  0  0  0  0  0  0  0  0  0  0  0
  -19.5918  -44.3053   -7.0263 C   0  0  0  0  0  0  0  0  0  0  0  0
  -19.6927  -45.4166   -6.3965 O   0  0  0  0  0  0  0  0  0  0  0  0
  -18.8546  -44.2364   -8.2248 N   0  0  0  0  0  0  0  0  0  0  0  0
  -18.8370  -45.3777   -9.1073 C   0  0  0  0  0  0  0  0  0  0  0  0
  -18.9623  -44.7734  -10.5158 C   0  0  0  0  0  0  0  0  0  0  0  0
  -19.7002  -43.4420  -10.4333 C   0  0  0  0  0  0  0  0  0  0  0  0
  -18.8518  -42.3843   -9.7086 C   0  0  0  0  0  0  0  0  0  0  0  0
  -18.1013  -43.0747   -8.6347 C   0  0  1  0  0  0  0  0  0  0  0  0
  -17.6793  -42.2359   -7.4956 C   0  0  0  0  0  0  0  0  0  0  0  0
  -17.0264  -42.8913   -6.6025 O   0  0  0  0  0  0  0  0  0  0  0  0
  -17.8969  -40.8767   -7.2856 N   0  0  0  0  0  0  0  0  0  0  0  0
  -13.3882  -39.7848  -12.7691 C   0  0  0  0  0  0  0  0  0  0  0  0
  -12.1337  -39.3369  -13.1241 C   0  0  0  0  0  0  0  0  0  0  0  0
  -11.7195  -38.1011  -12.7035 C   0  0  0  0  0  0  0  0  0  0  0  0
  1  2  1  0
  2  3  1  0
  2  4  1  0
  4  5  2  0
  5  6  1  0
  6  7  1  0
  7  8  1  0
  8  9  1  0
  9 10  1  0
 10 11  1  6
 10 12  1  0
 12 13  1  1
 13 14  1  0
 14 15  1  6
 14 16  1  0
 16 17  1  0
 17 18  1  0
 18 19  1  0
 19 20  1  0
 20 21  1  0
 21 22  1  0
 22 23  1  0
 23 24  1  0
 24 25  2  0
 24 26  1  0
 26 27  1  0
 27 28  1  0
 28 29  1  0
 29 30  1  0
 31 30  1  6
 31 32  1  0
 32 33  2  0
 32 34  1  0
  6 35  2  0
 35 36  1  0
 36 37  2  0
 31 26  1  0
 34 12  1  0
 37  4  1  0
M  END
$$$$
