
     RDKit          3D

 37 39  0  0  0  0  0  0  0  0999 V2000
  -13.1501  -34.8214  -12.8888 C   0  0  0  0  0  0  0  0  0  0  0  0
  -13.3856  -35.4182  -11.4981 C   0  0  0  0  0  0  0  0  0  0  0  0
  -14.6305  -34.7639  -10.9523 C   0  0  0  0  0  0  0  0  0  0  0  0
  -13.5820  -36.8895  -11.6654 C   0  0  0  0  0  0  0  0  0  0  0  0
  -13.2205  -37.8091  -10.7113 C   0  0  0  0  0  0  0  0  0  0  0  0
  -13.4148  -39.1714  -10.8928 C   0  0  0  0  0  0  0  0  0  0  0  0
  -13.0330  -40.1814   -9.8808 C   0  0  0  0  0  0  0  0  0  0  0  0
  -13.7509  -40.0621   -8.6424 N   0  0  0  0  0  0  0  0  0  0  0  0
  -15.1357  -40.3657   -8.8654 C   0  0  0  0  0  0  0  0  0  0  0  0
  -16.0581  -39.6438   -7.9312 C   0  0  1  0  0  0  0  0  0  0  0  0
  -15.9646  -38.2789   -8.1543 O   0  0  0  0  0  0  0  0  0  0  0  0
  -17.5086  -40.0554   -8.1361 C   0  0  2  0  0  0  0  0  0  0  0  0
  -18.3761  -38.8427   -7.7785 C   0  0  0  0  0  0  0  0  0  0  0  0
  -19.7833  -39.2444   -7.4036 C   0  0  2  0  0  0  0  0  0  0  0  0
  -20.7947  -38.7273   -8.4194 C   0  0  0  0  0  0  0  0  0  0  0  0
  -20.1409  -38.8117   -6.0025 C   0  0  0  0  0  0  0  0  0  0  0  0
  -21.6005  -38.4528   -5.8581 C   0  0  0  0  0  0  0  0  0  0  0  0
  -22.2176  -39.0872   -4.6273 C   0  0  0  0  0  0  0  0  0  0  0  0
  -23.2582  -40.1240   -4.9799 C   0  0  0  0  0  0  0  0  0  0  0  0
  -22.7238  -41.2538   -5.7936 C   0  0  0  0  0  0  0  0  0  0  0  0
  -22.1853  -42.3613   -4.9220 C   0  0  0  0  0  0  0  0  0  0  0  0
  -21.7506  -43.5414   -5.7385 C   0  0  0  0  0  0  0  0  0  0  0  0
  -20.5587  -43.1555   -6.6245 C   0  0  0  0  0  0  0  0  0  0  0  0
  -19.9907  -44.3605   -7.2771 C   0  0  0  0  0  0  0  0  0  0  0  0
  -20.2515  -45.4801   -6.7112 O   0  0  0  0  0  0  0  0  0  0  0  0
  -19.2072  -44.3256   -8.4475 N   0  0  0  0  0  0  0  0  0  0  0  0
  -19.2988  -45.4151   -9.3889 C   0  0  0  0  0  0  0  0  0  0  0  0
  -19.2965  -44.7310  -10.7662 C   0  0  0  0  0  0  0  0  0  0  0  0
  -19.8663  -43.3232  -10.6347 C   0  0  0  0  0  0  0  0  0  0  0  0
  -18.9206  -42.4175   -9.8292 C   0  0  0  0  0  0  0  0  0  0  0  0
  -18.3013  -43.2489   -8.7716 C   0  0  1  0  0  0  0  0  0  0  0  0
  -17.8206  -42.5271   -7.5770 C   0  0  0  0  0  0  0  0  0  0  0  0
  -17.2871  -43.3026   -6.7010 O   0  0  0  0  0  0  0  0  0  0  0  0
  -17.8757  -41.1633   -7.3011 N   0  0  0  0  0  0  0  0  0  0  0  0
  -13.9967  -39.5540  -12.0960 C   0  0  0  0  0  0  0  0  0  0  0  0
  -14.3674  -38.6489  -13.0675 C   0  0  0  0  0  0  0  0  0  0  0  0
  -14.1598  -37.3123  -12.8525 C   0  0  0  0  0  0  0  0  0  0  0  0
  1  2  1  0
  2  3  1  0
  2  4  1  0
  4  5  2  0
  5  6  1  0
  6  7  1  0
  7  8  1  0
  8  9  1  0
  9 10  1  0
 10 11  1  6
 10 12  1  0
 12 13  1  1
 13 14  1  0
 14 15  1  6
 14 16  1  0
 16 17  1  0
 17 18  1  0
 18 19  1  0
 19 20  1  0
 20 21  1  0
 21 22  1  0
 22 23  1  0
 23 24  1  0
 24 25  2  0
 24 26  1  0
 26 27  1  0
 27 28  1  0
 28 29  1  0
 29 30  1  0
 31 30  1  6
 31 32  1  0
 32 33  2  0
 32 34  1  0
  6 35  2  0
 35 36  1  0
 36 37  2  0
 31 26  1  0
 34 12  1  0
 37  4  1  0
M  END
$$$$
