
     RDKit          3D

 37 39  0  0  0  0  0  0  0  0999 V2000
  -15.0803  -34.5373  -11.5672 C   0  0  0  0  0  0  0  0  0  0  0  0
  -13.8081  -35.1461  -12.1641 C   0  0  0  0  0  0  0  0  0  0  0  0
  -12.6594  -34.6709  -11.3095 C   0  0  0  0  0  0  0  0  0  0  0  0
  -13.9455  -36.6321  -12.1002 C   0  0  0  0  0  0  0  0  0  0  0  0
  -13.4435  -37.3896  -11.0702 C   0  0  0  0  0  0  0  0  0  0  0  0
  -13.5858  -38.7699  -11.0359 C   0  0  0  0  0  0  0  0  0  0  0  0
  -13.0532  -39.6075   -9.9383 C   0  0  0  0  0  0  0  0  0  0  0  0
  -13.8405  -39.5601   -8.7378 N   0  0  0  0  0  0  0  0  0  0  0  0
  -15.2325  -39.5174   -9.0844 C   0  0  0  0  0  0  0  0  0  0  0  0
  -16.1275  -39.2629   -7.9102 C   0  0  1  0  0  0  0  0  0  0  0  0
  -16.2871  -37.8965   -7.7399 O   0  0  0  0  0  0  0  0  0  0  0  0
  -17.5063  -39.8766   -8.1047 C   0  0  2  0  0  0  0  0  0  0  0  0
  -18.5335  -38.7668   -7.8516 C   0  0  0  0  0  0  0  0  0  0  0  0
  -19.8846  -39.3230   -7.4682 C   0  0  2  0  0  0  0  0  0  0  0  0
  -20.9301  -39.0191   -8.5344 C   0  0  0  0  0  0  0  0  0  0  0  0
  -20.3297  -38.8412   -6.1088 C   0  0  0  0  0  0  0  0  0  0  0  0
  -21.8268  -38.6692   -6.0129 C   0  0  0  0  0  0  0  0  0  0  0  0
  -22.3852  -39.2890   -4.7471 C   0  0  0  0  0  0  0  0  0  0  0  0
  -23.2723  -40.4772   -5.0361 C   0  0  0  0  0  0  0  0  0  0  0  0
  -22.5749  -41.5822   -5.7551 C   0  0  0  0  0  0  0  0  0  0  0  0
  -21.9174  -42.5427   -4.7952 C   0  0  0  0  0  0  0  0  0  0  0  0
  -21.3122  -43.7108   -5.5147 C   0  0  0  0  0  0  0  0  0  0  0  0
  -20.1599  -43.2356   -6.4096 C   0  0  0  0  0  0  0  0  0  0  0  0
  -19.4234  -44.3988   -6.9619 C   0  0  0  0  0  0  0  0  0  0  0  0
  -19.5490  -45.4992   -6.3175 O   0  0  0  0  0  0  0  0  0  0  0  0
  -18.6230  -44.3453   -8.1200 N   0  0  0  0  0  0  0  0  0  0  0  0
  -18.5483  -45.5025   -8.9784 C   0  0  0  0  0  0  0  0  0  0  0  0
  -18.6021  -44.9256  -10.4029 C   0  0  0  0  0  0  0  0  0  0  0  0
  -19.3544  -43.5998  -10.3856 C   0  0  0  0  0  0  0  0  0  0  0  0
  -18.5552  -42.5210   -9.6365 C   0  0  0  0  0  0  0  0  0  0  0  0
  -17.8583  -43.1844   -8.5107 C   0  0  1  0  0  0  0  0  0  0  0  0
  -17.5054  -42.3208   -7.3667 C   0  0  0  0  0  0  0  0  0  0  0  0
  -16.8964  -42.9534   -6.4274 O   0  0  0  0  0  0  0  0  0  0  0  0
  -17.7453  -40.9600   -7.1945 N   0  0  0  0  0  0  0  0  0  0  0  0
  -14.2658  -39.3440  -12.1039 C   0  0  0  0  0  0  0  0  0  0  0  0
  -14.7779  -38.6038  -13.1480 C   0  0  0  0  0  0  0  0  0  0  0  0
  -14.6178  -37.2436  -13.1471 C   0  0  0  0  0  0  0  0  0  0  0  0
  1  2  1  0
  2  3  1  0
  2  4  1  0
  4  5  2  0
  5  6  1  0
  6  7  1  0
  7  8  1  0
  8  9  1  0
  9 10  1  0
 10 11  1  6
 10 12  1  0
 12 13  1  1
 13 14  1  0
 14 15  1  6
 14 16  1  0
 16 17  1  0
 17 18  1  0
 18 19  1  0
 19 20  1  0
 20 21  1  0
 21 22  1  0
 22 23  1  0
 23 24  1  0
 24 25  2  0
 24 26  1  0
 26 27  1  0
 27 28  1  0
 28 29  1  0
 29 30  1  0
 31 30  1  6
 31 32  1  0
 32 33  2  0
 32 34  1  0
  6 35  2  0
 35 36  1  0
 36 37  2  0
 31 26  1  0
 34 12  1  0
 37  4  1  0
M  END
$$$$
