
     RDKit          3D

 37 39  0  0  0  0  0  0  0  0999 V2000
  -12.9893  -38.6216  -14.0881 C   0  0  0  0  0  0  0  0  0  0  0  0
  -12.7081  -37.2309  -13.5114 C   0  0  0  0  0  0  0  0  0  0  0  0
  -13.5916  -36.2653  -14.2617 C   0  0  0  0  0  0  0  0  0  0  0  0
  -13.0605  -37.2641  -12.0602 C   0  0  0  0  0  0  0  0  0  0  0  0
  -12.8704  -38.3683  -11.2658 C   0  0  0  0  0  0  0  0  0  0  0  0
  -13.2069  -38.3716   -9.9192 C   0  0  0  0  0  0  0  0  0  0  0  0
  -13.0128  -39.5484   -9.0433 C   0  0  0  0  0  0  0  0  0  0  0  0
  -13.5990  -39.4047   -7.7398 N   0  0  0  0  0  0  0  0  0  0  0  0
  -14.8233  -40.1515   -7.6850 C   0  0  0  0  0  0  0  0  0  0  0  0
  -15.9413  -39.4079   -7.0202 C   0  0  1  0  0  0  0  0  0  0  0  0
  -15.7543  -38.0451   -7.1913 O   0  0  0  0  0  0  0  0  0  0  0  0
  -17.2954  -39.7744   -7.6097 C   0  0  2  0  0  0  0  0  0  0  0  0
  -18.2876  -38.6928   -7.1664 C   0  0  0  0  0  0  0  0  0  0  0  0
  -19.7144  -39.1883   -7.1936 C   0  0  2  0  0  0  0  0  0  0  0  0
  -20.5345  -38.4538   -8.2471 C   0  0  0  0  0  0  0  0  0  0  0  0
  -20.3669  -39.1085   -5.8349 C   0  0  0  0  0  0  0  0  0  0  0  0
  -21.8452  -38.8111   -5.9149 C   0  0  0  0  0  0  0  0  0  0  0  0
  -22.6540  -39.7292   -5.0199 C   0  0  0  0  0  0  0  0  0  0  0  0
  -23.5403  -40.6626   -5.8107 C   0  0  0  0  0  0  0  0  0  0  0  0
  -22.7888  -41.5581   -6.7368 C   0  0  0  0  0  0  0  0  0  0  0  0
  -22.3676  -42.8363   -6.0551 C   0  0  0  0  0  0  0  0  0  0  0  0
  -21.7101  -43.7810   -7.0161 C   0  0  0  0  0  0  0  0  0  0  0  0
  -20.3921  -43.1805   -7.5228 C   0  0  0  0  0  0  0  0  0  0  0  0
  -19.6350  -44.1872   -8.3064 C   0  0  0  0  0  0  0  0  0  0  0  0
  -19.9347  -45.4127   -8.0827 O   0  0  0  0  0  0  0  0  0  0  0  0
  -18.6394  -43.8637   -9.2492 N   0  0  0  0  0  0  0  0  0  0  0  0
  -18.4777  -44.6963  -10.4163 C   0  0  0  0  0  0  0  0  0  0  0  0
  -18.2446  -43.7017  -11.5657 C   0  0  0  0  0  0  0  0  0  0  0  0
  -18.9126  -42.3730  -11.2307 C   0  0  0  0  0  0  0  0  0  0  0  0
  -18.2007  -41.6766  -10.0594 C   0  0  0  0  0  0  0  0  0  0  0  0
  -17.7537  -42.7306   -9.1200 C   0  0  1  0  0  0  0  0  0  0  0  0
  -17.5626  -42.3113   -7.7176 C   0  0  0  0  0  0  0  0  0  0  0  0
  -17.1670  -43.2684   -6.9555 O   0  0  0  0  0  0  0  0  0  0  0  0
  -17.7529  -41.0544   -7.1494 N   0  0  0  0  0  0  0  0  0  0  0  0
  -13.7479  -37.1930   -9.4184 C   0  0  0  0  0  0  0  0  0  0  0  0
  -13.9476  -36.0729  -10.1968 C   0  0  0  0  0  0  0  0  0  0  0  0
  -13.6032  -36.1075  -11.5219 C   0  0  0  0  0  0  0  0  0  0  0  0
  1  2  1  0
  2  3  1  0
  2  4  1  0
  4  5  2  0
  5  6  1  0
  6  7  1  0
  7  8  1  0
  8  9  1  0
  9 10  1  0
 10 11  1  6
 10 12  1  0
 12 13  1  1
 13 14  1  0
 14 15  1  6
 14 16  1  0
 16 17  1  0
 17 18  1  0
 18 19  1  0
 19 20  1  0
 20 21  1  0
 21 22  1  0
 22 23  1  0
 23 24  1  0
 24 25  2  0
 24 26  1  0
 26 27  1  0
 27 28  1  0
 28 29  1  0
 29 30  1  0
 31 30  1  6
 31 32  1  0
 32 33  2  0
 32 34  1  0
  6 35  2  0
 35 36  1  0
 36 37  2  0
 31 26  1  0
 34 12  1  0
 37  4  1  0
M  END
$$$$
