
     RDKit          3D

 37 39  0  0  0  0  0  0  0  0999 V2000
  -13.9120  -34.5545  -10.5616 C   0  0  0  0  0  0  0  0  0  0  0  0
  -13.5841  -34.8919  -12.0191 C   0  0  0  0  0  0  0  0  0  0  0  0
  -12.2002  -34.3541  -12.2864 C   0  0  0  0  0  0  0  0  0  0  0  0
  -13.6179  -36.3788  -12.1571 C   0  0  0  0  0  0  0  0  0  0  0  0
  -13.3816  -37.2362  -11.1104 C   0  0  0  0  0  0  0  0  0  0  0  0
  -13.4196  -38.6149  -11.2668 C   0  0  0  0  0  0  0  0  0  0  0  0
  -13.1676  -39.5588  -10.1553 C   0  0  0  0  0  0  0  0  0  0  0  0
  -13.9354  -39.2817   -8.9733 N   0  0  0  0  0  0  0  0  0  0  0  0
  -15.2709  -39.7773   -9.1477 C   0  0  0  0  0  0  0  0  0  0  0  0
  -16.1399  -39.5738   -7.9442 C   0  0  1  0  0  0  0  0  0  0  0  0
  -16.2649  -38.2169   -7.6902 O   0  0  0  0  0  0  0  0  0  0  0  0
  -17.5355  -40.1442   -8.1498 C   0  0  2  0  0  0  0  0  0  0  0  0
  -18.5312  -39.0153   -7.8581 C   0  0  0  0  0  0  0  0  0  0  0  0
  -19.8952  -39.5464   -7.4843 C   0  0  2  0  0  0  0  0  0  0  0  0
  -20.9368  -39.1827   -8.5354 C   0  0  0  0  0  0  0  0  0  0  0  0
  -20.3210  -39.0940   -6.1087 C   0  0  0  0  0  0  0  0  0  0  0  0
  -21.8124  -38.8849   -5.9998 C   0  0  0  0  0  0  0  0  0  0  0  0
  -22.3817  -39.5273   -4.7502 C   0  0  0  0  0  0  0  0  0  0  0  0
  -23.3018  -40.6820   -5.0700 C   0  0  0  0  0  0  0  0  0  0  0  0
  -22.6377  -41.7832   -5.8254 C   0  0  0  0  0  0  0  0  0  0  0  0
  -22.0020  -42.7894   -4.8983 C   0  0  0  0  0  0  0  0  0  0  0  0
  -21.4317  -43.9512   -5.6556 C   0  0  0  0  0  0  0  0  0  0  0  0
  -20.2711  -43.4803   -6.5420 C   0  0  0  0  0  0  0  0  0  0  0  0
  -19.5687  -44.6458   -7.1328 C   0  0  0  0  0  0  0  0  0  0  0  0
  -19.7210  -45.7612   -6.5210 O   0  0  0  0  0  0  0  0  0  0  0  0
  -18.7724  -44.5789   -8.2930 N   0  0  0  0  0  0  0  0  0  0  0  0
  -18.7327  -45.7113   -9.1861 C   0  0  0  0  0  0  0  0  0  0  0  0
  -18.7774  -45.0906  -10.5923 C   0  0  0  0  0  0  0  0  0  0  0  0
  -19.4936  -43.7462  -10.5313 C   0  0  0  0  0  0  0  0  0  0  0  0
  -18.6623  -42.7122   -9.7545 C   0  0  0  0  0  0  0  0  0  0  0  0
  -17.9784  -43.4277   -8.6528 C   0  0  1  0  0  0  0  0  0  0  0  0
  -17.5972  -42.6087   -7.4853 C   0  0  0  0  0  0  0  0  0  0  0  0
  -17.0012  -43.2854   -6.5686 O   0  0  0  0  0  0  0  0  0  0  0  0
  -17.7996  -41.2477   -7.2712 N   0  0  0  0  0  0  0  0  0  0  0  0
  -13.7107  -39.0805  -12.5439 C   0  0  0  0  0  0  0  0  0  0  0  0
  -13.9512  -38.2388  -13.6089 C   0  0  0  0  0  0  0  0  0  0  0  0
  -13.9049  -36.8837  -13.4160 C   0  0  0  0  0  0  0  0  0  0  0  0
  1  2  1  0
  2  3  1  0
  2  4  1  0
  4  5  2  0
  5  6  1  0
  6  7  1  0
  7  8  1  0
  8  9  1  0
  9 10  1  0
 10 11  1  6
 10 12  1  0
 12 13  1  1
 13 14  1  0
 14 15  1  6
 14 16  1  0
 16 17  1  0
 17 18  1  0
 18 19  1  0
 19 20  1  0
 20 21  1  0
 21 22  1  0
 22 23  1  0
 23 24  1  0
 24 25  2  0
 24 26  1  0
 26 27  1  0
 27 28  1  0
 28 29  1  0
 29 30  1  0
 31 30  1  6
 31 32  1  0
 32 33  2  0
 32 34  1  0
  6 35  2  0
 35 36  1  0
 36 37  2  0
 31 26  1  0
 34 12  1  0
 37  4  1  0
M  END
$$$$
