
     RDKit          3D

 37 39  0  0  0  0  0  0  0  0999 V2000
  -21.4519  -38.1657   -4.6937 C   0  0  0  0  0  0  0  0  0  0  0  0
  -22.3652  -38.9474   -5.6426 C   0  0  0  0  0  0  0  0  0  0  0  0
  -22.3959  -38.1812   -6.9418 C   0  0  0  0  0  0  0  0  0  0  0  0
  -21.7656  -40.3022   -5.8327 C   0  0  0  0  0  0  0  0  0  0  0  0
  -20.6865  -40.5386   -6.6490 C   0  0  0  0  0  0  0  0  0  0  0  0
  -20.1490  -41.8085   -6.8072 C   0  0  0  0  0  0  0  0  0  0  0  0
  -18.9881  -42.0886   -7.6812 C   0  0  0  0  0  0  0  0  0  0  0  0
  -18.3278  -40.9082   -8.1650 N   0  0  0  0  0  0  0  0  0  0  0  0
  -16.9921  -40.8634   -7.6421 C   0  0  0  0  0  0  0  0  0  0  0  0
  -16.4226  -39.4786   -7.5901 C   0  0  1  0  0  0  0  0  0  0  0  0
  -16.1368  -39.1468   -6.2749 O   0  0  0  0  0  0  0  0  0  0  0  0
  -15.1358  -39.3642   -8.3942 C   0  0  2  0  0  0  0  0  0  0  0  0
  -14.7172  -37.8894   -8.3673 C   0  0  0  0  0  0  0  0  0  0  0  0
  -13.8201  -37.5346   -9.5298 C   0  0  2  0  0  0  0  0  0  0  0  0
  -12.4196  -37.1670   -9.0549 C   0  0  0  0  0  0  0  0  0  0  0  0
  -14.4128  -36.4448  -10.3897 C   0  0  0  0  0  0  0  0  0  0  0  0
  -13.3628  -35.5433  -10.9937 C   0  0  0  0  0  0  0  0  0  0  0  0
  -13.6046  -35.3079  -12.4716 C   0  0  0  0  0  0  0  0  0  0  0  0
  -12.5267  -35.9242  -13.3320 C   0  0  0  0  0  0  0  0  0  0  0  0
  -12.4063  -37.4020  -13.1713 C   0  0  0  0  0  0  0  0  0  0  0  0
  -13.3221  -38.1408  -14.1154 C   0  0  0  0  0  0  0  0  0  0  0  0
  -13.1193  -39.6241  -14.0298 C   0  0  0  0  0  0  0  0  0  0  0  0
  -13.5328  -40.1305  -12.6416 C   0  0  0  0  0  0  0  0  0  0  0  0
  -13.5346  -41.6137  -12.6141 C   0  0  0  0  0  0  0  0  0  0  0  0
  -13.6317  -42.1954  -13.7516 O   0  0  0  0  0  0  0  0  0  0  0  0
  -13.4378  -42.3786  -11.4349 N   0  0  0  0  0  0  0  0  0  0  0  0
  -12.7465  -43.6445  -11.4716 C   0  0  0  0  0  0  0  0  0  0  0  0
  -11.9314  -43.6724  -10.1678 C   0  0  0  0  0  0  0  0  0  0  0  0
  -11.6168  -42.2449   -9.7351 C   0  0  0  0  0  0  0  0  0  0  0  0
  -12.8921  -41.5070   -9.2961 C   0  0  0  0  0  0  0  0  0  0  0  0
  -13.9964  -41.9692  -10.1680 C   0  0  1  0  0  0  0  0  0  0  0  0
  -15.1357  -41.0425  -10.3182 C   0  0  0  0  0  0  0  0  0  0  0  0
  -16.0632  -41.5044  -11.0796 O   0  0  0  0  0  0  0  0  0  0  0  0
  -15.3143  -39.7814   -9.7556 N   0  0  0  0  0  0  0  0  0  0  0  0
  -20.7646  -42.8296   -6.0923 C   0  0  0  0  0  0  0  0  0  0  0  0
  -21.8482  -42.6157   -5.2675 C   0  0  0  0  0  0  0  0  0  0  0  0
  -22.3511  -41.3485   -5.1366 C   0  0  0  0  0  0  0  0  0  0  0  0
  1  2  1  0
  2  3  1  0
  2  4  1  0
  4  5  2  0
  5  6  1  0
  6  7  1  0
  7  8  1  0
  8  9  1  0
  9 10  1  0
 10 11  1  1
 10 12  1  0
 12 13  1  6
 13 14  1  0
 14 15  1  1
 14 16  1  0
 16 17  1  0
 17 18  1  0
 18 19  1  0
 19 20  1  0
 20 21  1  0
 21 22  1  0
 22 23  1  0
 23 24  1  0
 24 25  2  0
 24 26  1  0
 26 27  1  0
 27 28  1  0
 28 29  1  0
 29 30  1  0
 31 30  1  1
 31 32  1  0
 32 33  2  0
 32 34  1  0
  6 35  2  0
 35 36  1  0
 36 37  2  0
 31 26  1  0
 34 12  1  0
 37  4  1  0
M  END
$$$$
