
     RDKit          3D

 37 39  0  0  0  0  0  0  0  0999 V2000
  -13.9476  -35.1358  -12.6425 C   0  0  0  0  0  0  0  0  0  0  0  0
  -12.5376  -35.7293  -12.5697 C   0  0  0  0  0  0  0  0  0  0  0  0
  -11.8592  -35.0874  -11.3850 C   0  0  0  0  0  0  0  0  0  0  0  0
  -12.6776  -37.2035  -12.3739 C   0  0  0  0  0  0  0  0  0  0  0  0
  -12.6816  -37.8003  -11.1368 C   0  0  0  0  0  0  0  0  0  0  0  0
  -12.8136  -39.1735  -10.9837 C   0  0  0  0  0  0  0  0  0  0  0  0
  -12.8196  -39.8398   -9.6624 C   0  0  0  0  0  0  0  0  0  0  0  0
  -14.0913  -40.4021   -9.3018 N   0  0  0  0  0  0  0  0  0  0  0  0
  -15.0693  -39.3545   -9.2267 C   0  0  0  0  0  0  0  0  0  0  0  0
  -15.9198  -39.4256   -7.9953 C   0  0  1  0  0  0  0  0  0  0  0  0
  -16.0938  -38.1502   -7.4810 O   0  0  0  0  0  0  0  0  0  0  0  0
  -17.2955  -40.0058   -8.2892 C   0  0  2  0  0  0  0  0  0  0  0  0
  -18.3027  -38.8549   -8.1799 C   0  0  0  0  0  0  0  0  0  0  0  0
  -19.7013  -39.3517   -7.8987 C   0  0  2  0  0  0  0  0  0  0  0  0
  -20.6348  -39.0660   -9.0688 C   0  0  0  0  0  0  0  0  0  0  0  0
  -20.2509  -38.7944   -6.6082 C   0  0  0  0  0  0  0  0  0  0  0  0
  -21.7438  -38.5730   -6.6580 C   0  0  0  0  0  0  0  0  0  0  0  0
  -22.4355  -39.1165   -5.4234 C   0  0  0  0  0  0  0  0  0  0  0  0
  -23.3330  -40.2894   -5.7412 C   0  0  0  0  0  0  0  0  0  0  0  0
  -22.6117  -41.4471   -6.3444 C   0  0  0  0  0  0  0  0  0  0  0  0
  -22.0771  -42.3816   -5.2875 C   0  0  0  0  0  0  0  0  0  0  0  0
  -21.4497  -43.5995   -5.8970 C   0  0  0  0  0  0  0  0  0  0  0  0
  -20.2055  -43.2011   -6.7019 C   0  0  0  0  0  0  0  0  0  0  0  0
  -19.4622  -44.4104   -7.1332 C   0  0  0  0  0  0  0  0  0  0  0  0
  -19.6834  -45.4755   -6.4561 O   0  0  0  0  0  0  0  0  0  0  0  0
  -18.5589  -44.4346   -8.2140 N   0  0  0  0  0  0  0  0  0  0  0  0
  -18.4465  -45.6320   -9.0110 C   0  0  0  0  0  0  0  0  0  0  0  0
  -18.3512  -45.1201  -10.4580 C   0  0  0  0  0  0  0  0  0  0  0  0
  -19.0561  -43.7728  -10.5673 C   0  0  0  0  0  0  0  0  0  0  0  0
  -18.2915  -42.6852   -9.7952 C   0  0  0  0  0  0  0  0  0  0  0  0
  -17.7225  -43.3167   -8.5824 C   0  0  1  0  0  0  0  0  0  0  0  0
  -17.4453  -42.4122   -7.4492 C   0  0  0  0  0  0  0  0  0  0  0  0
  -16.9460  -43.0189   -6.4314 O   0  0  0  0  0  0  0  0  0  0  0  0
  -17.6530  -41.0383   -7.3588 N   0  0  0  0  0  0  0  0  0  0  0  0
  -12.9418  -39.9126  -12.1542 C   0  0  0  0  0  0  0  0  0  0  0  0
  -12.9406  -39.3352  -13.4060 C   0  0  0  0  0  0  0  0  0  0  0  0
  -12.8081  -37.9766  -13.5173 C   0  0  0  0  0  0  0  0  0  0  0  0
  1  2  1  0
  2  3  1  0
  2  4  1  0
  4  5  2  0
  5  6  1  0
  6  7  1  0
  7  8  1  0
  8  9  1  0
  9 10  1  0
 10 11  1  6
 10 12  1  0
 12 13  1  1
 13 14  1  0
 14 15  1  6
 14 16  1  0
 16 17  1  0
 17 18  1  0
 18 19  1  0
 19 20  1  0
 20 21  1  0
 21 22  1  0
 22 23  1  0
 23 24  1  0
 24 25  2  0
 24 26  1  0
 26 27  1  0
 27 28  1  0
 28 29  1  0
 29 30  1  0
 31 30  1  6
 31 32  1  0
 32 33  2  0
 32 34  1  0
  6 35  2  0
 35 36  1  0
 36 37  2  0
 31 26  1  0
 34 12  1  0
 37  4  1  0
M  END
$$$$
