
     RDKit          3D

 41 44  0  0  0  0  0  0  0  0999 V2000
  -18.3626  -44.6929   -9.0745 C   0  0  0  0  0  0  0  0  0  0  0  0
  -17.6631  -45.0571  -10.3535 C   0  0  0  0  0  0  0  0  0  0  0  0
  -17.9885  -46.4691  -10.7971 C   0  0  0  0  0  0  0  0  0  0  0  0
  -16.1985  -44.8893  -10.1617 C   0  0  0  0  0  0  0  0  0  0  0  0
  -15.7261  -43.7531   -9.5445 C   0  0  0  0  0  0  0  0  0  0  0  0
  -14.3794  -43.6006   -9.3683 C   0  0  0  0  0  0  0  0  0  0  0  0
  -13.8884  -42.3868   -8.7113 C   0  0  0  0  0  0  0  0  0  0  0  0
  -14.9369  -41.6039   -8.1421 N   0  0  0  0  0  0  0  0  0  0  0  0
  -15.1965  -40.3505   -8.8052 C   0  0  0  0  0  0  0  0  0  0  0  0
  -16.4293  -39.6770   -8.2523 C   0  0  1  0  0  0  0  0  0  0  0  0
  -16.0665  -39.0232   -7.0894 O   0  0  0  0  0  0  0  0  0  0  0  0
  -17.1350  -38.8427   -9.2733 C   0  0  2  0  0  0  0  0  0  0  0  0
  -17.7249  -37.5632   -8.7458 C   0  0  0  0  0  0  0  0  0  0  0  0
  -19.2263  -37.6592   -8.6133 C   0  0  0  0  0  0  0  0  0  0  0  0
  -19.9746  -38.3095   -7.6765 C   0  0  0  0  0  0  0  0  0  0  0  0
  -21.3635  -38.2258   -7.7885 C   0  0  0  0  0  0  0  0  0  0  0  0
  -21.9406  -37.4831   -8.8502 C   0  0  0  0  0  0  0  0  0  0  0  0
  -21.2073  -36.8252   -9.7980 C   0  0  0  0  0  0  0  0  0  0  0  0
  -19.8487  -36.9297   -9.6559 C   0  0  0  0  0  0  0  0  0  0  0  0
  -22.3491  -38.7668   -7.0126 O   0  0  0  0  0  0  0  0  0  0  0  0
  -22.7011  -39.2364   -5.8037 C   0  0  0  0  0  0  0  0  0  0  0  0
  -22.5559  -40.7372   -5.6169 C   0  0  0  0  0  0  0  0  0  0  0  0
  -23.3330  -41.5179   -6.6265 C   0  0  0  0  0  0  0  0  0  0  0  0
  -22.8363  -42.9284   -6.8401 C   0  0  0  0  0  0  0  0  0  0  0  0
  -21.4153  -43.0723   -6.5921 N   0  0  0  0  0  0  0  0  0  0  0  0
  -21.1240  -43.5531   -5.2498 C   0  0  0  0  0  0  0  0  0  0  0  0
  -22.2075  -43.6601   -4.2637 C   0  0  0  0  0  0  0  0  0  0  0  0
  -19.9759  -43.8691   -4.9376 O   0  0  0  0  0  0  0  0  0  0  0  0
  -20.3218  -42.8300   -7.5081 C   0  0  0  0  0  0  0  0  0  0  0  0
  -20.0516  -41.8001   -8.3771 C   0  0  0  0  0  0  0  0  0  0  0  0
  -18.8863  -41.8915   -9.1106 C   0  0  0  0  0  0  0  0  0  0  0  0
  -18.0511  -43.0227   -8.9313 C   0  0  0  0  0  0  0  0  0  0  0  0
  -18.3293  -44.0471   -8.0600 C   0  0  0  0  0  0  0  0  0  0  0  0
  -17.4110  -45.2137   -7.9119 C   0  0  0  0  0  0  0  0  0  0  0  0
  -19.4503  -43.9087   -7.3855 N   0  0  0  0  0  0  0  0  0  0  0  0
  -18.2864  -40.9891  -10.1077 C   0  0  0  0  0  0  0  0  0  0  0  0
  -17.8849  -41.5387  -11.2495 O   0  0  0  0  0  0  0  0  0  0  0  0
  -18.0329  -39.6057  -10.1106 N   0  0  0  0  0  0  0  0  0  0  0  0
  -13.5366  -44.5462   -9.7918 N   0  0  0  0  0  0  0  0  0  0  0  0
  -13.9719  -45.6757  -10.4030 C   0  0  0  0  0  0  0  0  0  0  0  0
  -15.3234  -45.8612  -10.5965 C   0  0  0  0  0  0  0  0  0  0  0  0
  1  2  1  0
  2  3  1  0
  2  4  1  0
  4  5  2  0
  5  6  1  0
  6  7  1  0
  7  8  1  0
  8  9  1  0
  9 10  1  0
 10 11  1  1
 10 12  1  0
 12 13  1  1
 13 14  1  0
 14 15  2  0
 15 16  1  0
 16 17  2  0
 17 18  1  0
 18 19  2  0
 16 20  1  0
 20 21  1  0
 21 22  1  0
 22 23  1  0
 23 24  1  0
 24 25  1  0
 25 26  1  0
 26 27  1  0
 26 28  2  0
 25 29  1  0
 29 30  2  0
 30 31  1  0
 31 32  2  0
 32 33  1  0
 33 34  1  0
 33 35  2  0
 31 36  1  0
 36 37  2  0
 36 38  1  0
  6 39  2  0
 39 40  1  0
 40 41  2  0
 19 14  1  0
 35 29  1  0
 38 12  1  0
 41  4  1  0
M  END
$$$$
