
     RDKit          3D

 41 44  0  0  0  0  0  0  0  0999 V2000
  -12.4317  -34.9997  -11.2509 C   0  0  0  0  0  0  0  0  0  0  0  0
  -12.0668  -36.4069  -11.6306 C   0  0  0  0  0  0  0  0  0  0  0  0
  -11.0024  -36.4469  -12.7085 C   0  0  0  0  0  0  0  0  0  0  0  0
  -13.2953  -37.1154  -12.0765 C   0  0  0  0  0  0  0  0  0  0  0  0
  -13.6921  -38.2560  -11.4158 C   0  0  0  0  0  0  0  0  0  0  0  0
  -14.8221  -38.9058  -11.8266 C   0  0  0  0  0  0  0  0  0  0  0  0
  -15.2338  -40.1193  -11.1165 C   0  0  0  0  0  0  0  0  0  0  0  0
  -14.7395  -40.1714   -9.7790 N   0  0  0  0  0  0  0  0  0  0  0  0
  -15.2382  -39.1437   -8.8996 C   0  0  0  0  0  0  0  0  0  0  0  0
  -16.6018  -39.4951   -8.3553 C   0  0  1  0  0  0  0  0  0  0  0  0
  -16.4978  -39.5770   -6.9792 O   0  0  0  0  0  0  0  0  0  0  0  0
  -17.6769  -38.5936   -8.8729 C   0  0  2  0  0  0  0  0  0  0  0  0
  -18.2836  -37.6783   -7.8445 C   0  0  0  0  0  0  0  0  0  0  0  0
  -19.6592  -38.1448   -7.4311 C   0  0  0  0  0  0  0  0  0  0  0  0
  -20.0160  -39.1809   -6.6189 C   0  0  0  0  0  0  0  0  0  0  0  0
  -21.3786  -39.3866   -6.3964 C   0  0  0  0  0  0  0  0  0  0  0  0
  -22.3290  -38.5301   -7.0088 C   0  0  0  0  0  0  0  0  0  0  0  0
  -21.9906  -37.4873   -7.8255 C   0  0  0  0  0  0  0  0  0  0  0  0
  -20.6454  -37.3163   -8.0205 C   0  0  0  0  0  0  0  0  0  0  0  0
  -22.0213  -40.3299   -5.6458 O   0  0  0  0  0  0  0  0  0  0  0  0
  -21.9540  -41.1826   -4.6094 C   0  0  0  0  0  0  0  0  0  0  0  0
  -21.5407  -42.6029   -4.9563 C   0  0  0  0  0  0  0  0  0  0  0  0
  -22.4393  -43.2288   -5.9729 C   0  0  0  0  0  0  0  0  0  0  0  0
  -21.8154  -44.3744   -6.7346 C   0  0  0  0  0  0  0  0  0  0  0  0
  -20.3760  -44.2553   -6.8584 N   0  0  0  0  0  0  0  0  0  0  0  0
  -19.6593  -45.0096   -5.8410 C   0  0  0  0  0  0  0  0  0  0  0  0
  -20.3929  -45.5704   -4.6985 C   0  0  0  0  0  0  0  0  0  0  0  0
  -18.4434  -45.1787   -5.9329 O   0  0  0  0  0  0  0  0  0  0  0  0
  -19.6247  -43.5278   -7.8581 C   0  0  0  0  0  0  0  0  0  0  0  0
  -19.7602  -42.2643   -8.3819 C   0  0  0  0  0  0  0  0  0  0  0  0
  -18.8407  -41.8827   -9.3375 C   0  0  0  0  0  0  0  0  0  0  0  0
  -17.8292  -42.7993   -9.7195 C   0  0  0  0  0  0  0  0  0  0  0  0
  -17.7015  -44.0601   -9.1901 C   0  0  0  0  0  0  0  0  0  0  0  0
  -16.6144  -44.9824   -9.6302 C   0  0  0  0  0  0  0  0  0  0  0  0
  -18.6021  -44.3715   -8.2831 N   0  0  0  0  0  0  0  0  0  0  0  0
  -18.6791  -40.6281  -10.0915 C   0  0  0  0  0  0  0  0  0  0  0  0
  -18.5288  -40.7345  -11.4080 O   0  0  0  0  0  0  0  0  0  0  0  0
  -18.6456  -39.2779   -9.6991 N   0  0  0  0  0  0  0  0  0  0  0  0
  -15.5290  -38.4349  -12.8573 N   0  0  0  0  0  0  0  0  0  0  0  0
  -15.1633  -37.3143  -13.5276 C   0  0  0  0  0  0  0  0  0  0  0  0
  -14.0293  -36.6348  -13.1395 C   0  0  0  0  0  0  0  0  0  0  0  0
  1  2  1  0
  2  3  1  0
  2  4  1  0
  4  5  2  0
  5  6  1  0
  6  7  1  0
  7  8  1  0
  8  9  1  0
  9 10  1  0
 10 11  1  1
 10 12  1  0
 12 13  1  1
 13 14  1  0
 14 15  2  0
 15 16  1  0
 16 17  2  0
 17 18  1  0
 18 19  2  0
 16 20  1  0
 20 21  1  0
 21 22  1  0
 22 23  1  0
 23 24  1  0
 24 25  1  0
 25 26  1  0
 26 27  1  0
 26 28  2  0
 25 29  1  0
 29 30  2  0
 30 31  1  0
 31 32  2  0
 32 33  1  0
 33 34  1  0
 33 35  2  0
 31 36  1  0
 36 37  2  0
 36 38  1  0
  6 39  2  0
 39 40  1  0
 40 41  2  0
 19 14  1  0
 35 29  1  0
 38 12  1  0
 41  4  1  0
M  END
$$$$
