
     RDKit          3D

 41 44  0  0  0  0  0  0  0  0999 V2000
  -22.5567  -41.2516   -3.3584 C   0  0  0  0  0  0  0  0  0  0  0  0
  -21.0863  -41.0361   -3.1364 C   0  0  0  0  0  0  0  0  0  0  0  0
  -20.7808  -40.6280   -1.7093 C   0  0  0  0  0  0  0  0  0  0  0  0
  -20.6045  -40.0059   -4.0938 C   0  0  0  0  0  0  0  0  0  0  0  0
  -19.2519  -39.7824   -4.2180 C   0  0  0  0  0  0  0  0  0  0  0  0
  -18.8104  -38.8354   -5.0991 C   0  0  0  0  0  0  0  0  0  0  0  0
  -17.3688  -38.6056   -5.2218 C   0  0  0  0  0  0  0  0  0  0  0  0
  -16.7503  -39.4712   -6.1729 N   0  0  0  0  0  0  0  0  0  0  0  0
  -16.5832  -38.9144   -7.4921 C   0  0  0  0  0  0  0  0  0  0  0  0
  -17.6578  -39.3968   -8.4364 C   0  0  1  0  0  0  0  0  0  0  0  0
  -18.8336  -38.7512   -8.1015 O   0  0  0  0  0  0  0  0  0  0  0  0
  -17.2484  -39.2978   -9.8713 C   0  0  2  0  0  0  0  0  0  0  0  0
  -18.0174  -38.2887  -10.6798 C   0  0  0  0  0  0  0  0  0  0  0  0
  -19.0124  -38.9576  -11.5982 C   0  0  0  0  0  0  0  0  0  0  0  0
  -20.2130  -39.5342  -11.3039 C   0  0  0  0  0  0  0  0  0  0  0  0
  -20.9436  -40.0788  -12.3613 C   0  0  0  0  0  0  0  0  0  0  0  0
  -20.4258  -40.0168  -13.6803 C   0  0  0  0  0  0  0  0  0  0  0  0
  -19.2252  -39.4434  -13.9944 C   0  0  0  0  0  0  0  0  0  0  0  0
  -18.5367  -38.9200  -12.9319 C   0  0  0  0  0  0  0  0  0  0  0  0
  -22.1544  -40.7115  -12.3684 O   0  0  0  0  0  0  0  0  0  0  0  0
  -23.3393  -40.8834  -11.7583 C   0  0  0  0  0  0  0  0  0  0  0  0
  -23.4101  -42.0452  -10.7817 C   0  0  0  0  0  0  0  0  0  0  0  0
  -23.0586  -43.3505  -11.4182 C   0  0  0  0  0  0  0  0  0  0  0  0
  -22.5984  -44.4128  -10.4477 C   0  0  0  0  0  0  0  0  0  0  0  0
  -21.9586  -43.8638   -9.2683 N   0  0  0  0  0  0  0  0  0  0  0  0
  -22.8708  -43.7346   -8.1418 C   0  0  0  0  0  0  0  0  0  0  0  0
  -24.3039  -43.9955   -8.3317 C   0  0  0  0  0  0  0  0  0  0  0  0
  -22.4477  -43.4075   -7.0330 O   0  0  0  0  0  0  0  0  0  0  0  0
  -20.5725  -43.4845   -9.1015 C   0  0  0  0  0  0  0  0  0  0  0  0
  -19.7077  -42.7630   -9.8893 C   0  0  0  0  0  0  0  0  0  0  0  0
  -18.4275  -42.5816   -9.4072 C   0  0  0  0  0  0  0  0  0  0  0  0
  -18.0827  -43.1415   -8.1514 C   0  0  0  0  0  0  0  0  0  0  0  0
  -18.9540  -43.8610   -7.3709 C   0  0  0  0  0  0  0  0  0  0  0  0
  -18.5351  -44.4262   -6.0551 C   0  0  0  0  0  0  0  0  0  0  0  0
  -20.1603  -44.0021   -7.8767 N   0  0  0  0  0  0  0  0  0  0  0  0
  -17.2650  -41.8707   -9.9656 C   0  0  0  0  0  0  0  0  0  0  0  0
  -16.1090  -42.5269   -9.9764 O   0  0  0  0  0  0  0  0  0  0  0  0
  -17.1072  -40.5850  -10.5136 N   0  0  0  0  0  0  0  0  0  0  0  0
  -19.6857  -38.1385   -5.8284 N   0  0  0  0  0  0  0  0  0  0  0  0
  -21.0235  -38.3360   -5.7280 C   0  0  0  0  0  0  0  0  0  0  0  0
  -21.5024  -39.2831   -4.8493 C   0  0  0  0  0  0  0  0  0  0  0  0
  1  2  1  0
  2  3  1  0
  2  4  1  0
  4  5  2  0
  5  6  1  0
  6  7  1  0
  7  8  1  0
  8  9  1  0
  9 10  1  0
 10 11  1  6
 10 12  1  0
 12 13  1  6
 13 14  1  0
 14 15  2  0
 15 16  1  0
 16 17  2  0
 17 18  1  0
 18 19  2  0
 16 20  1  0
 20 21  1  0
 21 22  1  0
 22 23  1  0
 23 24  1  0
 24 25  1  0
 25 26  1  0
 26 27  1  0
 26 28  2  0
 25 29  1  0
 29 30  2  0
 30 31  1  0
 31 32  2  0
 32 33  1  0
 33 34  1  0
 33 35  2  0
 31 36  1  0
 36 37  2  0
 36 38  1  0
  6 39  2  0
 39 40  1  0
 40 41  2  0
 19 14  1  0
 35 29  1  0
 38 12  1  0
 41  4  1  0
M  END
$$$$
