
     RDKit          3D

 41 44  0  0  0  0  0  0  0  0999 V2000
  -16.6880  -43.4215  -11.4242 C   0  0  0  0  0  0  0  0  0  0  0  0
  -15.9753  -42.8952  -12.6378 C   0  0  0  0  0  0  0  0  0  0  0  0
  -15.2191  -43.9853  -13.3701 C   0  0  0  0  0  0  0  0  0  0  0  0
  -15.0545  -41.8067  -12.2166 C   0  0  0  0  0  0  0  0  0  0  0  0
  -14.6336  -41.7499  -10.9072 C   0  0  0  0  0  0  0  0  0  0  0  0
  -13.7866  -40.7489  -10.5217 C   0  0  0  0  0  0  0  0  0  0  0  0
  -13.3464  -40.6980   -9.1253 C   0  0  0  0  0  0  0  0  0  0  0  0
  -14.4320  -40.7596   -8.2012 N   0  0  0  0  0  0  0  0  0  0  0  0
  -15.0107  -39.4873   -7.8482 C   0  0  0  0  0  0  0  0  0  0  0  0
  -16.4861  -39.6132   -7.5539 C   0  0  1  0  0  0  0  0  0  0  0  0
  -16.6420  -39.6270   -6.1803 O   0  0  0  0  0  0  0  0  0  0  0  0
  -17.3071  -38.6034   -8.2907 C   0  0  2  0  0  0  0  0  0  0  0  0
  -18.0211  -37.6094   -7.4157 C   0  0  0  0  0  0  0  0  0  0  0  0
  -19.4984  -37.9103   -7.3277 C   0  0  0  0  0  0  0  0  0  0  0  0
  -20.1446  -38.8865   -6.6277 C   0  0  0  0  0  0  0  0  0  0  0  0
  -21.5367  -38.9327   -6.7200 C   0  0  0  0  0  0  0  0  0  0  0  0
  -22.2208  -37.9833   -7.5216 C   0  0  0  0  0  0  0  0  0  0  0  0
  -21.5906  -36.9984   -8.2299 C   0  0  0  0  0  0  0  0  0  0  0  0
  -20.2256  -36.9843   -8.1152 C   0  0  0  0  0  0  0  0  0  0  0  0
  -22.4350  -39.7852   -6.1435 O   0  0  0  0  0  0  0  0  0  0  0  0
  -22.7003  -40.6240   -5.1277 C   0  0  0  0  0  0  0  0  0  0  0  0
  -22.3845  -42.0872   -5.3877 C   0  0  0  0  0  0  0  0  0  0  0  0
  -23.0968  -42.6225   -6.5871 C   0  0  0  0  0  0  0  0  0  0  0  0
  -22.4525  -43.8432   -7.2010 C   0  0  0  0  0  0  0  0  0  0  0  0
  -21.0181  -43.8903   -6.9961 N   0  0  0  0  0  0  0  0  0  0  0  0
  -20.6396  -44.7053   -5.8515 C   0  0  0  0  0  0  0  0  0  0  0  0
  -21.6599  -45.1063   -4.8738 C   0  0  0  0  0  0  0  0  0  0  0  0
  -19.4702  -45.0588   -5.6989 O   0  0  0  0  0  0  0  0  0  0  0  0
  -19.9832  -43.2683   -7.7932 C   0  0  0  0  0  0  0  0  0  0  0  0
  -19.8523  -42.0058   -8.3206 C   0  0  0  0  0  0  0  0  0  0  0  0
  -18.7041  -41.7458   -9.0404 C   0  0  0  0  0  0  0  0  0  0  0  0
  -17.7440  -42.7772   -9.1945 C   0  0  0  0  0  0  0  0  0  0  0  0
  -17.8834  -44.0360   -8.6635 C   0  0  0  0  0  0  0  0  0  0  0  0
  -16.8376  -45.0825   -8.8572 C   0  0  0  0  0  0  0  0  0  0  0  0
  -18.9944  -44.2291   -7.9859 N   0  0  0  0  0  0  0  0  0  0  0  0
  -18.2350  -40.5295   -9.7252 C   0  0  0  0  0  0  0  0  0  0  0  0
  -17.8056  -40.6726  -10.9751 O   0  0  0  0  0  0  0  0  0  0  0  0
  -18.1367  -39.1860   -9.3210 N   0  0  0  0  0  0  0  0  0  0  0  0
  -13.3753  -39.8398  -11.4094 N   0  0  0  0  0  0  0  0  0  0  0  0
  -13.7726  -39.8697  -12.7056 C   0  0  0  0  0  0  0  0  0  0  0  0
  -14.6263  -40.8653  -13.1276 C   0  0  0  0  0  0  0  0  0  0  0  0
  1  2  1  0
  2  3  1  0
  2  4  1  0
  4  5  2  0
  5  6  1  0
  6  7  1  0
  7  8  1  0
  8  9  1  0
  9 10  1  0
 10 11  1  1
 10 12  1  0
 12 13  1  1
 13 14  1  0
 14 15  2  0
 15 16  1  0
 16 17  2  0
 17 18  1  0
 18 19  2  0
 16 20  1  0
 20 21  1  0
 21 22  1  0
 22 23  1  0
 23 24  1  0
 24 25  1  0
 25 26  1  0
 26 27  1  0
 26 28  2  0
 25 29  1  0
 29 30  2  0
 30 31  1  0
 31 32  2  0
 32 33  1  0
 33 34  1  0
 33 35  2  0
 31 36  1  0
 36 37  2  0
 36 38  1  0
  6 39  2  0
 39 40  1  0
 40 41  2  0
 19 14  1  0
 35 29  1  0
 38 12  1  0
 41  4  1  0
M  END
$$$$
