
     RDKit          3D

 41 44  0  0  0  0  0  0  0  0999 V2000
  -18.0367  -35.6772  -12.6283 C   0  0  0  0  0  0  0  0  0  0  0  0
  -17.2231  -36.4595  -13.6202 C   0  0  0  0  0  0  0  0  0  0  0  0
  -16.7358  -35.5937  -14.7645 C   0  0  0  0  0  0  0  0  0  0  0  0
  -18.0454  -37.5894  -14.1274 C   0  0  0  0  0  0  0  0  0  0  0  0
  -19.1360  -38.0084  -13.3993 C   0  0  0  0  0  0  0  0  0  0  0  0
  -19.8913  -39.0469  -13.8673 C   0  0  0  0  0  0  0  0  0  0  0  0
  -21.0489  -39.4847  -13.0833 C   0  0  0  0  0  0  0  0  0  0  0  0
  -20.7351  -39.7003  -11.7081 N   0  0  0  0  0  0  0  0  0  0  0  0
  -21.6720  -39.1361  -10.7688 C   0  0  0  0  0  0  0  0  0  0  0  0
  -21.1275  -39.1622   -9.3610 C   0  0  1  0  0  0  0  0  0  0  0  0
  -20.5175  -37.9446   -9.1226 O   0  0  0  0  0  0  0  0  0  0  0  0
  -22.1523  -39.5830   -8.3564 C   0  0  2  0  0  0  0  0  0  0  0  0
  -22.1337  -38.8031   -7.0699 C   0  0  0  0  0  0  0  0  0  0  0  0
  -21.5249  -39.6059   -5.9448 C   0  0  0  0  0  0  0  0  0  0  0  0
  -20.2165  -39.9051   -5.7019 C   0  0  0  0  0  0  0  0  0  0  0  0
  -19.9288  -40.6685   -4.5692 C   0  0  0  0  0  0  0  0  0  0  0  0
  -20.9834  -41.0997   -3.7245 C   0  0  0  0  0  0  0  0  0  0  0  0
  -22.3000  -40.8099   -3.9516 C   0  0  0  0  0  0  0  0  0  0  0  0
  -22.5438  -40.0596   -5.0717 C   0  0  0  0  0  0  0  0  0  0  0  0
  -18.7333  -41.1164   -4.0830 O   0  0  0  0  0  0  0  0  0  0  0  0
  -17.4032  -40.9358   -4.0216 C   0  0  0  0  0  0  0  0  0  0  0  0
  -16.5905  -41.7019   -5.0517 C   0  0  0  0  0  0  0  0  0  0  0  0
  -16.8295  -43.1755   -4.9891 C   0  0  0  0  0  0  0  0  0  0  0  0
  -16.4979  -43.9151   -6.2638 C   0  0  0  0  0  0  0  0  0  0  0  0
  -16.6542  -43.0971   -7.4505 N   0  0  0  0  0  0  0  0  0  0  0  0
  -15.4024  -42.5004   -7.8916 C   0  0  0  0  0  0  0  0  0  0  0  0
  -14.2452  -42.4835   -6.9869 C   0  0  0  0  0  0  0  0  0  0  0  0
  -15.3094  -42.0101   -9.0170 O   0  0  0  0  0  0  0  0  0  0  0  0
  -17.8590  -42.8568   -8.2147 C   0  0  0  0  0  0  0  0  0  0  0  0
  -19.1440  -42.5399   -7.8441 C   0  0  0  0  0  0  0  0  0  0  0  0
  -20.0629  -42.3704   -8.8595 C   0  0  0  0  0  0  0  0  0  0  0  0
  -19.6378  -42.5324  -10.2021 C   0  0  0  0  0  0  0  0  0  0  0  0
  -18.3511  -42.8489  -10.5628 C   0  0  0  0  0  0  0  0  0  0  0  0
  -17.9605  -43.0054  -11.9943 C   0  0  0  0  0  0  0  0  0  0  0  0
  -17.5165  -42.9972   -9.5567 N   0  0  0  0  0  0  0  0  0  0  0  0
  -21.4944  -42.0258   -8.8340 C   0  0  0  0  0  0  0  0  0  0  0  0
  -22.3075  -42.7865   -9.5602 O   0  0  0  0  0  0  0  0  0  0  0  0
  -22.2199  -41.0157   -8.1774 N   0  0  0  0  0  0  0  0  0  0  0  0
  -19.5703  -39.6440  -15.0180 N   0  0  0  0  0  0  0  0  0  0  0  0
  -18.5024  -39.2539  -15.7569 C   0  0  0  0  0  0  0  0  0  0  0  0
  -17.7196  -38.2101  -15.3140 C   0  0  0  0  0  0  0  0  0  0  0  0
  1  2  1  0
  2  3  1  0
  2  4  1  0
  4  5  2  0
  5  6  1  0
  6  7  1  0
  7  8  1  0
  8  9  1  0
  9 10  1  0
 10 11  1  1
 10 12  1  0
 12 13  1  1
 13 14  1  0
 14 15  2  0
 15 16  1  0
 16 17  2  0
 17 18  1  0
 18 19  2  0
 16 20  1  0
 20 21  1  0
 21 22  1  0
 22 23  1  0
 23 24  1  0
 24 25  1  0
 25 26  1  0
 26 27  1  0
 26 28  2  0
 25 29  1  0
 29 30  2  0
 30 31  1  0
 31 32  2  0
 32 33  1  0
 33 34  1  0
 33 35  2  0
 31 36  1  0
 36 37  2  0
 36 38  1  0
  6 39  2  0
 39 40  1  0
 40 41  2  0
 19 14  1  0
 35 29  1  0
 38 12  1  0
 41  4  1  0
M  END
$$$$
