
     RDKit          3D

 41 44  0  0  0  0  0  0  0  0999 V2000
  -14.2443  -34.5999  -12.0499 C   0  0  0  0  0  0  0  0  0  0  0  0
  -15.5836  -35.1729  -11.6815 C   0  0  0  0  0  0  0  0  0  0  0  0
  -16.2210  -34.4298  -10.5248 C   0  0  0  0  0  0  0  0  0  0  0  0
  -15.4135  -36.6128  -11.3532 C   0  0  0  0  0  0  0  0  0  0  0  0
  -15.0088  -36.9715  -10.0873 C   0  0  0  0  0  0  0  0  0  0  0  0
  -14.8535  -38.2957   -9.7869 C   0  0  0  0  0  0  0  0  0  0  0  0
  -14.4213  -38.6652   -8.4368 C   0  0  0  0  0  0  0  0  0  0  0  0
  -14.2864  -40.0756   -8.2665 N   0  0  0  0  0  0  0  0  0  0  0  0
  -15.5171  -40.8230   -8.3371 C   0  0  0  0  0  0  0  0  0  0  0  0
  -16.5873  -40.2102   -7.4663 C   0  0  1  0  0  0  0  0  0  0  0  0
  -15.9889  -39.7995   -6.2896 O   0  0  0  0  0  0  0  0  0  0  0  0
  -17.3876  -39.1713   -8.1850 C   0  0  2  0  0  0  0  0  0  0  0  0
  -18.0002  -38.1207   -7.2993 C   0  0  0  0  0  0  0  0  0  0  0  0
  -19.4855  -38.3360   -7.1311 C   0  0  0  0  0  0  0  0  0  0  0  0
  -20.1482  -39.2594   -6.3771 C   0  0  0  0  0  0  0  0  0  0  0  0
  -21.5436  -39.2290   -6.3991 C   0  0  0  0  0  0  0  0  0  0  0  0
  -22.2141  -38.2595   -7.1879 C   0  0  0  0  0  0  0  0  0  0  0  0
  -21.5674  -37.3265   -7.9496 C   0  0  0  0  0  0  0  0  0  0  0  0
  -20.1995  -37.3870   -7.9032 C   0  0  0  0  0  0  0  0  0  0  0  0
  -22.4572  -40.0174   -5.7588 O   0  0  0  0  0  0  0  0  0  0  0  0
  -22.7164  -40.8186   -4.7116 C   0  0  0  0  0  0  0  0  0  0  0  0
  -22.4955  -42.3024   -4.9524 C   0  0  0  0  0  0  0  0  0  0  0  0
  -23.2964  -42.8215   -6.1020 C   0  0  0  0  0  0  0  0  0  0  0  0
  -22.7525  -44.0890   -6.7181 C   0  0  0  0  0  0  0  0  0  0  0  0
  -21.3144  -44.2126   -6.5836 N   0  0  0  0  0  0  0  0  0  0  0  0
  -20.9237  -45.0237   -5.4403 C   0  0  0  0  0  0  0  0  0  0  0  0
  -21.8764  -45.2436   -4.3440 C   0  0  0  0  0  0  0  0  0  0  0  0
  -19.8004  -45.5247   -5.3876 O   0  0  0  0  0  0  0  0  0  0  0  0
  -20.2886  -43.6666   -7.4455 C   0  0  0  0  0  0  0  0  0  0  0  0
  -20.1152  -42.4248   -8.0083 C   0  0  0  0  0  0  0  0  0  0  0  0
  -18.9925  -42.2449   -8.7902 C   0  0  0  0  0  0  0  0  0  0  0  0
  -18.0998  -43.3317   -8.9674 C   0  0  0  0  0  0  0  0  0  0  0  0
  -18.2814  -44.5693   -8.4005 C   0  0  0  0  0  0  0  0  0  0  0  0
  -17.3062  -45.6769   -8.6212 C   0  0  0  0  0  0  0  0  0  0  0  0
  -19.3654  -44.6854   -7.6643 N   0  0  0  0  0  0  0  0  0  0  0  0
  -18.4923  -41.0714   -9.5259 C   0  0  0  0  0  0  0  0  0  0  0  0
  -18.1355  -41.2644  -10.7919 O   0  0  0  0  0  0  0  0  0  0  0  0
  -18.2996  -39.7275   -9.1589 N   0  0  0  0  0  0  0  0  0  0  0  0
  -15.0932  -39.2261  -10.7146 N   0  0  0  0  0  0  0  0  0  0  0  0
  -15.4927  -38.9037  -11.9696 C   0  0  0  0  0  0  0  0  0  0  0  0
  -15.6590  -37.5779  -12.3059 C   0  0  0  0  0  0  0  0  0  0  0  0
  1  2  1  0
  2  3  1  0
  2  4  1  0
  4  5  2  0
  5  6  1  0
  6  7  1  0
  7  8  1  0
  8  9  1  0
  9 10  1  0
 10 11  1  1
 10 12  1  0
 12 13  1  1
 13 14  1  0
 14 15  2  0
 15 16  1  0
 16 17  2  0
 17 18  1  0
 18 19  2  0
 16 20  1  0
 20 21  1  0
 21 22  1  0
 22 23  1  0
 23 24  1  0
 24 25  1  0
 25 26  1  0
 26 27  1  0
 26 28  2  0
 25 29  1  0
 29 30  2  0
 30 31  1  0
 31 32  2  0
 32 33  1  0
 33 34  1  0
 33 35  2  0
 31 36  1  0
 36 37  2  0
 36 38  1  0
  6 39  2  0
 39 40  1  0
 40 41  2  0
 19 14  1  0
 35 29  1  0
 38 12  1  0
 41  4  1  0
M  END
$$$$
