
     RDKit          3D

 41 44  0  0  0  0  0  0  0  0999 V2000
  -12.7497  -35.0201  -12.5611 C   0  0  0  0  0  0  0  0  0  0  0  0
  -14.2134  -34.9819  -12.2238 C   0  0  0  0  0  0  0  0  0  0  0  0
  -14.4974  -34.1010  -11.0239 C   0  0  0  0  0  0  0  0  0  0  0  0
  -14.6843  -36.3710  -11.9811 C   0  0  0  0  0  0  0  0  0  0  0  0
  -13.9449  -37.2001  -11.1682 C   0  0  0  0  0  0  0  0  0  0  0  0
  -14.3795  -38.4767  -10.9455 C   0  0  0  0  0  0  0  0  0  0  0  0
  -13.5838  -39.3502  -10.0795 C   0  0  0  0  0  0  0  0  0  0  0  0
  -14.0749  -39.3968   -8.7405 N   0  0  0  0  0  0  0  0  0  0  0  0
  -15.0031  -40.4645   -8.4638 C   0  0  0  0  0  0  0  0  0  0  0  0
  -16.2400  -39.9549   -7.7641 C   0  0  1  0  0  0  0  0  0  0  0  0
  -15.8709  -39.5574   -6.4925 O   0  0  0  0  0  0  0  0  0  0  0  0
  -16.9800  -38.9381   -8.5734 C   0  0  2  0  0  0  0  0  0  0  0  0
  -17.5449  -37.7899   -7.7821 C   0  0  0  0  0  0  0  0  0  0  0  0
  -19.0406  -37.9155   -7.6153 C   0  0  0  0  0  0  0  0  0  0  0  0
  -19.7560  -38.7405   -6.7980 C   0  0  0  0  0  0  0  0  0  0  0  0
  -21.1477  -38.6414   -6.8394 C   0  0  0  0  0  0  0  0  0  0  0  0
  -21.7611  -37.7058   -7.7113 C   0  0  0  0  0  0  0  0  0  0  0  0
  -21.0611  -36.8712   -8.5373 C   0  0  0  0  0  0  0  0  0  0  0  0
  -19.6986  -36.9969   -8.4695 C   0  0  0  0  0  0  0  0  0  0  0  0
  -22.1058  -39.3284   -6.1492 O   0  0  0  0  0  0  0  0  0  0  0  0
  -22.4143  -40.0285   -5.0445 C   0  0  0  0  0  0  0  0  0  0  0  0
  -22.2681  -41.5362   -5.1631 C   0  0  0  0  0  0  0  0  0  0  0  0
  -23.0853  -42.1050   -6.2772 C   0  0  0  0  0  0  0  0  0  0  0  0
  -22.6023  -43.4439   -6.7832 C   0  0  0  0  0  0  0  0  0  0  0  0
  -21.1736  -43.6289   -6.6218 N   0  0  0  0  0  0  0  0  0  0  0  0
  -20.8344  -44.3640   -5.4126 C   0  0  0  0  0  0  0  0  0  0  0  0
  -21.7508  -44.3401   -4.2647 C   0  0  0  0  0  0  0  0  0  0  0  0
  -19.7847  -45.0039   -5.3472 O   0  0  0  0  0  0  0  0  0  0  0  0
  -20.1142  -43.2066   -7.5120 C   0  0  0  0  0  0  0  0  0  0  0  0
  -19.8726  -42.0245   -8.1703 C   0  0  0  0  0  0  0  0  0  0  0  0
  -18.7358  -41.9653   -8.9503 C   0  0  0  0  0  0  0  0  0  0  0  0
  -17.8988  -43.1066   -9.0290 C   0  0  0  0  0  0  0  0  0  0  0  0
  -18.1484  -44.2838   -8.3672 C   0  0  0  0  0  0  0  0  0  0  0  0
  -17.2297  -45.4534   -8.4867 C   0  0  0  0  0  0  0  0  0  0  0  0
  -19.2429  -44.2852   -7.6373 N   0  0  0  0  0  0  0  0  0  0  0  0
  -18.1700  -40.8816   -9.7714 C   0  0  0  0  0  0  0  0  0  0  0  0
  -17.8134  -41.1938  -11.0133 O   0  0  0  0  0  0  0  0  0  0  0  0
  -17.9114  -39.5240   -9.5107 N   0  0  0  0  0  0  0  0  0  0  0  0
  -15.5090  -38.9088  -11.5124 N   0  0  0  0  0  0  0  0  0  0  0  0
  -16.2583  -38.1157  -12.3176 C   0  0  0  0  0  0  0  0  0  0  0  0
  -15.8489  -36.8232  -12.5631 C   0  0  0  0  0  0  0  0  0  0  0  0
  1  2  1  0
  2  3  1  0
  2  4  1  0
  4  5  2  0
  5  6  1  0
  6  7  1  0
  7  8  1  0
  8  9  1  0
  9 10  1  0
 10 11  1  1
 10 12  1  0
 12 13  1  1
 13 14  1  0
 14 15  2  0
 15 16  1  0
 16 17  2  0
 17 18  1  0
 18 19  2  0
 16 20  1  0
 20 21  1  0
 21 22  1  0
 22 23  1  0
 23 24  1  0
 24 25  1  0
 25 26  1  0
 26 27  1  0
 26 28  2  0
 25 29  1  0
 29 30  2  0
 30 31  1  0
 31 32  2  0
 32 33  1  0
 33 34  1  0
 33 35  2  0
 31 36  1  0
 36 37  2  0
 36 38  1  0
  6 39  2  0
 39 40  1  0
 40 41  2  0
 19 14  1  0
 35 29  1  0
 38 12  1  0
 41  4  1  0
M  END
$$$$
