
     RDKit          3D

 41 44  0  0  0  0  0  0  0  0999 V2000
  -14.5664  -34.1692  -12.3929 C   0  0  0  0  0  0  0  0  0  0  0  0
  -15.2743  -34.8066  -11.2309 C   0  0  0  0  0  0  0  0  0  0  0  0
  -15.1483  -33.9811   -9.9664 C   0  0  0  0  0  0  0  0  0  0  0  0
  -14.7230  -36.1720  -11.0260 C   0  0  0  0  0  0  0  0  0  0  0  0
  -15.5836  -37.2122  -10.7569 C   0  0  0  0  0  0  0  0  0  0  0  0
  -15.0753  -38.4669  -10.5695 C   0  0  0  0  0  0  0  0  0  0  0  0
  -16.0007  -39.5657  -10.2825 C   0  0  0  0  0  0  0  0  0  0  0  0
  -15.3372  -40.7384   -9.8125 N   0  0  0  0  0  0  0  0  0  0  0  0
  -15.4278  -40.9676   -8.3922 C   0  0  0  0  0  0  0  0  0  0  0  0
  -16.5684  -40.1920   -7.7783 C   0  0  1  0  0  0  0  0  0  0  0  0
  -16.1013  -39.6038   -6.6177 O   0  0  0  0  0  0  0  0  0  0  0  0
  -17.2271  -39.2700   -8.7542 C   0  0  2  0  0  0  0  0  0  0  0  0
  -17.7822  -38.0067   -8.1545 C   0  0  0  0  0  0  0  0  0  0  0  0
  -19.2880  -38.0581   -8.0516 C   0  0  0  0  0  0  0  0  0  0  0  0
  -20.0745  -38.7400   -7.1701 C   0  0  0  0  0  0  0  0  0  0  0  0
  -21.4575  -38.6005   -7.2978 C   0  0  0  0  0  0  0  0  0  0  0  0
  -21.9901  -37.7718   -8.3182 C   0  0  0  0  0  0  0  0  0  0  0  0
  -21.2182  -37.0809   -9.2103 C   0  0  0  0  0  0  0  0  0  0  0  0
  -19.8667  -37.2421   -9.0545 C   0  0  0  0  0  0  0  0  0  0  0  0
  -22.4744  -39.1549   -6.5735 O   0  0  0  0  0  0  0  0  0  0  0  0
  -22.8635  -39.6879   -5.4029 C   0  0  0  0  0  0  0  0  0  0  0  0
  -22.7729  -41.2018   -5.3109 C   0  0  0  0  0  0  0  0  0  0  0  0
  -23.5584  -41.8886   -6.3804 C   0  0  0  0  0  0  0  0  0  0  0  0
  -23.1065  -43.2993   -6.6766 C   0  0  0  0  0  0  0  0  0  0  0  0
  -21.6958  -43.5087   -6.4167 N   0  0  0  0  0  0  0  0  0  0  0  0
  -21.4447  -44.0841   -5.1038 C   0  0  0  0  0  0  0  0  0  0  0  0
  -22.4392  -43.9208   -4.0351 C   0  0  0  0  0  0  0  0  0  0  0  0
  -20.4044  -44.7050   -4.8852 O   0  0  0  0  0  0  0  0  0  0  0  0
  -20.5788  -43.2471   -7.2983 C   0  0  0  0  0  0  0  0  0  0  0  0
  -20.2583  -42.1740   -8.0950 C   0  0  0  0  0  0  0  0  0  0  0  0
  -19.0842  -42.2594   -8.8149 C   0  0  0  0  0  0  0  0  0  0  0  0
  -18.2913  -43.4284   -8.6960 C   0  0  0  0  0  0  0  0  0  0  0  0
  -18.6196  -44.4959   -7.8968 C   0  0  0  0  0  0  0  0  0  0  0  0
  -17.7444  -45.7012   -7.8100 C   0  0  0  0  0  0  0  0  0  0  0  0
  -19.7469  -44.3614   -7.2320 N   0  0  0  0  0  0  0  0  0  0  0  0
  -18.4364  -41.3169   -9.7425 C   0  0  0  0  0  0  0  0  0  0  0  0
  -18.0338  -41.8064  -10.9110 O   0  0  0  0  0  0  0  0  0  0  0  0
  -18.1357  -39.9459   -9.6525 N   0  0  0  0  0  0  0  0  0  0  0  0
  -13.7584  -38.6753  -10.6480 N   0  0  0  0  0  0  0  0  0  0  0  0
  -12.8861  -37.6710  -10.9114 C   0  0  0  0  0  0  0  0  0  0  0  0
  -13.3651  -36.3938  -11.1056 C   0  0  0  0  0  0  0  0  0  0  0  0
  1  2  1  0
  2  3  1  0
  2  4  1  0
  4  5  2  0
  5  6  1  0
  6  7  1  0
  7  8  1  0
  8  9  1  0
  9 10  1  0
 10 11  1  1
 10 12  1  0
 12 13  1  1
 13 14  1  0
 14 15  2  0
 15 16  1  0
 16 17  2  0
 17 18  1  0
 18 19  2  0
 16 20  1  0
 20 21  1  0
 21 22  1  0
 22 23  1  0
 23 24  1  0
 24 25  1  0
 25 26  1  0
 26 27  1  0
 26 28  2  0
 25 29  1  0
 29 30  2  0
 30 31  1  0
 31 32  2  0
 32 33  1  0
 33 34  1  0
 33 35  2  0
 31 36  1  0
 36 37  2  0
 36 38  1  0
  6 39  2  0
 39 40  1  0
 40 41  2  0
 19 14  1  0
 35 29  1  0
 38 12  1  0
 41  4  1  0
M  END
$$$$
