
     RDKit          3D

 41 44  0  0  0  0  0  0  0  0999 V2000
  -14.1144  -35.4298  -13.3668 C   0  0  0  0  0  0  0  0  0  0  0  0
  -14.1110  -35.5909  -11.8728 C   0  0  0  0  0  0  0  0  0  0  0  0
  -13.1998  -34.5875  -11.1951 C   0  0  0  0  0  0  0  0  0  0  0  0
  -13.7016  -36.9814  -11.5430 C   0  0  0  0  0  0  0  0  0  0  0  0
  -14.6683  -37.9156  -11.2467 C   0  0  0  0  0  0  0  0  0  0  0  0
  -14.2903  -39.1937  -10.9444 C   0  0  0  0  0  0  0  0  0  0  0  0
  -15.3278  -40.1789  -10.6296 C   0  0  0  0  0  0  0  0  0  0  0  0
  -14.9274  -41.0977   -9.6139 N   0  0  0  0  0  0  0  0  0  0  0  0
  -14.9948  -40.5906   -8.2661 C   0  0  0  0  0  0  0  0  0  0  0  0
  -16.4089  -40.2277   -7.8816 C   0  0  1  0  0  0  0  0  0  0  0  0
  -16.4009  -39.8544   -6.5505 O   0  0  0  0  0  0  0  0  0  0  0  0
  -17.0279  -39.2483   -8.8271 C   0  0  2  0  0  0  0  0  0  0  0  0
  -17.5931  -38.0141   -8.1784 C   0  0  0  0  0  0  0  0  0  0  0  0
  -19.1019  -38.0569   -8.1277 C   0  0  0  0  0  0  0  0  0  0  0  0
  -19.9223  -38.7781   -7.3108 C   0  0  0  0  0  0  0  0  0  0  0  0
  -21.2992  -38.6192   -7.4760 C   0  0  0  0  0  0  0  0  0  0  0  0
  -21.7914  -37.7316   -8.4669 C   0  0  0  0  0  0  0  0  0  0  0  0
  -20.9852  -37.0009   -9.2944 C   0  0  0  0  0  0  0  0  0  0  0  0
  -19.6408  -37.1828   -9.1033 C   0  0  0  0  0  0  0  0  0  0  0  0
  -22.3438  -39.2024   -6.8166 O   0  0  0  0  0  0  0  0  0  0  0  0
  -22.7755  -39.7941   -5.6900 C   0  0  0  0  0  0  0  0  0  0  0  0
  -22.6994  -41.3116   -5.6773 C   0  0  0  0  0  0  0  0  0  0  0  0
  -23.4540  -41.9323   -6.8077 C   0  0  0  0  0  0  0  0  0  0  0  0
  -23.0030  -43.3291   -7.1650 C   0  0  0  0  0  0  0  0  0  0  0  0
  -21.6034  -43.5653   -6.8707 N   0  0  0  0  0  0  0  0  0  0  0  0
  -21.4004  -44.2130   -5.5835 C   0  0  0  0  0  0  0  0  0  0  0  0
  -22.5498  -44.4566   -4.7017 C   0  0  0  0  0  0  0  0  0  0  0  0
  -20.2720  -44.5562   -5.2306 O   0  0  0  0  0  0  0  0  0  0  0  0
  -20.4558  -43.2668   -7.6997 C   0  0  0  0  0  0  0  0  0  0  0  0
  -20.1010  -42.1554   -8.4262 C   0  0  0  0  0  0  0  0  0  0  0  0
  -18.9043  -42.2127   -9.1107 C   0  0  0  0  0  0  0  0  0  0  0  0
  -18.1245  -43.3937   -9.0295 C   0  0  0  0  0  0  0  0  0  0  0  0
  -18.4872  -44.4997   -8.3005 C   0  0  0  0  0  0  0  0  0  0  0  0
  -17.6245  -45.7160   -8.2507 C   0  0  0  0  0  0  0  0  0  0  0  0
  -19.6349  -44.3908   -7.6668 N   0  0  0  0  0  0  0  0  0  0  0  0
  -18.2189  -41.2275   -9.9642 C   0  0  0  0  0  0  0  0  0  0  0  0
  -17.7815  -41.6570  -11.1437 O   0  0  0  0  0  0  0  0  0  0  0  0
  -17.9112  -39.8662   -9.7901 N   0  0  0  0  0  0  0  0  0  0  0  0
  -12.9968  -39.5266  -10.9383 N   0  0  0  0  0  0  0  0  0  0  0  0
  -12.0222  -38.6287  -11.2257 C   0  0  0  0  0  0  0  0  0  0  0  0
  -12.3686  -37.3314  -11.5348 C   0  0  0  0  0  0  0  0  0  0  0  0
  1  2  1  0
  2  3  1  0
  2  4  1  0
  4  5  2  0
  5  6  1  0
  6  7  1  0
  7  8  1  0
  8  9  1  0
  9 10  1  0
 10 11  1  1
 10 12  1  0
 12 13  1  1
 13 14  1  0
 14 15  2  0
 15 16  1  0
 16 17  2  0
 17 18  1  0
 18 19  2  0
 16 20  1  0
 20 21  1  0
 21 22  1  0
 22 23  1  0
 23 24  1  0
 24 25  1  0
 25 26  1  0
 26 27  1  0
 26 28  2  0
 25 29  1  0
 29 30  2  0
 30 31  1  0
 31 32  2  0
 32 33  1  0
 33 34  1  0
 33 35  2  0
 31 36  1  0
 36 37  2  0
 36 38  1  0
  6 39  2  0
 39 40  1  0
 40 41  2  0
 19 14  1  0
 35 29  1  0
 38 12  1  0
 41  4  1  0
M  END
$$$$
