
     RDKit          3D

 41 44  0  0  0  0  0  0  0  0999 V2000
  -14.1765  -35.4411  -15.0326 C   0  0  0  0  0  0  0  0  0  0  0  0
  -15.3014  -35.3711  -14.0389 C   0  0  0  0  0  0  0  0  0  0  0  0
  -16.1584  -34.1371  -14.2365 C   0  0  0  0  0  0  0  0  0  0  0  0
  -14.7295  -35.4015  -12.6669 C   0  0  0  0  0  0  0  0  0  0  0  0
  -14.7391  -36.5823  -11.9595 C   0  0  0  0  0  0  0  0  0  0  0  0
  -14.2124  -36.6087  -10.6986 C   0  0  0  0  0  0  0  0  0  0  0  0
  -14.2291  -37.8708   -9.9550 C   0  0  0  0  0  0  0  0  0  0  0  0
  -14.7630  -38.9535  -10.7160 N   0  0  0  0  0  0  0  0  0  0  0  0
  -16.1919  -38.9253  -10.9050 C   0  0  0  0  0  0  0  0  0  0  0  0
  -16.8945  -39.8625   -9.9525 C   0  0  1  0  0  0  0  0  0  0  0  0
  -18.1698  -40.0802  -10.4398 O   0  0  0  0  0  0  0  0  0  0  0  0
  -16.0929  -41.0904   -9.6588 C   0  0  2  0  0  0  0  0  0  0  0  0
  -16.3280  -42.2391  -10.6015 C   0  0  0  0  0  0  0  0  0  0  0  0
  -17.1653  -43.3196   -9.9593 C   0  0  0  0  0  0  0  0  0  0  0  0
  -18.5054  -43.3431   -9.7062 C   0  0  0  0  0  0  0  0  0  0  0  0
  -19.0277  -44.4876   -9.1013 C   0  0  0  0  0  0  0  0  0  0  0  0
  -18.1669  -45.5669   -8.7758 C   0  0  0  0  0  0  0  0  0  0  0  0
  -16.8221  -45.5615   -9.0217 C   0  0  0  0  0  0  0  0  0  0  0  0
  -16.3457  -44.4226   -9.6157 C   0  0  0  0  0  0  0  0  0  0  0  0
  -20.3079  -44.7886   -8.7318 O   0  0  0  0  0  0  0  0  0  0  0  0
  -21.6188  -44.5700   -8.9306 C   0  0  0  0  0  0  0  0  0  0  0  0
  -22.2475  -43.5095   -8.0426 C   0  0  0  0  0  0  0  0  0  0  0  0
  -22.0746  -43.8045   -6.5880 C   0  0  0  0  0  0  0  0  0  0  0  0
  -22.1841  -42.5948   -5.6899 C   0  0  0  0  0  0  0  0  0  0  0  0
  -21.7787  -41.3657   -6.3429 N   0  0  0  0  0  0  0  0  0  0  0  0
  -22.9036  -40.6200   -6.8873 C   0  0  0  0  0  0  0  0  0  0  0  0
  -24.1172  -41.3347   -7.3047 C   0  0  0  0  0  0  0  0  0  0  0  0
  -22.8425  -39.3956   -6.9999 O   0  0  0  0  0  0  0  0  0  0  0  0
  -20.4437  -40.8225   -6.4700 C   0  0  0  0  0  0  0  0  0  0  0  0
  -19.2420  -41.3892   -6.8216 C   0  0  0  0  0  0  0  0  0  0  0  0
  -18.1425  -40.5557   -6.8478 C   0  0  0  0  0  0  0  0  0  0  0  0
  -18.3114  -39.1884   -6.5141 C   0  0  0  0  0  0  0  0  0  0  0  0
  -19.5166  -38.6309   -6.1641 C   0  0  0  0  0  0  0  0  0  0  0  0
  -19.6346  -37.1830   -5.8237 C   0  0  0  0  0  0  0  0  0  0  0  0
  -20.5309  -39.4687   -6.1569 N   0  0  0  0  0  0  0  0  0  0  0  0
  -16.7308  -40.8112   -7.1801 C   0  0  0  0  0  0  0  0  0  0  0  0
  -15.8213  -40.3577   -6.3233 O   0  0  0  0  0  0  0  0  0  0  0  0
  -16.1088  -41.4604   -8.2616 N   0  0  0  0  0  0  0  0  0  0  0  0
  -13.6958  -35.4989  -10.1645 N   0  0  0  0  0  0  0  0  0  0  0  0
  -13.6723  -34.3214  -10.8366 C   0  0  0  0  0  0  0  0  0  0  0  0
  -14.1951  -34.2597  -12.1099 C   0  0  0  0  0  0  0  0  0  0  0  0
  1  2  1  0
  2  3  1  0
  2  4  1  0
  4  5  2  0
  5  6  1  0
  6  7  1  0
  7  8  1  0
  8  9  1  0
  9 10  1  0
 10 11  1  6
 10 12  1  0
 12 13  1  6
 13 14  1  0
 14 15  2  0
 15 16  1  0
 16 17  2  0
 17 18  1  0
 18 19  2  0
 16 20  1  0
 20 21  1  0
 21 22  1  0
 22 23  1  0
 23 24  1  0
 24 25  1  0
 25 26  1  0
 26 27  1  0
 26 28  2  0
 25 29  1  0
 29 30  2  0
 30 31  1  0
 31 32  2  0
 32 33  1  0
 33 34  1  0
 33 35  2  0
 31 36  1  0
 36 37  2  0
 36 38  1  0
  6 39  2  0
 39 40  1  0
 40 41  2  0
 19 14  1  0
 35 29  1  0
 38 12  1  0
 41  4  1  0
M  END
$$$$
