
     RDKit          3D

 41 44  0  0  0  0  0  0  0  0999 V2000
  -12.6629  -34.4744  -11.5282 C   0  0  0  0  0  0  0  0  0  0  0  0
  -14.1234  -34.6052  -11.2001 C   0  0  0  0  0  0  0  0  0  0  0  0
  -14.4340  -34.1361   -9.7930 C   0  0  0  0  0  0  0  0  0  0  0  0
  -14.5295  -36.0233  -11.3847 C   0  0  0  0  0  0  0  0  0  0  0  0
  -13.9255  -37.0007  -10.6265 C   0  0  0  0  0  0  0  0  0  0  0  0
  -14.3004  -38.3039  -10.7968 C   0  0  0  0  0  0  0  0  0  0  0  0
  -13.6499  -39.3355   -9.9851 C   0  0  0  0  0  0  0  0  0  0  0  0
  -14.5833  -40.1787   -9.3115 N   0  0  0  0  0  0  0  0  0  0  0  0
  -14.8656  -39.8142   -7.9456 C   0  0  0  0  0  0  0  0  0  0  0  0
  -16.3441  -39.8842   -7.6486 C   0  0  1  0  0  0  0  0  0  0  0  0
  -16.5039  -39.7825   -6.2791 O   0  0  0  0  0  0  0  0  0  0  0  0
  -17.1412  -38.9207   -8.4688 C   0  0  2  0  0  0  0  0  0  0  0  0
  -17.8640  -37.8644   -7.6781 C   0  0  0  0  0  0  0  0  0  0  0  0
  -19.3455  -38.1479   -7.6007 C   0  0  0  0  0  0  0  0  0  0  0  0
  -20.0142  -39.0696   -6.8499 C   0  0  0  0  0  0  0  0  0  0  0  0
  -21.4044  -39.1117   -6.9678 C   0  0  0  0  0  0  0  0  0  0  0  0
  -22.0639  -38.2139   -7.8458 C   0  0  0  0  0  0  0  0  0  0  0  0
  -21.4109  -37.2839   -8.6058 C   0  0  0  0  0  0  0  0  0  0  0  0
  -20.0484  -37.2721   -8.4640 C   0  0  0  0  0  0  0  0  0  0  0  0
  -22.3217  -39.9165   -6.3537 O   0  0  0  0  0  0  0  0  0  0  0  0
  -22.6148  -40.6825   -5.2893 C   0  0  0  0  0  0  0  0  0  0  0  0
  -22.3065  -42.1624   -5.4431 C   0  0  0  0  0  0  0  0  0  0  0  0
  -22.9991  -42.7725   -6.6181 C   0  0  0  0  0  0  0  0  0  0  0  0
  -22.3531  -44.0367   -7.1345 C   0  0  0  0  0  0  0  0  0  0  0  0
  -20.9237  -44.0803   -6.8971 N   0  0  0  0  0  0  0  0  0  0  0  0
  -20.5755  -44.8186   -5.6924 C   0  0  0  0  0  0  0  0  0  0  0  0
  -21.5881  -45.0293   -4.6493 C   0  0  0  0  0  0  0  0  0  0  0  0
  -19.4382  -45.2658   -5.5436 O   0  0  0  0  0  0  0  0  0  0  0  0
  -19.8675  -43.5213   -7.7128 C   0  0  0  0  0  0  0  0  0  0  0  0
  -19.7149  -42.2986   -8.3215 C   0  0  0  0  0  0  0  0  0  0  0  0
  -18.5502  -42.0964   -9.0332 C   0  0  0  0  0  0  0  0  0  0  0  0
  -17.5961  -43.1429   -9.0972 C   0  0  0  0  0  0  0  0  0  0  0  0
  -17.7572  -44.3617   -8.4852 C   0  0  0  0  0  0  0  0  0  0  0  0
  -16.7170  -45.4265   -8.5860 C   0  0  0  0  0  0  0  0  0  0  0  0
  -18.8834  -44.5003   -7.8194 N   0  0  0  0  0  0  0  0  0  0  0  0
  -18.0566  -40.9327   -9.7888 C   0  0  0  0  0  0  0  0  0  0  0  0
  -17.6033  -41.1634  -11.0170 O   0  0  0  0  0  0  0  0  0  0  0  0
  -17.9549  -39.5657   -9.4745 N   0  0  0  0  0  0  0  0  0  0  0  0
  -15.2423  -38.6192  -11.6897 N   0  0  0  0  0  0  0  0  0  0  0  0
  -15.8549  -37.6789  -12.4508 C   0  0  0  0  0  0  0  0  0  0  0  0
  -15.5007  -36.3555  -12.3044 C   0  0  0  0  0  0  0  0  0  0  0  0
  1  2  1  0
  2  3  1  0
  2  4  1  0
  4  5  2  0
  5  6  1  0
  6  7  1  0
  7  8  1  0
  8  9  1  0
  9 10  1  0
 10 11  1  1
 10 12  1  0
 12 13  1  1
 13 14  1  0
 14 15  2  0
 15 16  1  0
 16 17  2  0
 17 18  1  0
 18 19  2  0
 16 20  1  0
 20 21  1  0
 21 22  1  0
 22 23  1  0
 23 24  1  0
 24 25  1  0
 25 26  1  0
 26 27  1  0
 26 28  2  0
 25 29  1  0
 29 30  2  0
 30 31  1  0
 31 32  2  0
 32 33  1  0
 33 34  1  0
 33 35  2  0
 31 36  1  0
 36 37  2  0
 36 38  1  0
  6 39  2  0
 39 40  1  0
 40 41  2  0
 19 14  1  0
 35 29  1  0
 38 12  1  0
 41  4  1  0
M  END
$$$$
