
     RDKit          3D

 41 44  0  0  0  0  0  0  0  0999 V2000
  -14.1102  -47.0371  -11.8900 C   0  0  0  0  0  0  0  0  0  0  0  0
  -14.8699  -46.1519  -10.9429 C   0  0  0  0  0  0  0  0  0  0  0  0
  -16.1550  -45.6336  -11.5564 C   0  0  0  0  0  0  0  0  0  0  0  0
  -13.9906  -45.0259  -10.5318 C   0  0  0  0  0  0  0  0  0  0  0  0
  -14.2860  -44.3252   -9.3844 C   0  0  0  0  0  0  0  0  0  0  0  0
  -13.4763  -43.2907   -9.0074 C   0  0  0  0  0  0  0  0  0  0  0  0
  -13.8014  -42.5516   -7.7851 C   0  0  0  0  0  0  0  0  0  0  0  0
  -15.2061  -42.3870   -7.5960 N   0  0  0  0  0  0  0  0  0  0  0  0
  -15.8472  -41.4801   -8.5151 C   0  0  0  0  0  0  0  0  0  0  0  0
  -16.6656  -40.4412   -7.7869 C   0  0  1  0  0  0  0  0  0  0  0  0
  -15.8985  -39.9556   -6.7443 O   0  0  0  0  0  0  0  0  0  0  0  0
  -17.2368  -39.4107   -8.7079 C   0  0  2  0  0  0  0  0  0  0  0  0
  -17.5962  -38.1057   -8.0512 C   0  0  0  0  0  0  0  0  0  0  0  0
  -19.0903  -37.9640   -7.8825 C   0  0  0  0  0  0  0  0  0  0  0  0
  -19.9229  -38.5656   -6.9851 C   0  0  0  0  0  0  0  0  0  0  0  0
  -21.2796  -38.2434   -7.0473 C   0  0  0  0  0  0  0  0  0  0  0  0
  -21.7400  -37.3202   -8.0208 C   0  0  0  0  0  0  0  0  0  0  0  0
  -20.9211  -36.7076   -8.9280 C   0  0  0  0  0  0  0  0  0  0  0  0
  -19.5972  -37.0482   -8.8369 C   0  0  0  0  0  0  0  0  0  0  0  0
  -22.3302  -38.6835   -6.2931 O   0  0  0  0  0  0  0  0  0  0  0  0
  -22.7378  -39.1984   -5.1207 C   0  0  0  0  0  0  0  0  0  0  0  0
  -22.8432  -40.7134   -5.0726 C   0  0  0  0  0  0  0  0  0  0  0  0
  -23.7550  -41.2577   -6.1237 C   0  0  0  0  0  0  0  0  0  0  0  0
  -23.5047  -42.7050   -6.4767 C   0  0  0  0  0  0  0  0  0  0  0  0
  -22.1243  -43.1043   -6.2856 N   0  0  0  0  0  0  0  0  0  0  0  0
  -21.8977  -43.7490   -5.0008 C   0  0  0  0  0  0  0  0  0  0  0  0
  -22.9213  -43.6600   -3.9509 C   0  0  0  0  0  0  0  0  0  0  0  0
  -20.8538  -44.3667   -4.7901 O   0  0  0  0  0  0  0  0  0  0  0  0
  -21.0196  -42.9623   -7.2089 C   0  0  0  0  0  0  0  0  0  0  0  0
  -20.5937  -41.9152   -7.9907 C   0  0  0  0  0  0  0  0  0  0  0  0
  -19.4713  -42.1297   -8.7642 C   0  0  0  0  0  0  0  0  0  0  0  0
  -18.8346  -43.3951   -8.7115 C   0  0  0  0  0  0  0  0  0  0  0  0
  -19.2675  -44.4357   -7.9268 C   0  0  0  0  0  0  0  0  0  0  0  0
  -18.5554  -45.7468   -7.9109 C   0  0  0  0  0  0  0  0  0  0  0  0
  -20.3392  -44.1769   -7.2091 N   0  0  0  0  0  0  0  0  0  0  0  0
  -18.7437  -41.2503   -9.6948 C   0  0  0  0  0  0  0  0  0  0  0  0
  -18.4569  -41.7506  -10.8925 O   0  0  0  0  0  0  0  0  0  0  0  0
  -18.2621  -39.9337   -9.5823 N   0  0  0  0  0  0  0  0  0  0  0  0
  -12.4122  -42.9684   -9.7475 N   0  0  0  0  0  0  0  0  0  0  0  0
  -12.0958  -43.6398  -10.8823 C   0  0  0  0  0  0  0  0  0  0  0  0
  -12.8910  -44.6880  -11.2910 C   0  0  0  0  0  0  0  0  0  0  0  0
  1  2  1  0
  2  3  1  0
  2  4  1  0
  4  5  2  0
  5  6  1  0
  6  7  1  0
  7  8  1  0
  8  9  1  0
  9 10  1  0
 10 11  1  1
 10 12  1  0
 12 13  1  1
 13 14  1  0
 14 15  2  0
 15 16  1  0
 16 17  2  0
 17 18  1  0
 18 19  2  0
 16 20  1  0
 20 21  1  0
 21 22  1  0
 22 23  1  0
 23 24  1  0
 24 25  1  0
 25 26  1  0
 26 27  1  0
 26 28  2  0
 25 29  1  0
 29 30  2  0
 30 31  1  0
 31 32  2  0
 32 33  1  0
 33 34  1  0
 33 35  2  0
 31 36  1  0
 36 37  2  0
 36 38  1  0
  6 39  2  0
 39 40  1  0
 40 41  2  0
 19 14  1  0
 35 29  1  0
 38 12  1  0
 41  4  1  0
M  END
$$$$
