
     RDKit          3D

 41 44  0  0  0  0  0  0  0  0999 V2000
  -13.0904  -35.3621  -11.4653 C   0  0  0  0  0  0  0  0  0  0  0  0
  -11.9716  -36.2048  -10.9215 C   0  0  0  0  0  0  0  0  0  0  0  0
  -10.6205  -35.7635  -11.4471 C   0  0  0  0  0  0  0  0  0  0  0  0
  -12.2328  -37.6269  -11.2674 C   0  0  0  0  0  0  0  0  0  0  0  0
  -12.7795  -38.4611  -10.3186 C   0  0  0  0  0  0  0  0  0  0  0  0
  -13.0196  -39.7680  -10.6384 C   0  0  0  0  0  0  0  0  0  0  0  0
  -13.6007  -40.6466   -9.6202 C   0  0  0  0  0  0  0  0  0  0  0  0
  -14.5061  -39.9645   -8.7535 N   0  0  0  0  0  0  0  0  0  0  0  0
  -15.8865  -39.9845   -9.1689 C   0  0  0  0  0  0  0  0  0  0  0  0
  -16.7924  -39.4110   -8.1060 C   0  0  1  0  0  0  0  0  0  0  0  0
  -15.9919  -38.8917   -7.1056 O   0  0  0  0  0  0  0  0  0  0  0  0
  -17.8178  -38.4784   -8.6673 C   0  0  2  0  0  0  0  0  0  0  0  0
  -18.4358  -37.5414   -7.6655 C   0  0  0  0  0  0  0  0  0  0  0  0
  -19.8404  -37.9640   -7.3056 C   0  0  0  0  0  0  0  0  0  0  0  0
  -20.2607  -38.9858   -6.5058 C   0  0  0  0  0  0  0  0  0  0  0  0
  -21.6367  -39.1486   -6.3367 C   0  0  0  0  0  0  0  0  0  0  0  0
  -22.5353  -38.2652   -6.9878 C   0  0  0  0  0  0  0  0  0  0  0  0
  -22.1329  -37.2360   -7.7926 C   0  0  0  0  0  0  0  0  0  0  0  0
  -20.7765  -37.1073   -7.9350 C   0  0  0  0  0  0  0  0  0  0  0  0
  -22.3373  -40.0692   -5.6101 O   0  0  0  0  0  0  0  0  0  0  0  0
  -22.3371  -40.9202   -4.5701 C   0  0  0  0  0  0  0  0  0  0  0  0
  -21.9548  -42.3537   -4.8976 C   0  0  0  0  0  0  0  0  0  0  0  0
  -22.8318  -42.9548   -5.9474 C   0  0  0  0  0  0  0  0  0  0  0  0
  -22.2143  -44.1216   -6.6817 C   0  0  0  0  0  0  0  0  0  0  0  0
  -20.7681  -44.0474   -6.7490 N   0  0  0  0  0  0  0  0  0  0  0  0
  -20.1157  -44.8202   -5.7027 C   0  0  0  0  0  0  0  0  0  0  0  0
  -20.9221  -45.4268   -4.6352 C   0  0  0  0  0  0  0  0  0  0  0  0
  -18.8933  -44.9668   -5.7078 O   0  0  0  0  0  0  0  0  0  0  0  0
  -19.9560  -43.3467   -7.7199 C   0  0  0  0  0  0  0  0  0  0  0  0
  -20.0316  -42.0814   -8.2512 C   0  0  0  0  0  0  0  0  0  0  0  0
  -19.0640  -41.7315   -9.1707 C   0  0  0  0  0  0  0  0  0  0  0  0
  -18.0671  -42.6801   -9.5107 C   0  0  0  0  0  0  0  0  0  0  0  0
  -17.9995  -43.9425   -8.9742 C   0  0  0  0  0  0  0  0  0  0  0  0
  -16.9250  -44.8994   -9.3693 C   0  0  0  0  0  0  0  0  0  0  0  0
  -18.9441  -44.2230   -8.1026 N   0  0  0  0  0  0  0  0  0  0  0  0
  -18.8341  -40.4849   -9.9202 C   0  0  0  0  0  0  0  0  0  0  0  0
  -18.6356  -40.6002  -11.2296 O   0  0  0  0  0  0  0  0  0  0  0  0
  -18.7741  -39.1352   -9.5296 N   0  0  0  0  0  0  0  0  0  0  0  0
  -12.7254  -40.2246  -11.8586 N   0  0  0  0  0  0  0  0  0  0  0  0
  -12.1862  -39.4273  -12.8137 C   0  0  0  0  0  0  0  0  0  0  0  0
  -11.9314  -38.1044  -12.5246 C   0  0  0  0  0  0  0  0  0  0  0  0
  1  2  1  0
  2  3  1  0
  2  4  1  0
  4  5  2  0
  5  6  1  0
  6  7  1  0
  7  8  1  0
  8  9  1  0
  9 10  1  0
 10 11  1  1
 10 12  1  0
 12 13  1  1
 13 14  1  0
 14 15  2  0
 15 16  1  0
 16 17  2  0
 17 18  1  0
 18 19  2  0
 16 20  1  0
 20 21  1  0
 21 22  1  0
 22 23  1  0
 23 24  1  0
 24 25  1  0
 25 26  1  0
 26 27  1  0
 26 28  2  0
 25 29  1  0
 29 30  2  0
 30 31  1  0
 31 32  2  0
 32 33  1  0
 33 34  1  0
 33 35  2  0
 31 36  1  0
 36 37  2  0
 36 38  1  0
  6 39  2  0
 39 40  1  0
 40 41  2  0
 19 14  1  0
 35 29  1  0
 38 12  1  0
 41  4  1  0
M  END
$$$$
