
     RDKit          3D

 41 44  0  0  0  0  0  0  0  0999 V2000
  -14.7699  -34.8079  -10.2506 C   0  0  0  0  0  0  0  0  0  0  0  0
  -14.2142  -35.4291  -11.5007 C   0  0  0  0  0  0  0  0  0  0  0  0
  -15.3091  -35.8865  -12.4433 C   0  0  0  0  0  0  0  0  0  0  0  0
  -13.3373  -36.5675  -11.1196 C   0  0  0  0  0  0  0  0  0  0  0  0
  -13.8887  -37.8190  -10.9630 C   0  0  0  0  0  0  0  0  0  0  0  0
  -13.0811  -38.8647  -10.6132 C   0  0  0  0  0  0  0  0  0  0  0  0
  -13.6794  -40.1918  -10.4483 C   0  0  0  0  0  0  0  0  0  0  0  0
  -14.9419  -40.1500   -9.7845 N   0  0  0  0  0  0  0  0  0  0  0  0
  -14.8832  -40.2438   -8.3472 C   0  0  0  0  0  0  0  0  0  0  0  0
  -16.2048  -39.8798   -7.7146 C   0  0  1  0  0  0  0  0  0  0  0  0
  -15.9476  -39.4211   -6.4360 O   0  0  0  0  0  0  0  0  0  0  0  0
  -17.0244  -38.9739   -8.5771 C   0  0  2  0  0  0  0  0  0  0  0  0
  -17.7279  -37.8662   -7.8410 C   0  0  0  0  0  0  0  0  0  0  0  0
  -19.2063  -38.1433   -7.7058 C   0  0  0  0  0  0  0  0  0  0  0  0
  -19.8538  -39.0117   -6.8770 C   0  0  0  0  0  0  0  0  0  0  0  0
  -21.2466  -39.0613   -6.9553 C   0  0  0  0  0  0  0  0  0  0  0  0
  -21.9302  -38.2248   -7.8745 C   0  0  0  0  0  0  0  0  0  0  0  0
  -21.2987  -37.3487   -8.7127 C   0  0  0  0  0  0  0  0  0  0  0  0
  -19.9329  -37.3277   -8.6077 C   0  0  0  0  0  0  0  0  0  0  0  0
  -22.1463  -39.8224   -6.2643 O   0  0  0  0  0  0  0  0  0  0  0  0
  -22.4104  -40.5144   -5.1431 C   0  0  0  0  0  0  0  0  0  0  0  0
  -22.1041  -42.0013   -5.2043 C   0  0  0  0  0  0  0  0  0  0  0  0
  -22.8263  -42.6895   -6.3167 C   0  0  0  0  0  0  0  0  0  0  0  0
  -22.1922  -43.9859   -6.7630 C   0  0  0  0  0  0  0  0  0  0  0  0
  -20.7570  -44.0138   -6.5608 N   0  0  0  0  0  0  0  0  0  0  0  0
  -20.3764  -44.6689   -5.3183 C   0  0  0  0  0  0  0  0  0  0  0  0
  -21.3651  -44.8206   -4.2426 C   0  0  0  0  0  0  0  0  0  0  0  0
  -19.2316  -45.0949   -5.1650 O   0  0  0  0  0  0  0  0  0  0  0  0
  -19.7234  -43.5118   -7.4398 C   0  0  0  0  0  0  0  0  0  0  0  0
  -19.5885  -42.3331   -8.1338 C   0  0  0  0  0  0  0  0  0  0  0  0
  -18.4431  -42.1800   -8.8879 C   0  0  0  0  0  0  0  0  0  0  0  0
  -17.4895  -43.2288   -8.9058 C   0  0  0  0  0  0  0  0  0  0  0  0
  -17.6328  -44.4033   -8.2087 C   0  0  0  0  0  0  0  0  0  0  0  0
  -16.5940  -45.4728   -8.2643 C   0  0  0  0  0  0  0  0  0  0  0  0
  -18.7409  -44.4960   -7.5057 N   0  0  0  0  0  0  0  0  0  0  0  0
  -17.9712  -41.0704   -9.7333 C   0  0  0  0  0  0  0  0  0  0  0  0
  -17.5498  -41.3839  -10.9544 O   0  0  0  0  0  0  0  0  0  0  0  0
  -17.8632  -39.6853   -9.5150 N   0  0  0  0  0  0  0  0  0  0  0  0
  -11.7732  -38.6685  -10.4272 N   0  0  0  0  0  0  0  0  0  0  0  0
  -11.2014  -37.4478  -10.5739 C   0  0  0  0  0  0  0  0  0  0  0  0
  -11.9868  -36.3719  -10.9260 C   0  0  0  0  0  0  0  0  0  0  0  0
  1  2  1  0
  2  3  1  0
  2  4  1  0
  4  5  2  0
  5  6  1  0
  6  7  1  0
  7  8  1  0
  8  9  1  0
  9 10  1  0
 10 11  1  1
 10 12  1  0
 12 13  1  1
 13 14  1  0
 14 15  2  0
 15 16  1  0
 16 17  2  0
 17 18  1  0
 18 19  2  0
 16 20  1  0
 20 21  1  0
 21 22  1  0
 22 23  1  0
 23 24  1  0
 24 25  1  0
 25 26  1  0
 26 27  1  0
 26 28  2  0
 25 29  1  0
 29 30  2  0
 30 31  1  0
 31 32  2  0
 32 33  1  0
 33 34  1  0
 33 35  2  0
 31 36  1  0
 36 37  2  0
 36 38  1  0
  6 39  2  0
 39 40  1  0
 40 41  2  0
 19 14  1  0
 35 29  1  0
 38 12  1  0
 41  4  1  0
M  END
$$$$
