
     RDKit          3D

 40 43  0  0  0  0  0  0  0  0999 V2000
  -19.7630  -43.2808  -13.4588 C   0  0  0  0  0  0  0  0  0  0  0  0
  -19.5066  -44.1504  -12.4175 O   0  0  0  0  0  0  0  0  0  0  0  0
  -18.1875  -44.5146  -12.4167 C   0  0  0  0  0  0  0  0  0  0  0  0
  -17.2576  -43.4320  -11.9954 C   0  0  0  0  0  0  0  0  0  0  0  0
  -16.0965  -43.1514  -12.6599 C   0  0  0  0  0  0  0  0  0  0  0  0
  -15.2118  -42.1024  -12.2713 C   0  0  0  0  0  0  0  0  0  0  0  0
  -15.5415  -41.3303  -11.1728 C   0  0  0  0  0  0  0  0  0  0  0  0
  -16.6955  -41.5665  -10.4722 C   0  0  0  0  0  0  0  0  0  0  0  0
  -17.5264  -42.6354  -10.9216 C   0  0  0  0  0  0  0  0  0  0  0  0
  -17.3172  -40.9067   -9.3210 C   0  0  0  0  0  0  0  0  0  0  0  0
  -17.8886  -41.7202   -8.4174 O   0  0  0  0  0  0  0  0  0  0  0  0
  -17.4833  -39.5778   -8.8969 N   0  0  0  0  0  0  0  0  0  0  0  0
  -16.4353  -38.6060   -8.5311 C   0  0  1  0  0  0  0  0  0  0  0  0
  -16.6242  -37.2869   -9.2706 C   0  0  0  0  0  0  0  0  0  0  0  0
  -15.6909  -37.0630  -10.4086 C   0  0  0  0  0  0  0  0  0  0  0  0
  -15.5228  -37.8101  -11.5428 C   0  0  0  0  0  0  0  0  0  0  0  0
  -14.5082  -37.4283  -12.3964 C   0  0  0  0  0  0  0  0  0  0  0  0
  -13.6931  -36.3316  -12.1404 C   0  0  0  0  0  0  0  0  0  0  0  0
  -13.8388  -35.5546  -11.0128 C   0  0  0  0  0  0  0  0  0  0  0  0
  -14.8472  -35.9540  -10.1718 C   0  0  0  0  0  0  0  0  0  0  0  0
  -14.1225  -38.0621  -13.6205 O   0  0  0  0  0  0  0  0  0  0  0  0
  -13.8636  -39.4495  -13.7538 C   0  0  0  0  0  0  0  0  0  0  0  0
  -12.8243  -39.7671  -14.7545 C   0  0  0  0  0  0  0  0  0  0  0  0
  -12.5256  -41.2705  -14.7104 C   0  0  0  0  0  0  0  0  0  0  0  0
  -12.8366  -41.8396  -13.3283 C   0  0  0  0  0  0  0  0  0  0  0  0
  -14.1461  -42.0581  -13.1201 O   0  0  0  0  0  0  0  0  0  0  0  0
  -16.5769  -38.4419   -7.0331 C   0  0  2  0  0  0  0  0  0  0  0  0
  -15.6322  -37.5924   -6.5153 O   0  0  0  0  0  0  0  0  0  0  0  0
  -16.7851  -39.6666   -6.2391 C   0  0  0  0  0  0  0  0  0  0  0  0
  -17.9331  -40.4406   -6.4233 N   0  0  0  0  0  0  0  0  0  0  0  0
  -18.9870  -40.4387   -5.4917 C   0  0  0  0  0  0  0  0  0  0  0  0
  -20.3545  -40.4775   -6.0326 C   0  0  0  0  0  0  0  0  0  0  0  0
  -21.4237  -40.2867   -5.2049 C   0  0  0  0  0  0  0  0  0  0  0  0
  -22.7422  -40.2859   -5.6103 C   0  0  0  0  0  0  0  0  0  0  0  0
  -22.9816  -40.4932   -6.9450 C   0  0  0  0  0  0  0  0  0  0  0  0
  -21.9164  -40.6929   -7.8226 C   0  0  0  0  0  0  0  0  0  0  0  0
  -20.6206  -40.6856   -7.3734 C   0  0  0  0  0  0  0  0  0  0  0  0
  -23.8053  -40.0870   -4.6142 C   0  0  0  0  0  0  0  0  0  0  0  0
  -24.0926  -38.5925   -4.4961 C   0  0  0  0  0  0  0  0  0  0  0  0
  -23.5770  -40.7122   -3.2799 C   0  0  0  0  0  0  0  0  0  0  0  0
  1  2  1  0
  2  3  1  0
  3  4  1  0
  4  5  2  0
  5  6  1  0
  6  7  2  0
  7  8  1  0
  8  9  2  0
  8 10  1  0
 10 11  2  0
 10 12  1  0
 12 13  1  0
 13 14  1  6
 14 15  1  0
 15 16  2  0
 16 17  1  0
 17 18  2  0
 18 19  1  0
 19 20  2  0
 17 21  1  0
 21 22  1  0
 22 23  1  0
 23 24  1  0
 24 25  1  0
 25 26  1  0
 13 27  1  0
 27 28  1  1
 27 29  1  0
 29 30  1  0
 30 31  1  0
 31 32  1  0
 32 33  2  0
 33 34  1  0
 34 35  2  0
 35 36  1  0
 36 37  2  0
 34 38  1  0
 38 39  1  0
 38 40  1  0
  9  4  1  0
 20 15  1  0
 26  6  1  0
 37 32  1  0
M  END
$$$$
