
     RDKit          3D

 40 43  0  0  0  0  0  0  0  0999 V2000
  -21.1369  -44.4083  -13.7522 C   0  0  0  0  0  0  0  0  0  0  0  0
  -20.6295  -43.5687  -12.7805 O   0  0  0  0  0  0  0  0  0  0  0  0
  -20.0889  -42.4502  -13.3543 C   0  0  0  0  0  0  0  0  0  0  0  0
  -18.7828  -42.0385  -12.7724 C   0  0  0  0  0  0  0  0  0  0  0  0
  -17.5873  -42.2764  -13.3911 C   0  0  0  0  0  0  0  0  0  0  0  0
  -16.3344  -41.8666  -12.8465 C   0  0  0  0  0  0  0  0  0  0  0  0
  -16.3250  -41.1960  -11.6375 C   0  0  0  0  0  0  0  0  0  0  0  0
  -17.4952  -40.9286  -10.9761 C   0  0  0  0  0  0  0  0  0  0  0  0
  -18.7066  -41.3734  -11.5843 C   0  0  0  0  0  0  0  0  0  0  0  0
  -17.7984  -40.2178   -9.7312 C   0  0  0  0  0  0  0  0  0  0  0  0
  -18.7580  -40.7619   -8.9645 O   0  0  0  0  0  0  0  0  0  0  0  0
  -17.3258  -39.0547   -9.1008 N   0  0  0  0  0  0  0  0  0  0  0  0
  -15.9669  -38.7885   -8.5919 C   0  0  1  0  0  0  0  0  0  0  0  0
  -15.4341  -37.4587   -9.1118 C   0  0  0  0  0  0  0  0  0  0  0  0
  -14.4300  -37.5662  -10.2055 C   0  0  0  0  0  0  0  0  0  0  0  0
  -14.5653  -38.1307  -11.4448 C   0  0  0  0  0  0  0  0  0  0  0  0
  -13.4342  -38.1829  -12.2333 C   0  0  0  0  0  0  0  0  0  0  0  0
  -12.2090  -37.6792  -11.8116 C   0  0  0  0  0  0  0  0  0  0  0  0
  -12.0391  -37.0990  -10.5743 C   0  0  0  0  0  0  0  0  0  0  0  0
  -13.1725  -37.0634   -9.8011 C   0  0  0  0  0  0  0  0  0  0  0  0
  -13.3184  -38.7447  -13.5447 O   0  0  0  0  0  0  0  0  0  0  0  0
  -13.7599  -40.0447  -13.8978 C   0  0  0  0  0  0  0  0  0  0  0  0
  -12.9376  -40.6887  -14.9425 C   0  0  0  0  0  0  0  0  0  0  0  0
  -13.4140  -42.1329  -15.1391 C   0  0  0  0  0  0  0  0  0  0  0  0
  -14.0627  -42.6630  -13.8629 C   0  0  0  0  0  0  0  0  0  0  0  0
  -15.3238  -42.2343  -13.6839 O   0  0  0  0  0  0  0  0  0  0  0  0
  -16.1193  -38.7889   -7.0860 C   0  0  2  0  0  0  0  0  0  0  0  0
  -16.0317  -40.0525   -6.5587 O   0  0  0  0  0  0  0  0  0  0  0  0
  -17.2106  -37.9748   -6.5203 C   0  0  0  0  0  0  0  0  0  0  0  0
  -18.5411  -38.2623   -6.8334 N   0  0  0  0  0  0  0  0  0  0  0  0
  -19.1757  -39.4308   -6.3747 C   0  0  0  0  0  0  0  0  0  0  0  0
  -20.5622  -39.6523   -6.8140 C   0  0  0  0  0  0  0  0  0  0  0  0
  -21.5112  -40.0435   -5.9135 C   0  0  0  0  0  0  0  0  0  0  0  0
  -22.8395  -40.2613   -6.2150 C   0  0  0  0  0  0  0  0  0  0  0  0
  -23.2204  -40.0670   -7.5185 C   0  0  0  0  0  0  0  0  0  0  0  0
  -22.2804  -39.6682   -8.4684 C   0  0  0  0  0  0  0  0  0  0  0  0
  -20.9693  -39.4638   -8.1218 C   0  0  0  0  0  0  0  0  0  0  0  0
  -23.7597  -40.6998   -5.1553 C   0  0  0  0  0  0  0  0  0  0  0  0
  -23.3188  -40.0751   -3.8342 C   0  0  0  0  0  0  0  0  0  0  0  0
  -23.9593  -42.1721   -5.0302 C   0  0  0  0  0  0  0  0  0  0  0  0
  1  2  1  0
  2  3  1  0
  3  4  1  0
  4  5  2  0
  5  6  1  0
  6  7  2  0
  7  8  1  0
  8  9  2  0
  8 10  1  0
 10 11  2  0
 10 12  1  0
 12 13  1  0
 13 14  1  6
 14 15  1  0
 15 16  2  0
 16 17  1  0
 17 18  2  0
 18 19  1  0
 19 20  2  0
 17 21  1  0
 21 22  1  0
 22 23  1  0
 23 24  1  0
 24 25  1  0
 25 26  1  0
 13 27  1  0
 27 28  1  6
 27 29  1  0
 29 30  1  0
 30 31  1  0
 31 32  1  0
 32 33  2  0
 33 34  1  0
 34 35  2  0
 35 36  1  0
 36 37  2  0
 34 38  1  0
 38 39  1  0
 38 40  1  0
  9  4  1  0
 20 15  1  0
 26  6  1  0
 37 32  1  0
M  END
$$$$
