
     RDKit          3D

 40 43  0  0  0  0  0  0  0  0999 V2000
  -23.7225  -45.1089   -9.8468 C   0  0  0  0  0  0  0  0  0  0  0  0
  -22.4476  -44.5930   -9.9685 O   0  0  0  0  0  0  0  0  0  0  0  0
  -21.6671  -45.0038   -8.9223 C   0  0  0  0  0  0  0  0  0  0  0  0
  -20.2662  -44.5050   -8.9756 C   0  0  0  0  0  0  0  0  0  0  0  0
  -19.2524  -45.2037   -9.5694 C   0  0  0  0  0  0  0  0  0  0  0  0
  -17.9122  -44.7209   -9.6400 C   0  0  0  0  0  0  0  0  0  0  0  0
  -17.6216  -43.4887   -9.0844 C   0  0  0  0  0  0  0  0  0  0  0  0
  -18.6011  -42.7450   -8.4795 C   0  0  0  0  0  0  0  0  0  0  0  0
  -19.9158  -43.2977   -8.4470 C   0  0  0  0  0  0  0  0  0  0  0  0
  -18.6058  -41.4197   -7.8545 C   0  0  0  0  0  0  0  0  0  0  0  0
  -19.3414  -41.3015   -6.7367 O   0  0  0  0  0  0  0  0  0  0  0  0
  -18.0148  -40.1768   -8.1364 N   0  0  0  0  0  0  0  0  0  0  0  0
  -16.5779  -39.8445   -8.1731 C   0  0  1  0  0  0  0  0  0  0  0  0
  -16.2102  -39.1297   -9.4678 C   0  0  0  0  0  0  0  0  0  0  0  0
  -15.4993  -39.9688  -10.4712 C   0  0  0  0  0  0  0  0  0  0  0  0
  -15.9212  -41.1161  -11.0865 C   0  0  0  0  0  0  0  0  0  0  0  0
  -15.0141  -41.7525  -11.9088 C   0  0  0  0  0  0  0  0  0  0  0  0
  -13.7322  -41.2600  -12.1250 C   0  0  0  0  0  0  0  0  0  0  0  0
  -13.2775  -40.1056  -11.5274 C   0  0  0  0  0  0  0  0  0  0  0  0
  -14.1902  -39.4910  -10.7070 C   0  0  0  0  0  0  0  0  0  0  0  0
  -15.2099  -42.9708  -12.6342 O   0  0  0  0  0  0  0  0  0  0  0  0
  -15.7012  -44.1708  -12.0611 C   0  0  0  0  0  0  0  0  0  0  0  0
  -15.1455  -45.3940  -12.6751 C   0  0  0  0  0  0  0  0  0  0  0  0
  -15.6302  -46.6174  -11.8877 C   0  0  0  0  0  0  0  0  0  0  0  0
  -15.9411  -46.2372  -10.4423 C   0  0  0  0  0  0  0  0  0  0  0  0
  -17.1284  -45.6260  -10.2915 O   0  0  0  0  0  0  0  0  0  0  0  0
  -16.3608  -38.9669   -6.9591 C   0  0  2  0  0  0  0  0  0  0  0  0
  -15.6341  -39.6038   -5.9852 O   0  0  0  0  0  0  0  0  0  0  0  0
  -17.5271  -38.2225   -6.4502 C   0  0  0  0  0  0  0  0  0  0  0  0
  -18.1464  -37.2532   -7.2426 N   0  0  0  0  0  0  0  0  0  0  0  0
  -19.4836  -36.8688   -7.0356 C   0  0  0  0  0  0  0  0  0  0  0  0
  -20.5154  -37.8886   -7.2798 C   0  0  0  0  0  0  0  0  0  0  0  0
  -20.9561  -38.6757   -6.2546 C   0  0  0  0  0  0  0  0  0  0  0  0
  -21.9290  -39.6467   -6.3704 C   0  0  0  0  0  0  0  0  0  0  0  0
  -22.4852  -39.8236   -7.6119 C   0  0  0  0  0  0  0  0  0  0  0  0
  -22.0614  -39.0400   -8.6848 C   0  0  0  0  0  0  0  0  0  0  0  0
  -21.0898  -38.0858   -8.5219 C   0  0  0  0  0  0  0  0  0  0  0  0
  -22.3021  -40.4414   -5.1910 C   0  0  0  0  0  0  0  0  0  0  0  0
  -21.8995  -41.8940   -5.4315 C   0  0  0  0  0  0  0  0  0  0  0  0
  -23.7214  -40.3281   -4.7482 C   0  0  0  0  0  0  0  0  0  0  0  0
  1  2  1  0
  2  3  1  0
  3  4  1  0
  4  5  2  0
  5  6  1  0
  6  7  2  0
  7  8  1  0
  8  9  2  0
  8 10  1  0
 10 11  2  0
 10 12  1  0
 12 13  1  0
 13 14  1  6
 14 15  1  0
 15 16  2  0
 16 17  1  0
 17 18  2  0
 18 19  1  0
 19 20  2  0
 17 21  1  0
 21 22  1  0
 22 23  1  0
 23 24  1  0
 24 25  1  0
 25 26  1  0
 13 27  1  0
 27 28  1  1
 27 29  1  0
 29 30  1  0
 30 31  1  0
 31 32  1  0
 32 33  2  0
 33 34  1  0
 34 35  2  0
 35 36  1  0
 36 37  2  0
 34 38  1  0
 38 39  1  0
 38 40  1  0
  9  4  1  0
 20 15  1  0
 26  6  1  0
 37 32  1  0
M  END
$$$$
