
     RDKit          3D

 40 43  0  0  0  0  0  0  0  0999 V2000
  -23.7045  -44.3710  -10.4727 C   0  0  0  0  0  0  0  0  0  0  0  0
  -23.2599  -43.9129   -9.2484 O   0  0  0  0  0  0  0  0  0  0  0  0
  -22.4542  -44.8469   -8.6559 C   0  0  0  0  0  0  0  0  0  0  0  0
  -21.0031  -44.5224   -8.7121 C   0  0  0  0  0  0  0  0  0  0  0  0
  -20.0542  -45.4309   -9.0897 C   0  0  0  0  0  0  0  0  0  0  0  0
  -18.6644  -45.1189   -9.1637 C   0  0  0  0  0  0  0  0  0  0  0  0
  -18.2546  -43.8386   -8.8407 C   0  0  0  0  0  0  0  0  0  0  0  0
  -19.1647  -42.8876   -8.4589 C   0  0  0  0  0  0  0  0  0  0  0  0
  -20.5358  -43.2781   -8.4068 C   0  0  0  0  0  0  0  0  0  0  0  0
  -19.0398  -41.4710   -8.1058 C   0  0  0  0  0  0  0  0  0  0  0  0
  -19.8045  -41.0521   -7.0838 O   0  0  0  0  0  0  0  0  0  0  0  0
  -18.2940  -40.3810   -8.5845 N   0  0  0  0  0  0  0  0  0  0  0  0
  -16.8276  -40.2191   -8.5896 C   0  0  1  0  0  0  0  0  0  0  0  0
  -16.3214  -39.8230   -9.9715 C   0  0  0  0  0  0  0  0  0  0  0  0
  -15.6716  -40.9182  -10.7425 C   0  0  0  0  0  0  0  0  0  0  0  0
  -16.1990  -42.1137  -11.1492 C   0  0  0  0  0  0  0  0  0  0  0  0
  -15.3386  -42.9962  -11.7696 C   0  0  0  0  0  0  0  0  0  0  0  0
  -13.9991  -42.6978  -11.9918 C   0  0  0  0  0  0  0  0  0  0  0  0
  -13.4376  -41.5024  -11.6018 C   0  0  0  0  0  0  0  0  0  0  0  0
  -14.3061  -40.6410  -10.9794 C   0  0  0  0  0  0  0  0  0  0  0  0
  -15.6453  -44.3073  -12.2550 O   0  0  0  0  0  0  0  0  0  0  0  0
  -16.2998  -45.3077  -11.4931 C   0  0  0  0  0  0  0  0  0  0  0  0
  -15.8666  -46.6819  -11.8186 C   0  0  0  0  0  0  0  0  0  0  0  0
  -16.5268  -47.6625  -10.8420 C   0  0  0  0  0  0  0  0  0  0  0  0
  -16.8535  -46.9682   -9.5222 C   0  0  0  0  0  0  0  0  0  0  0  0
  -17.9655  -46.2153   -9.5728 O   0  0  0  0  0  0  0  0  0  0  0  0
  -16.5615  -39.1438   -7.5582 C   0  0  2  0  0  0  0  0  0  0  0  0
  -15.2597  -39.1549   -7.1251 O   0  0  0  0  0  0  0  0  0  0  0  0
  -17.5537  -38.9866   -6.4791 C   0  0  0  0  0  0  0  0  0  0  0  0
  -17.8273  -37.7231   -5.9503 N   0  0  0  0  0  0  0  0  0  0  0  0
  -19.0044  -37.4605   -5.2264 C   0  0  0  0  0  0  0  0  0  0  0  0
  -20.1165  -38.4085   -5.3961 C   0  0  0  0  0  0  0  0  0  0  0  0
  -20.8113  -38.4453   -6.5711 C   0  0  0  0  0  0  0  0  0  0  0  0
  -21.8563  -39.3044   -6.8406 C   0  0  0  0  0  0  0  0  0  0  0  0
  -22.2126  -40.1799   -5.8464 C   0  0  0  0  0  0  0  0  0  0  0  0
  -21.5278  -40.1729   -4.6315 C   0  0  0  0  0  0  0  0  0  0  0  0
  -20.4943  -39.2994   -4.4086 C   0  0  0  0  0  0  0  0  0  0  0  0
  -22.5363  -39.2309   -8.1422 C   0  0  0  0  0  0  0  0  0  0  0  0
  -21.9489  -38.0675   -8.9368 C   0  0  0  0  0  0  0  0  0  0  0  0
  -24.0257  -39.1741   -8.0999 C   0  0  0  0  0  0  0  0  0  0  0  0
  1  2  1  0
  2  3  1  0
  3  4  1  0
  4  5  2  0
  5  6  1  0
  6  7  2  0
  7  8  1  0
  8  9  2  0
  8 10  1  0
 10 11  2  0
 10 12  1  0
 12 13  1  0
 13 14  1  6
 14 15  1  0
 15 16  2  0
 16 17  1  0
 17 18  2  0
 18 19  1  0
 19 20  2  0
 17 21  1  0
 21 22  1  0
 22 23  1  0
 23 24  1  0
 24 25  1  0
 25 26  1  0
 13 27  1  0
 27 28  1  1
 27 29  1  0
 29 30  1  0
 30 31  1  0
 31 32  1  0
 32 33  2  0
 33 34  1  0
 34 35  2  0
 35 36  1  0
 36 37  2  0
 34 38  1  0
 38 39  1  0
 38 40  1  0
  9  4  1  0
 20 15  1  0
 26  6  1  0
 37 32  1  0
M  END
$$$$
