
     RDKit          3D

 40 43  0  0  0  0  0  0  0  0999 V2000
  -21.9610  -42.6539   -2.4666 C   0  0  0  0  0  0  0  0  0  0  0  0
  -22.3664  -43.0963   -3.7102 O   0  0  0  0  0  0  0  0  0  0  0  0
  -22.7862  -42.0425   -4.4756 C   0  0  0  0  0  0  0  0  0  0  0  0
  -22.1343  -41.9624   -5.8108 C   0  0  0  0  0  0  0  0  0  0  0  0
  -22.6706  -42.5294   -6.9330 C   0  0  0  0  0  0  0  0  0  0  0  0
  -22.0593  -42.4388   -8.2184 C   0  0  0  0  0  0  0  0  0  0  0  0
  -20.8696  -41.7447   -8.3390 C   0  0  0  0  0  0  0  0  0  0  0  0
  -20.2900  -41.1541   -7.2465 C   0  0  0  0  0  0  0  0  0  0  0  0
  -20.9612  -41.2919   -5.9953 C   0  0  0  0  0  0  0  0  0  0  0  0
  -19.0851  -40.3382   -7.0745 C   0  0  0  0  0  0  0  0  0  0  0  0
  -18.3663  -40.5809   -5.9658 O   0  0  0  0  0  0  0  0  0  0  0  0
  -18.4563  -39.3139   -7.8017 N   0  0  0  0  0  0  0  0  0  0  0  0
  -17.8703  -39.3909   -9.1534 C   0  0  1  0  0  0  0  0  0  0  0  0
  -18.3897  -38.2688  -10.0444 C   0  0  0  0  0  0  0  0  0  0  0  0
  -19.4153  -38.6797  -11.0422 C   0  0  0  0  0  0  0  0  0  0  0  0
  -20.6457  -39.2398  -10.8299 C   0  0  0  0  0  0  0  0  0  0  0  0
  -21.3602  -39.6179  -11.9482 C   0  0  0  0  0  0  0  0  0  0  0  0
  -20.8756  -39.4345  -13.2382 C   0  0  0  0  0  0  0  0  0  0  0  0
  -19.6453  -38.8684  -13.4880 C   0  0  0  0  0  0  0  0  0  0  0  0
  -18.9458  -38.5064  -12.3640 C   0  0  0  0  0  0  0  0  0  0  0  0
  -22.6469  -40.2439  -11.9824 O   0  0  0  0  0  0  0  0  0  0  0  0
  -22.9935  -41.3971  -11.2342 C   0  0  0  0  0  0  0  0  0  0  0  0
  -23.9678  -42.2758  -11.9131 C   0  0  0  0  0  0  0  0  0  0  0  0
  -24.1568  -43.5524  -11.0849 C   0  0  0  0  0  0  0  0  0  0  0  0
  -22.9106  -43.8417  -10.2519 C   0  0  0  0  0  0  0  0  0  0  0  0
  -22.8220  -43.0918   -9.1403 O   0  0  0  0  0  0  0  0  0  0  0  0
  -16.3774  -39.2895   -8.9256 C   0  0  2  0  0  0  0  0  0  0  0  0
  -15.6708  -39.3492  -10.1001 O   0  0  0  0  0  0  0  0  0  0  0  0
  -15.8063  -40.1038   -7.8373 C   0  0  0  0  0  0  0  0  0  0  0  0
  -16.0054  -39.7392   -6.5037 N   0  0  0  0  0  0  0  0  0  0  0  0
  -16.3812  -38.4336   -6.1395 C   0  0  0  0  0  0  0  0  0  0  0  0
  -17.7557  -38.2483   -5.6487 C   0  0  0  0  0  0  0  0  0  0  0  0
  -18.0787  -38.5989   -4.3691 C   0  0  0  0  0  0  0  0  0  0  0  0
  -19.3287  -38.4515   -3.8047 C   0  0  0  0  0  0  0  0  0  0  0  0
  -20.3088  -37.9122   -4.5986 C   0  0  0  0  0  0  0  0  0  0  0  0
  -20.0188  -37.5421   -5.9115 C   0  0  0  0  0  0  0  0  0  0  0  0
  -18.7601  -37.7079   -6.4302 C   0  0  0  0  0  0  0  0  0  0  0  0
  -19.5524  -38.8865   -2.4181 C   0  0  0  0  0  0  0  0  0  0  0  0
  -19.0480  -37.7970   -1.4754 C   0  0  0  0  0  0  0  0  0  0  0  0
  -19.0057  -40.2257   -2.0564 C   0  0  0  0  0  0  0  0  0  0  0  0
  1  2  1  0
  2  3  1  0
  3  4  1  0
  4  5  2  0
  5  6  1  0
  6  7  2  0
  7  8  1  0
  8  9  2  0
  8 10  1  0
 10 11  2  0
 10 12  1  0
 12 13  1  0
 13 14  1  6
 14 15  1  0
 15 16  2  0
 16 17  1  0
 17 18  2  0
 18 19  1  0
 19 20  2  0
 17 21  1  0
 21 22  1  0
 22 23  1  0
 23 24  1  0
 24 25  1  0
 25 26  1  0
 13 27  1  0
 27 28  1  6
 27 29  1  0
 29 30  1  0
 30 31  1  0
 31 32  1  0
 32 33  2  0
 33 34  1  0
 34 35  2  0
 35 36  1  0
 36 37  2  0
 34 38  1  0
 38 39  1  0
 38 40  1  0
  9  4  1  0
 20 15  1  0
 26  6  1  0
 37 32  1  0
M  END
$$$$
