
     RDKit          3D

 40 43  0  0  0  0  0  0  0  0999 V2000
  -23.5449  -43.3099   -8.3845 C   0  0  0  0  0  0  0  0  0  0  0  0
  -22.4750  -42.9758   -9.1908 O   0  0  0  0  0  0  0  0  0  0  0  0
  -21.7597  -44.0954   -9.5188 C   0  0  0  0  0  0  0  0  0  0  0  0
  -20.2843  -43.9208   -9.4354 C   0  0  0  0  0  0  0  0  0  0  0  0
  -19.3998  -44.8616   -9.8838 C   0  0  0  0  0  0  0  0  0  0  0  0
  -17.9851  -44.6905   -9.8237 C   0  0  0  0  0  0  0  0  0  0  0  0
  -17.4815  -43.5191   -9.2891 C   0  0  0  0  0  0  0  0  0  0  0  0
  -18.3237  -42.5413   -8.8278 C   0  0  0  0  0  0  0  0  0  0  0  0
  -19.7257  -42.7886   -8.9200 C   0  0  0  0  0  0  0  0  0  0  0  0
  -18.0922  -41.2100   -8.2610 C   0  0  0  0  0  0  0  0  0  0  0  0
  -18.8902  -40.8618   -7.2379 O   0  0  0  0  0  0  0  0  0  0  0  0
  -17.2114  -40.1479   -8.5249 N   0  0  0  0  0  0  0  0  0  0  0  0
  -15.7403  -40.1423   -8.4143 C   0  0  1  0  0  0  0  0  0  0  0  0
  -15.0936  -39.6102   -9.6876 C   0  0  0  0  0  0  0  0  0  0  0  0
  -14.4935  -40.6475  -10.5708 C   0  0  0  0  0  0  0  0  0  0  0  0
  -15.0993  -41.7112  -11.1827 C   0  0  0  0  0  0  0  0  0  0  0  0
  -14.2814  -42.5827  -11.8724 C   0  0  0  0  0  0  0  0  0  0  0  0
  -12.9065  -42.3986  -11.9637 C   0  0  0  0  0  0  0  0  0  0  0  0
  -12.2655  -41.3363  -11.3660 C   0  0  0  0  0  0  0  0  0  0  0  0
  -13.0936  -40.4850  -10.6781 C   0  0  0  0  0  0  0  0  0  0  0  0
  -14.6731  -43.7722  -12.5655 O   0  0  0  0  0  0  0  0  0  0  0  0
  -15.4767  -44.7957  -12.0030 C   0  0  0  0  0  0  0  0  0  0  0  0
  -15.1524  -46.1479  -12.5014 C   0  0  0  0  0  0  0  0  0  0  0  0
  -15.9762  -47.1819  -11.7245 C   0  0  0  0  0  0  0  0  0  0  0  0
  -16.3361  -46.6508  -10.3393 C   0  0  0  0  0  0  0  0  0  0  0  0
  -17.3643  -45.7854  -10.3467 O   0  0  0  0  0  0  0  0  0  0  0  0
  -15.4534  -39.2579   -7.2200 C   0  0  2  0  0  0  0  0  0  0  0  0
  -14.1581  -39.3819   -6.7852 O   0  0  0  0  0  0  0  0  0  0  0  0
  -16.4535  -39.2453   -6.1368 C   0  0  0  0  0  0  0  0  0  0  0  0
  -17.7755  -39.6168   -6.3923 N   0  0  0  0  0  0  0  0  0  0  0  0
  -18.7968  -38.6629   -6.5520 C   0  0  0  0  0  0  0  0  0  0  0  0
  -20.0805  -39.1441   -7.0857 C   0  0  0  0  0  0  0  0  0  0  0  0
  -20.9208  -39.8732   -6.2938 C   0  0  0  0  0  0  0  0  0  0  0  0
  -22.1512  -40.3564   -6.6878 C   0  0  0  0  0  0  0  0  0  0  0  0
  -22.5464  -40.0766   -7.9713 C   0  0  0  0  0  0  0  0  0  0  0  0
  -21.7159  -39.3354   -8.8115 C   0  0  0  0  0  0  0  0  0  0  0  0
  -20.4996  -38.8756   -8.3756 C   0  0  0  0  0  0  0  0  0  0  0  0
  -22.9546  -41.1465   -5.7432 C   0  0  0  0  0  0  0  0  0  0  0  0
  -23.7277  -40.1905   -4.8385 C   0  0  0  0  0  0  0  0  0  0  0  0
  -22.2153  -42.1746   -4.9560 C   0  0  0  0  0  0  0  0  0  0  0  0
  1  2  1  0
  2  3  1  0
  3  4  1  0
  4  5  2  0
  5  6  1  0
  6  7  2  0
  7  8  1  0
  8  9  2  0
  8 10  1  0
 10 11  2  0
 10 12  1  0
 12 13  1  0
 13 14  1  6
 14 15  1  0
 15 16  2  0
 16 17  1  0
 17 18  2  0
 18 19  1  0
 19 20  2  0
 17 21  1  0
 21 22  1  0
 22 23  1  0
 23 24  1  0
 24 25  1  0
 25 26  1  0
 13 27  1  0
 27 28  1  1
 27 29  1  0
 29 30  1  0
 30 31  1  0
 31 32  1  0
 32 33  2  0
 33 34  1  0
 34 35  2  0
 35 36  1  0
 36 37  2  0
 34 38  1  0
 38 39  1  0
 38 40  1  0
  9  4  1  0
 20 15  1  0
 26  6  1  0
 37 32  1  0
M  END
$$$$
