
     RDKit          3D

 40 43  0  0  0  0  0  0  0  0999 V2000
  -17.4276  -47.5106   -7.7373 C   0  0  0  0  0  0  0  0  0  0  0  0
  -18.6870  -47.8549   -7.2880 O   0  0  0  0  0  0  0  0  0  0  0  0
  -19.1097  -46.9689   -6.3346 C   0  0  0  0  0  0  0  0  0  0  0  0
  -19.5013  -45.6377   -6.8719 C   0  0  0  0  0  0  0  0  0  0  0  0
  -20.7565  -45.3673   -7.3408 C   0  0  0  0  0  0  0  0  0  0  0  0
  -21.1419  -44.0876   -7.8389 C   0  0  0  0  0  0  0  0  0  0  0  0
  -20.2054  -43.0706   -7.8479 C   0  0  0  0  0  0  0  0  0  0  0  0
  -18.9331  -43.2864   -7.3863 C   0  0  0  0  0  0  0  0  0  0  0  0
  -18.6242  -44.5940   -6.9070 C   0  0  0  0  0  0  0  0  0  0  0  0
  -17.7647  -42.4151   -7.2353 C   0  0  0  0  0  0  0  0  0  0  0  0
  -16.5791  -42.9659   -7.5446 O   0  0  0  0  0  0  0  0  0  0  0  0
  -17.5503  -41.0882   -6.8268 N   0  0  0  0  0  0  0  0  0  0  0  0
  -18.0370  -39.8527   -7.4695 C   0  0  1  0  0  0  0  0  0  0  0  0
  -18.7291  -38.9427   -6.4618 C   0  0  0  0  0  0  0  0  0  0  0  0
  -20.2159  -38.9360   -6.5356 C   0  0  0  0  0  0  0  0  0  0  0  0
  -21.0897  -39.9766   -6.3731 C   0  0  0  0  0  0  0  0  0  0  0  0
  -22.4253  -39.7100   -6.5950 C   0  0  0  0  0  0  0  0  0  0  0  0
  -22.8825  -38.4473   -6.9544 C   0  0  0  0  0  0  0  0  0  0  0  0
  -22.0321  -37.3769   -7.1199 C   0  0  0  0  0  0  0  0  0  0  0  0
  -20.7073  -37.6628   -6.9031 C   0  0  0  0  0  0  0  0  0  0  0  0
  -23.5168  -40.6324   -6.5154 O   0  0  0  0  0  0  0  0  0  0  0  0
  -23.5459  -41.8925   -7.1643 C   0  0  0  0  0  0  0  0  0  0  0  0
  -24.8970  -42.3109   -7.5904 C   0  0  0  0  0  0  0  0  0  0  0  0
  -24.7899  -43.6073   -8.4025 C   0  0  0  0  0  0  0  0  0  0  0  0
  -23.4188  -43.7141   -9.0653 C   0  0  0  0  0  0  0  0  0  0  0  0
  -22.4479  -44.1171   -8.2280 O   0  0  0  0  0  0  0  0  0  0  0  0
  -16.7945  -39.2134   -8.0514 C   0  0  2  0  0  0  0  0  0  0  0  0
  -17.0703  -38.0227   -8.6746 O   0  0  0  0  0  0  0  0  0  0  0  0
  -15.8775  -40.0887   -8.8041 C   0  0  0  0  0  0  0  0  0  0  0  0
  -14.5429  -40.2164   -8.4123 N   0  0  0  0  0  0  0  0  0  0  0  0
  -13.5319  -40.5682   -9.3247 C   0  0  0  0  0  0  0  0  0  0  0  0
  -13.6481  -40.0289  -10.6885 C   0  0  0  0  0  0  0  0  0  0  0  0
  -13.1034  -38.8144  -10.9930 C   0  0  0  0  0  0  0  0  0  0  0  0
  -13.1398  -38.2262  -12.2402 C   0  0  0  0  0  0  0  0  0  0  0  0
  -13.7728  -38.9237  -13.2375 C   0  0  0  0  0  0  0  0  0  0  0  0
  -14.3427  -40.1674  -12.9663 C   0  0  0  0  0  0  0  0  0  0  0  0
  -14.2819  -40.7128  -11.7095 C   0  0  0  0  0  0  0  0  0  0  0  0
  -12.5302  -36.9023  -12.4340 C   0  0  0  0  0  0  0  0  0  0  0  0
  -11.0140  -37.0660  -12.5001 C   0  0  0  0  0  0  0  0  0  0  0  0
  -12.9295  -35.8489  -11.4572 C   0  0  0  0  0  0  0  0  0  0  0  0
  1  2  1  0
  2  3  1  0
  3  4  1  0
  4  5  2  0
  5  6  1  0
  6  7  2  0
  7  8  1  0
  8  9  2  0
  8 10  1  0
 10 11  2  0
 10 12  1  0
 12 13  1  0
 13 14  1  1
 14 15  1  0
 15 16  2  0
 16 17  1  0
 17 18  2  0
 18 19  1  0
 19 20  2  0
 17 21  1  0
 21 22  1  0
 22 23  1  0
 23 24  1  0
 24 25  1  0
 25 26  1  0
 13 27  1  0
 27 28  1  6
 27 29  1  0
 29 30  1  0
 30 31  1  0
 31 32  1  0
 32 33  2  0
 33 34  1  0
 34 35  2  0
 35 36  1  0
 36 37  2  0
 34 38  1  0
 38 39  1  0
 38 40  1  0
  9  4  1  0
 20 15  1  0
 26  6  1  0
 37 32  1  0
M  END
$$$$
