
     RDKit          3D

 40 43  0  0  0  0  0  0  0  0999 V2000
  -17.1442  -47.0217   -9.1258 C   0  0  0  0  0  0  0  0  0  0  0  0
  -16.9243  -47.0976  -10.4868 O   0  0  0  0  0  0  0  0  0  0  0  0
  -17.2783  -45.9221  -11.0913 C   0  0  0  0  0  0  0  0  0  0  0  0
  -16.4267  -44.7623  -10.7120 C   0  0  0  0  0  0  0  0  0  0  0  0
  -15.0837  -44.7152  -10.9621 C   0  0  0  0  0  0  0  0  0  0  0  0
  -14.2670  -43.5978  -10.6178 C   0  0  0  0  0  0  0  0  0  0  0  0
  -14.8582  -42.5092  -10.0038 C   0  0  0  0  0  0  0  0  0  0  0  0
  -16.2016  -42.5025   -9.7328 C   0  0  0  0  0  0  0  0  0  0  0  0
  -16.9497  -43.6586  -10.1052 C   0  0  0  0  0  0  0  0  0  0  0  0
  -17.0963  -41.5025   -9.1441 C   0  0  0  0  0  0  0  0  0  0  0  0
  -18.0350  -41.9760   -8.3077 O   0  0  0  0  0  0  0  0  0  0  0  0
  -17.2378  -40.1078   -9.2342 N   0  0  0  0  0  0  0  0  0  0  0  0
  -16.2704  -39.0709   -8.8274 C   0  0  1  0  0  0  0  0  0  0  0  0
  -16.0361  -38.0651   -9.9481 C   0  0  0  0  0  0  0  0  0  0  0  0
  -14.7502  -38.2258  -10.6808 C   0  0  0  0  0  0  0  0  0  0  0  0
  -14.2946  -39.3023  -11.3923 C   0  0  0  0  0  0  0  0  0  0  0  0
  -13.0113  -39.2211  -11.8929 C   0  0  0  0  0  0  0  0  0  0  0  0
  -12.2085  -38.1018  -11.7051 C   0  0  0  0  0  0  0  0  0  0  0  0
  -12.6374  -36.9992  -11.0004 C   0  0  0  0  0  0  0  0  0  0  0  0
  -13.9126  -37.1013  -10.5033 C   0  0  0  0  0  0  0  0  0  0  0  0
  -12.3086  -40.2201  -12.6392 O   0  0  0  0  0  0  0  0  0  0  0  0
  -12.1870  -41.5753  -12.2414 C   0  0  0  0  0  0  0  0  0  0  0  0
  -10.9138  -42.2031  -12.6503 C   0  0  0  0  0  0  0  0  0  0  0  0
  -10.8297  -43.6102  -12.0465 C   0  0  0  0  0  0  0  0  0  0  0  0
  -11.6602  -43.6969  -10.7685 C   0  0  0  0  0  0  0  0  0  0  0  0
  -12.9781  -43.8340  -10.9930 O   0  0  0  0  0  0  0  0  0  0  0  0
  -16.8953  -38.4269   -7.6085 C   0  0  2  0  0  0  0  0  0  0  0  0
  -16.1670  -37.3536   -7.1613 O   0  0  0  0  0  0  0  0  0  0  0  0
  -17.3620  -39.3261   -6.5375 C   0  0  0  0  0  0  0  0  0  0  0  0
  -18.2058  -40.3989   -6.8342 N   0  0  0  0  0  0  0  0  0  0  0  0
  -18.9738  -40.4353   -8.0121 C   0  0  0  0  0  0  0  0  0  0  0  0
  -20.2866  -39.7726   -7.9723 C   0  0  0  0  0  0  0  0  0  0  0  0
  -21.1500  -40.0253   -6.9450 C   0  0  0  0  0  0  0  0  0  0  0  0
  -22.3939  -39.4464   -6.8025 C   0  0  0  0  0  0  0  0  0  0  0  0
  -22.7783  -38.5540   -7.7708 C   0  0  0  0  0  0  0  0  0  0  0  0
  -21.9249  -38.2698   -8.8366 C   0  0  0  0  0  0  0  0  0  0  0  0
  -20.6962  -38.8706   -8.9368 C   0  0  0  0  0  0  0  0  0  0  0  0
  -23.2380  -39.8181   -5.6573 C   0  0  0  0  0  0  0  0  0  0  0  0
  -22.3435  -40.0381   -4.4402 C   0  0  0  0  0  0  0  0  0  0  0  0
  -24.1669  -40.9642   -5.8740 C   0  0  0  0  0  0  0  0  0  0  0  0
  1  2  1  0
  2  3  1  0
  3  4  1  0
  4  5  2  0
  5  6  1  0
  6  7  2  0
  7  8  1  0
  8  9  2  0
  8 10  1  0
 10 11  2  0
 10 12  1  0
 12 13  1  0
 13 14  1  6
 14 15  1  0
 15 16  2  0
 16 17  1  0
 17 18  2  0
 18 19  1  0
 19 20  2  0
 17 21  1  0
 21 22  1  0
 22 23  1  0
 23 24  1  0
 24 25  1  0
 25 26  1  0
 13 27  1  0
 27 28  1  1
 27 29  1  0
 29 30  1  0
 30 31  1  0
 31 32  1  0
 32 33  2  0
 33 34  1  0
 34 35  2  0
 35 36  1  0
 36 37  2  0
 34 38  1  0
 38 39  1  0
 38 40  1  0
  9  4  1  0
 20 15  1  0
 26  6  1  0
 37 32  1  0
M  END
$$$$
