
     RDKit          3D

 40 43  0  0  0  0  0  0  0  0999 V2000
  -22.3875  -42.7382   -3.7627 C   0  0  0  0  0  0  0  0  0  0  0  0
  -23.3355  -41.9171   -4.3403 O   0  0  0  0  0  0  0  0  0  0  0  0
  -23.1934  -41.9118   -5.7013 C   0  0  0  0  0  0  0  0  0  0  0  0
  -21.8432  -42.3218   -6.1737 C   0  0  0  0  0  0  0  0  0  0  0  0
  -21.4264  -43.6236   -6.1884 C   0  0  0  0  0  0  0  0  0  0  0  0
  -20.1405  -44.0234   -6.6583 C   0  0  0  0  0  0  0  0  0  0  0  0
  -19.2732  -43.0519   -7.1227 C   0  0  0  0  0  0  0  0  0  0  0  0
  -19.6415  -41.7319   -7.1331 C   0  0  0  0  0  0  0  0  0  0  0  0
  -20.9429  -41.4120   -6.6443 C   0  0  0  0  0  0  0  0  0  0  0  0
  -18.9716  -40.5122   -7.5922 C   0  0  0  0  0  0  0  0  0  0  0  0
  -19.1348  -39.4269   -6.8173 O   0  0  0  0  0  0  0  0  0  0  0  0
  -18.1660  -40.1636   -8.6890 N   0  0  0  0  0  0  0  0  0  0  0  0
  -16.8326  -40.6902   -9.0371 C   0  0  1  0  0  0  0  0  0  0  0  0
  -16.7838  -41.1515  -10.4888 C   0  0  0  0  0  0  0  0  0  0  0  0
  -16.8326  -42.6266  -10.6835 C   0  0  0  0  0  0  0  0  0  0  0  0
  -17.8086  -43.5111  -10.3123 C   0  0  0  0  0  0  0  0  0  0  0  0
  -17.5521  -44.8496  -10.5281 C   0  0  0  0  0  0  0  0  0  0  0  0
  -16.3696  -45.2971  -11.1061 C   0  0  0  0  0  0  0  0  0  0  0  0
  -15.3699  -44.4346  -11.4973 C   0  0  0  0  0  0  0  0  0  0  0  0
  -15.6392  -43.1085  -11.2674 C   0  0  0  0  0  0  0  0  0  0  0  0
  -18.3988  -45.9567  -10.2022 O   0  0  0  0  0  0  0  0  0  0  0  0
  -18.9917  -46.1609   -8.9308 C   0  0  0  0  0  0  0  0  0  0  0  0
  -19.1489  -47.5847   -8.5697 C   0  0  0  0  0  0  0  0  0  0  0  0
  -19.6607  -47.6848   -7.1277 C   0  0  0  0  0  0  0  0  0  0  0  0
  -19.2452  -46.4553   -6.3236 C   0  0  0  0  0  0  0  0  0  0  0  0
  -20.0117  -45.3766   -6.5579 O   0  0  0  0  0  0  0  0  0  0  0  0
  -15.8893  -39.5354   -8.7767 C   0  0  2  0  0  0  0  0  0  0  0  0
  -14.5923  -39.9540   -8.6188 O   0  0  0  0  0  0  0  0  0  0  0  0
  -16.3195  -38.5241   -7.7940 C   0  0  0  0  0  0  0  0  0  0  0  0
  -16.4181  -37.1801   -8.1613 N   0  0  0  0  0  0  0  0  0  0  0  0
  -17.1282  -36.7735   -9.3054 C   0  0  0  0  0  0  0  0  0  0  0  0
  -18.5785  -37.0198   -9.3119 C   0  0  0  0  0  0  0  0  0  0  0  0
  -19.0974  -38.0330  -10.0661 C   0  0  0  0  0  0  0  0  0  0  0  0
  -20.4360  -38.3599  -10.1305 C   0  0  0  0  0  0  0  0  0  0  0  0
  -21.2970  -37.6032   -9.3768 C   0  0  0  0  0  0  0  0  0  0  0  0
  -20.8060  -36.5588   -8.5938 C   0  0  0  0  0  0  0  0  0  0  0  0
  -19.4656  -36.2703   -8.5616 C   0  0  0  0  0  0  0  0  0  0  0  0
  -20.8701  -39.4649  -10.9979 C   0  0  0  0  0  0  0  0  0  0  0  0
  -19.9470  -39.5265  -12.2119 C   0  0  0  0  0  0  0  0  0  0  0  0
  -22.3068  -39.4578  -11.3968 C   0  0  0  0  0  0  0  0  0  0  0  0
  1  2  1  0
  2  3  1  0
  3  4  1  0
  4  5  2  0
  5  6  1  0
  6  7  2  0
  7  8  1  0
  8  9  2  0
  8 10  1  0
 10 11  2  0
 10 12  1  0
 12 13  1  0
 13 14  1  6
 14 15  1  0
 15 16  2  0
 16 17  1  0
 17 18  2  0
 18 19  1  0
 19 20  2  0
 17 21  1  0
 21 22  1  0
 22 23  1  0
 23 24  1  0
 24 25  1  0
 25 26  1  0
 13 27  1  0
 27 28  1  1
 27 29  1  0
 29 30  1  0
 30 31  1  0
 31 32  1  0
 32 33  2  0
 33 34  1  0
 34 35  2  0
 35 36  1  0
 36 37  2  0
 34 38  1  0
 38 39  1  0
 38 40  1  0
  9  4  1  0
 20 15  1  0
 26  6  1  0
 37 32  1  0
M  END
$$$$
