
     RDKit          3D

 40 43  0  0  0  0  0  0  0  0999 V2000
  -18.7321  -48.9147   -5.2693 C   0  0  0  0  0  0  0  0  0  0  0  0
  -18.9132  -48.2156   -6.4461 O   0  0  0  0  0  0  0  0  0  0  0  0
  -18.0351  -47.1683   -6.5163 C   0  0  0  0  0  0  0  0  0  0  0  0
  -18.6549  -45.8816   -6.9339 C   0  0  0  0  0  0  0  0  0  0  0  0
  -19.9476  -45.7876   -7.3680 C   0  0  0  0  0  0  0  0  0  0  0  0
  -20.5519  -44.5537   -7.7510 C   0  0  0  0  0  0  0  0  0  0  0  0
  -19.7984  -43.3967   -7.6796 C   0  0  0  0  0  0  0  0  0  0  0  0
  -18.4981  -43.4335   -7.2482 C   0  0  0  0  0  0  0  0  0  0  0  0
  -17.9651  -44.7062   -6.8858 C   0  0  0  0  0  0  0  0  0  0  0  0
  -17.4882  -42.3941   -7.0318 C   0  0  0  0  0  0  0  0  0  0  0  0
  -16.2345  -42.7101   -7.3966 O   0  0  0  0  0  0  0  0  0  0  0  0
  -17.4890  -41.0889   -6.5122 N   0  0  0  0  0  0  0  0  0  0  0  0
  -18.1890  -39.9034   -7.0423 C   0  0  1  0  0  0  0  0  0  0  0  0
  -19.0006  -39.2100   -5.9546 C   0  0  0  0  0  0  0  0  0  0  0  0
  -20.4690  -39.4470   -6.0160 C   0  0  0  0  0  0  0  0  0  0  0  0
  -21.1533  -40.6295   -5.9370 C   0  0  0  0  0  0  0  0  0  0  0  0
  -22.5192  -40.5734   -6.1247 C   0  0  0  0  0  0  0  0  0  0  0  0
  -23.1884  -39.3799   -6.3704 C   0  0  0  0  0  0  0  0  0  0  0  0
  -22.5321  -38.1718   -6.4497 C   0  0  0  0  0  0  0  0  0  0  0  0
  -21.1738  -38.2482   -6.2687 C   0  0  0  0  0  0  0  0  0  0  0  0
  -23.4397  -41.6694   -6.1164 O   0  0  0  0  0  0  0  0  0  0  0  0
  -23.2727  -42.8578   -6.8712 C   0  0  0  0  0  0  0  0  0  0  0  0
  -24.5442  -43.4601   -7.3212 C   0  0  0  0  0  0  0  0  0  0  0  0
  -24.2404  -44.6475   -8.2427 C   0  0  0  0  0  0  0  0  0  0  0  0
  -22.8857  -44.4667   -8.9229 C   0  0  0  0  0  0  0  0  0  0  0  0
  -21.8430  -44.7695   -8.1311 O   0  0  0  0  0  0  0  0  0  0  0  0
  -17.0836  -39.0181   -7.5766 C   0  0  2  0  0  0  0  0  0  0  0  0
  -17.5136  -37.7350   -7.8024 O   0  0  0  0  0  0  0  0  0  0  0  0
  -16.2421  -39.5695   -8.6543 C   0  0  0  0  0  0  0  0  0  0  0  0
  -14.8498  -39.5471   -8.5444 N   0  0  0  0  0  0  0  0  0  0  0  0
  -14.0146  -39.8943   -9.6215 C   0  0  0  0  0  0  0  0  0  0  0  0
  -14.1128  -39.0673  -10.8343 C   0  0  0  0  0  0  0  0  0  0  0  0
  -13.6365  -37.7876  -10.8306 C   0  0  0  0  0  0  0  0  0  0  0  0
  -13.6628  -36.9352  -11.9148 C   0  0  0  0  0  0  0  0  0  0  0  0
  -14.2105  -37.4221  -13.0744 C   0  0  0  0  0  0  0  0  0  0  0  0
  -14.7086  -38.7240  -13.1183 C   0  0  0  0  0  0  0  0  0  0  0  0
  -14.6611  -39.5357  -12.0140 C   0  0  0  0  0  0  0  0  0  0  0  0
  -13.1332  -35.5706  -11.7754 C   0  0  0  0  0  0  0  0  0  0  0  0
  -13.4087  -35.0807  -10.3563 C   0  0  0  0  0  0  0  0  0  0  0  0
  -13.5879  -34.5849  -12.7976 C   0  0  0  0  0  0  0  0  0  0  0  0
  1  2  1  0
  2  3  1  0
  3  4  1  0
  4  5  2  0
  5  6  1  0
  6  7  2  0
  7  8  1  0
  8  9  2  0
  8 10  1  0
 10 11  2  0
 10 12  1  0
 12 13  1  0
 13 14  1  1
 14 15  1  0
 15 16  2  0
 16 17  1  0
 17 18  2  0
 18 19  1  0
 19 20  2  0
 17 21  1  0
 21 22  1  0
 22 23  1  0
 23 24  1  0
 24 25  1  0
 25 26  1  0
 13 27  1  0
 27 28  1  6
 27 29  1  0
 29 30  1  0
 30 31  1  0
 31 32  1  0
 32 33  2  0
 33 34  1  0
 34 35  2  0
 35 36  1  0
 36 37  2  0
 34 38  1  0
 38 39  1  0
 38 40  1  0
  9  4  1  0
 20 15  1  0
 26  6  1  0
 37 32  1  0
M  END
$$$$
