
     RDKit          3D

 40 43  0  0  0  0  0  0  0  0999 V2000
  -19.3267  -46.8068   -9.7289 C   0  0  0  0  0  0  0  0  0  0  0  0
  -20.2694  -45.8086   -9.8755 O   0  0  0  0  0  0  0  0  0  0  0  0
  -19.9570  -45.0138  -10.9448 C   0  0  0  0  0  0  0  0  0  0  0  0
  -18.8271  -44.0776  -10.6976 C   0  0  0  0  0  0  0  0  0  0  0  0
  -17.6047  -44.2172  -11.2931 C   0  0  0  0  0  0  0  0  0  0  0  0
  -16.5248  -43.3115  -11.0742 C   0  0  0  0  0  0  0  0  0  0  0  0
  -16.7205  -42.2407  -10.2218 C   0  0  0  0  0  0  0  0  0  0  0  0
  -17.9276  -42.0517   -9.6009 C   0  0  0  0  0  0  0  0  0  0  0  0
  -18.9569  -43.0024   -9.8689 C   0  0  0  0  0  0  0  0  0  0  0  0
  -18.4350  -41.0136   -8.6999 C   0  0  0  0  0  0  0  0  0  0  0  0
  -19.2135  -41.4416   -7.6922 O   0  0  0  0  0  0  0  0  0  0  0  0
  -18.3167  -39.6164   -8.6134 N   0  0  0  0  0  0  0  0  0  0  0  0
  -17.0943  -38.8234   -8.3829 C   0  0  1  0  0  0  0  0  0  0  0  0
  -16.9494  -37.7186   -9.4226 C   0  0  0  0  0  0  0  0  0  0  0  0
  -15.9407  -37.9817  -10.4854 C   0  0  0  0  0  0  0  0  0  0  0  0
  -15.8953  -39.0042  -11.3938 C   0  0  0  0  0  0  0  0  0  0  0  0
  -14.7844  -39.0644  -12.2101 C   0  0  0  0  0  0  0  0  0  0  0  0
  -13.7558  -38.1320  -12.1373 C   0  0  0  0  0  0  0  0  0  0  0  0
  -13.7725  -37.0874  -11.2401 C   0  0  0  0  0  0  0  0  0  0  0  0
  -14.8807  -37.0484  -10.4313 C   0  0  0  0  0  0  0  0  0  0  0  0
  -14.4977  -40.0470  -13.2106 O   0  0  0  0  0  0  0  0  0  0  0  0
  -14.5515  -41.4468  -12.9930 C   0  0  0  0  0  0  0  0  0  0  0  0
  -13.5673  -42.2103  -13.7872 C   0  0  0  0  0  0  0  0  0  0  0  0
  -13.6162  -43.6843  -13.3672 C   0  0  0  0  0  0  0  0  0  0  0  0
  -14.1073  -43.8166  -11.9277 C   0  0  0  0  0  0  0  0  0  0  0  0
  -15.4403  -43.7004  -11.8026 O   0  0  0  0  0  0  0  0  0  0  0  0
  -17.2609  -38.2682   -6.9846 C   0  0  2  0  0  0  0  0  0  0  0  0
  -16.0564  -37.9578   -6.4056 O   0  0  0  0  0  0  0  0  0  0  0  0
  -18.1960  -38.9724   -6.0884 C   0  0  0  0  0  0  0  0  0  0  0  0
  -19.5745  -38.7930   -6.2247 N   0  0  0  0  0  0  0  0  0  0  0  0
  -20.4344  -39.8608   -6.5390 C   0  0  0  0  0  0  0  0  0  0  0  0
  -21.4101  -40.2554   -5.5111 C   0  0  0  0  0  0  0  0  0  0  0  0
  -21.0036  -40.4576   -4.2232 C   0  0  0  0  0  0  0  0  0  0  0  0
  -21.8362  -40.8113   -3.1818 C   0  0  0  0  0  0  0  0  0  0  0  0
  -23.1668  -40.9679   -3.4762 C   0  0  0  0  0  0  0  0  0  0  0  0
  -23.6213  -40.7711   -4.7799 C   0  0  0  0  0  0  0  0  0  0  0  0
  -22.7555  -40.4201   -5.7840 C   0  0  0  0  0  0  0  0  0  0  0  0
  -21.2698  -41.0180   -1.8408 C   0  0  0  0  0  0  0  0  0  0  0  0
  -21.5822  -42.4430   -1.3913 C   0  0  0  0  0  0  0  0  0  0  0  0
  -21.6554  -40.0160   -0.8062 C   0  0  0  0  0  0  0  0  0  0  0  0
  1  2  1  0
  2  3  1  0
  3  4  1  0
  4  5  2  0
  5  6  1  0
  6  7  2  0
  7  8  1  0
  8  9  2  0
  8 10  1  0
 10 11  2  0
 10 12  1  0
 12 13  1  0
 13 14  1  6
 14 15  1  0
 15 16  2  0
 16 17  1  0
 17 18  2  0
 18 19  1  0
 19 20  2  0
 17 21  1  0
 21 22  1  0
 22 23  1  0
 23 24  1  0
 24 25  1  0
 25 26  1  0
 13 27  1  0
 27 28  1  1
 27 29  1  0
 29 30  1  0
 30 31  1  0
 31 32  1  0
 32 33  2  0
 33 34  1  0
 34 35  2  0
 35 36  1  0
 36 37  2  0
 34 38  1  0
 38 39  1  0
 38 40  1  0
  9  4  1  0
 20 15  1  0
 26  6  1  0
 37 32  1  0
M  END
$$$$
