
     RDKit          3D

 40 43  0  0  0  0  0  0  0  0999 V2000
  -22.8534  -41.8201  -12.7022 C   0  0  0  0  0  0  0  0  0  0  0  0
  -22.7950  -42.5221  -11.5147 O   0  0  0  0  0  0  0  0  0  0  0  0
  -21.7228  -43.3724  -11.5178 C   0  0  0  0  0  0  0  0  0  0  0  0
  -20.4355  -42.7297  -11.1385 C   0  0  0  0  0  0  0  0  0  0  0  0
  -19.2704  -42.9438  -11.8205 C   0  0  0  0  0  0  0  0  0  0  0  0
  -18.0384  -42.3151  -11.4725 C   0  0  0  0  0  0  0  0  0  0  0  0
  -18.0183  -41.4469  -10.3967 C   0  0  0  0  0  0  0  0  0  0  0  0
  -19.1587  -41.1938   -9.6800 C   0  0  0  0  0  0  0  0  0  0  0  0
  -20.3502  -41.8634  -10.0886 C   0  0  0  0  0  0  0  0  0  0  0  0
  -19.4501  -40.3131   -8.5458 C   0  0  0  0  0  0  0  0  0  0  0  0
  -20.2763  -40.8137   -7.6122 O   0  0  0  0  0  0  0  0  0  0  0  0
  -19.0748  -39.0145   -8.1631 N   0  0  0  0  0  0  0  0  0  0  0  0
  -17.7233  -38.5214   -7.8366 C   0  0  1  0  0  0  0  0  0  0  0  0
  -17.3955  -37.2537   -8.6164 C   0  0  0  0  0  0  0  0  0  0  0  0
  -16.4715  -37.4433   -9.7681 C   0  0  0  0  0  0  0  0  0  0  0  0
  -16.6313  -38.2262  -10.8791 C   0  0  0  0  0  0  0  0  0  0  0  0
  -15.5651  -38.2949  -11.7523 C   0  0  0  0  0  0  0  0  0  0  0  0
  -14.3812  -37.5986  -11.5377 C   0  0  0  0  0  0  0  0  0  0  0  0
  -14.1891  -36.7971  -10.4344 C   0  0  0  0  0  0  0  0  0  0  0  0
  -15.2567  -36.7474   -9.5733 C   0  0  0  0  0  0  0  0  0  0  0  0
  -15.4822  -39.0612  -12.9584 O   0  0  0  0  0  0  0  0  0  0  0  0
  -15.7892  -40.4422  -13.0493 C   0  0  0  0  0  0  0  0  0  0  0  0
  -14.9768  -41.1676  -14.0473 C   0  0  0  0  0  0  0  0  0  0  0  0
  -15.2892  -42.6662  -13.9574 C   0  0  0  0  0  0  0  0  0  0  0  0
  -15.7708  -43.0314  -12.5556 C   0  0  0  0  0  0  0  0  0  0  0  0
  -17.0572  -42.7141  -12.3304 O   0  0  0  0  0  0  0  0  0  0  0  0
  -17.7600  -38.2755   -6.3435 C   0  0  2  0  0  0  0  0  0  0  0  0
  -16.5034  -38.1224   -5.8146 O   0  0  0  0  0  0  0  0  0  0  0  0
  -18.6500  -39.1353   -5.5420 C   0  0  0  0  0  0  0  0  0  0  0  0
  -19.9536  -39.3957   -5.9706 N   0  0  0  0  0  0  0  0  0  0  0  0
  -21.0748  -38.9075   -5.2756 C   0  0  0  0  0  0  0  0  0  0  0  0
  -21.8963  -39.8951   -4.5586 C   0  0  0  0  0  0  0  0  0  0  0  0
  -21.7035  -40.1057   -3.2233 C   0  0  0  0  0  0  0  0  0  0  0  0
  -22.4280  -40.9923   -2.4540 C   0  0  0  0  0  0  0  0  0  0  0  0
  -23.4102  -41.7080   -3.0903 C   0  0  0  0  0  0  0  0  0  0  0  0
  -23.6375  -41.5220   -4.4536 C   0  0  0  0  0  0  0  0  0  0  0  0
  -22.8911  -40.6285   -5.1784 C   0  0  0  0  0  0  0  0  0  0  0  0
  -22.1088  -41.1401   -1.0263 C   0  0  0  0  0  0  0  0  0  0  0  0
  -22.7192  -39.9671   -0.2638 C   0  0  0  0  0  0  0  0  0  0  0  0
  -20.6670  -41.3241   -0.6940 C   0  0  0  0  0  0  0  0  0  0  0  0
  1  2  1  0
  2  3  1  0
  3  4  1  0
  4  5  2  0
  5  6  1  0
  6  7  2  0
  7  8  1  0
  8  9  2  0
  8 10  1  0
 10 11  2  0
 10 12  1  0
 12 13  1  0
 13 14  1  6
 14 15  1  0
 15 16  2  0
 16 17  1  0
 17 18  2  0
 18 19  1  0
 19 20  2  0
 17 21  1  0
 21 22  1  0
 22 23  1  0
 23 24  1  0
 24 25  1  0
 25 26  1  0
 13 27  1  0
 27 28  1  1
 27 29  1  0
 29 30  1  0
 30 31  1  0
 31 32  1  0
 32 33  2  0
 33 34  1  0
 34 35  2  0
 35 36  1  0
 36 37  2  0
 34 38  1  0
 38 39  1  0
 38 40  1  0
  9  4  1  0
 20 15  1  0
 26  6  1  0
 37 32  1  0
M  END
$$$$
