
     RDKit          3D

 40 43  0  0  0  0  0  0  0  0999 V2000
  -24.5962  -43.1421  -10.3600 C   0  0  0  0  0  0  0  0  0  0  0  0
  -23.2214  -43.2018  -10.4734 O   0  0  0  0  0  0  0  0  0  0  0  0
  -22.7054  -44.0650   -9.5452 C   0  0  0  0  0  0  0  0  0  0  0  0
  -21.2224  -44.0214   -9.4321 C   0  0  0  0  0  0  0  0  0  0  0  0
  -20.4253  -45.0958   -9.7129 C   0  0  0  0  0  0  0  0  0  0  0  0
  -19.0025  -45.0531   -9.6245 C   0  0  0  0  0  0  0  0  0  0  0  0
  -18.3977  -43.8712   -9.2386 C   0  0  0  0  0  0  0  0  0  0  0  0
  -19.1493  -42.7624   -8.9484 C   0  0  0  0  0  0  0  0  0  0  0  0
  -20.5663  -42.8859   -9.0576 C   0  0  0  0  0  0  0  0  0  0  0  0
  -18.8002  -41.3926   -8.5629 C   0  0  0  0  0  0  0  0  0  0  0  0
  -19.5834  -40.8292   -7.6280 O   0  0  0  0  0  0  0  0  0  0  0  0
  -17.8123  -40.4669   -8.9381 N   0  0  0  0  0  0  0  0  0  0  0  0
  -16.3509  -40.5856   -8.7747 C   0  0  1  0  0  0  0  0  0  0  0  0
  -15.6249  -40.3024  -10.0844 C   0  0  0  0  0  0  0  0  0  0  0  0
  -15.1101  -41.5063  -10.7929 C   0  0  0  0  0  0  0  0  0  0  0  0
  -15.8040  -42.5832  -11.2740 C   0  0  0  0  0  0  0  0  0  0  0  0
  -15.0607  -43.6171  -11.8057 C   0  0  0  0  0  0  0  0  0  0  0  0
  -13.6725  -43.5792  -11.8705 C   0  0  0  0  0  0  0  0  0  0  0  0
  -12.9435  -42.5089  -11.4020 C   0  0  0  0  0  0  0  0  0  0  0  0
  -13.6989  -41.4943  -10.8695 C   0  0  0  0  0  0  0  0  0  0  0  0
  -15.5521  -44.8498  -12.3419 O   0  0  0  0  0  0  0  0  0  0  0  0
  -16.4663  -45.7027  -11.6736 C   0  0  0  0  0  0  0  0  0  0  0  0
  -16.2662  -47.1364  -11.9680 C   0  0  0  0  0  0  0  0  0  0  0  0
  -17.2067  -47.9673  -11.0868 C   0  0  0  0  0  0  0  0  0  0  0  0
  -17.5446  -47.2143   -9.8026 C   0  0  0  0  0  0  0  0  0  0  0  0
  -18.4813  -46.2649   -9.9678 O   0  0  0  0  0  0  0  0  0  0  0  0
  -16.0058  -39.5727   -7.7042 C   0  0  2  0  0  0  0  0  0  0  0  0
  -14.7264  -39.7329   -7.2353 O   0  0  0  0  0  0  0  0  0  0  0  0
  -17.0091  -39.3409   -6.6492 C   0  0  0  0  0  0  0  0  0  0  0  0
  -17.4968  -38.0542   -6.4092 N   0  0  0  0  0  0  0  0  0  0  0  0
  -18.2705  -37.3645   -7.3601 C   0  0  0  0  0  0  0  0  0  0  0  0
  -19.5606  -37.9657   -7.7322 C   0  0  0  0  0  0  0  0  0  0  0  0
  -20.4787  -38.2675   -6.7674 C   0  0  0  0  0  0  0  0  0  0  0  0
  -21.7215  -38.8154   -7.0080 C   0  0  0  0  0  0  0  0  0  0  0  0
  -22.0450  -39.0706   -8.3165 C   0  0  0  0  0  0  0  0  0  0  0  0
  -21.1339  -38.7772   -9.3308 C   0  0  0  0  0  0  0  0  0  0  0  0
  -19.9085  -38.2327   -9.0434 C   0  0  0  0  0  0  0  0  0  0  0  0
  -22.6130  -39.1116   -5.8769 C   0  0  0  0  0  0  0  0  0  0  0  0
  -24.0400  -39.2503   -6.4010 C   0  0  0  0  0  0  0  0  0  0  0  0
  -22.5383  -38.1719   -4.7216 C   0  0  0  0  0  0  0  0  0  0  0  0
  1  2  1  0
  2  3  1  0
  3  4  1  0
  4  5  2  0
  5  6  1  0
  6  7  2  0
  7  8  1  0
  8  9  2  0
  8 10  1  0
 10 11  2  0
 10 12  1  0
 12 13  1  0
 13 14  1  6
 14 15  1  0
 15 16  2  0
 16 17  1  0
 17 18  2  0
 18 19  1  0
 19 20  2  0
 17 21  1  0
 21 22  1  0
 22 23  1  0
 23 24  1  0
 24 25  1  0
 25 26  1  0
 13 27  1  0
 27 28  1  1
 27 29  1  0
 29 30  1  0
 30 31  1  0
 31 32  1  0
 32 33  2  0
 33 34  1  0
 34 35  2  0
 35 36  1  0
 36 37  2  0
 34 38  1  0
 38 39  1  0
 38 40  1  0
  9  4  1  0
 20 15  1  0
 26  6  1  0
 37 32  1  0
M  END
$$$$
