
     RDKit          3D

 40 43  0  0  0  0  0  0  0  0999 V2000
  -18.6793  -44.9222   -2.9424 C   0  0  0  0  0  0  0  0  0  0  0  0
  -17.6889  -44.7664   -3.8918 O   0  0  0  0  0  0  0  0  0  0  0  0
  -18.1205  -45.2227   -5.1076 C   0  0  0  0  0  0  0  0  0  0  0  0
  -18.5307  -44.1471   -6.0505 C   0  0  0  0  0  0  0  0  0  0  0  0
  -19.5846  -44.2776   -6.9111 C   0  0  0  0  0  0  0  0  0  0  0  0
  -19.9934  -43.2424   -7.8030 C   0  0  0  0  0  0  0  0  0  0  0  0
  -19.2944  -42.0495   -7.7985 C   0  0  0  0  0  0  0  0  0  0  0  0
  -18.2314  -41.8642   -6.9534 C   0  0  0  0  0  0  0  0  0  0  0  0
  -17.8827  -42.9480   -6.0938 C   0  0  0  0  0  0  0  0  0  0  0  0
  -17.3459  -40.7251   -6.6980 C   0  0  0  0  0  0  0  0  0  0  0  0
  -16.0497  -41.0218   -6.5066 O   0  0  0  0  0  0  0  0  0  0  0  0
  -17.5083  -39.3338   -6.5917 N   0  0  0  0  0  0  0  0  0  0  0  0
  -17.9554  -38.3917   -7.6353 C   0  0  1  0  0  0  0  0  0  0  0  0
  -19.0873  -37.5053   -7.1297 C   0  0  0  0  0  0  0  0  0  0  0  0
  -20.4429  -37.8701   -7.6251 C   0  0  0  0  0  0  0  0  0  0  0  0
  -21.1309  -39.0421   -7.4639 C   0  0  0  0  0  0  0  0  0  0  0  0
  -22.3410  -39.1500   -8.1181 C   0  0  0  0  0  0  0  0  0  0  0  0
  -22.8597  -38.1228   -8.8980 C   0  0  0  0  0  0  0  0  0  0  0  0
  -22.1975  -36.9286   -9.0763 C   0  0  0  0  0  0  0  0  0  0  0  0
  -20.9924  -36.8425   -8.4250 C   0  0  0  0  0  0  0  0  0  0  0  0
  -23.2234  -40.2770   -8.1255 O   0  0  0  0  0  0  0  0  0  0  0  0
  -22.8204  -41.6043   -8.4178 C   0  0  0  0  0  0  0  0  0  0  0  0
  -23.8606  -42.4065   -9.0934 C   0  0  0  0  0  0  0  0  0  0  0  0
  -23.2708  -43.7657   -9.4886 C   0  0  0  0  0  0  0  0  0  0  0  0
  -21.7602  -43.6598   -9.6824 C   0  0  0  0  0  0  0  0  0  0  0  0
  -21.0701  -43.6562   -8.5292 O   0  0  0  0  0  0  0  0  0  0  0  0
  -16.7176  -37.5908   -7.9783 C   0  0  2  0  0  0  0  0  0  0  0  0
  -17.0187  -36.4497   -8.6779 O   0  0  0  0  0  0  0  0  0  0  0  0
  -15.5608  -38.3349   -8.5090 C   0  0  0  0  0  0  0  0  0  0  0  0
  -15.7400  -39.5824   -9.1112 N   0  0  0  0  0  0  0  0  0  0  0  0
  -14.7573  -40.1550   -9.9388 C   0  0  0  0  0  0  0  0  0  0  0  0
  -14.1947  -39.2994  -10.9951 C   0  0  0  0  0  0  0  0  0  0  0  0
  -13.2932  -39.8120  -11.8835 C   0  0  0  0  0  0  0  0  0  0  0  0
  -12.7194  -39.1041  -12.9191 C   0  0  0  0  0  0  0  0  0  0  0  0
  -13.0907  -37.7904  -13.0539 C   0  0  0  0  0  0  0  0  0  0  0  0
  -14.0083  -37.2296  -12.1660 C   0  0  0  0  0  0  0  0  0  0  0  0
  -14.5528  -37.9730  -11.1503 C   0  0  0  0  0  0  0  0  0  0  0  0
  -11.7453  -39.7685  -13.7975 C   0  0  0  0  0  0  0  0  0  0  0  0
  -11.0552  -38.7096  -14.6533 C   0  0  0  0  0  0  0  0  0  0  0  0
  -12.2709  -40.8912  -14.6261 C   0  0  0  0  0  0  0  0  0  0  0  0
  1  2  1  0
  2  3  1  0
  3  4  1  0
  4  5  2  0
  5  6  1  0
  6  7  2  0
  7  8  1  0
  8  9  2  0
  8 10  1  0
 10 11  2  0
 10 12  1  0
 12 13  1  0
 13 14  1  1
 14 15  1  0
 15 16  2  0
 16 17  1  0
 17 18  2  0
 18 19  1  0
 19 20  2  0
 17 21  1  0
 21 22  1  0
 22 23  1  0
 23 24  1  0
 24 25  1  0
 25 26  1  0
 13 27  1  0
 27 28  1  6
 27 29  1  0
 29 30  1  0
 30 31  1  0
 31 32  1  0
 32 33  2  0
 33 34  1  0
 34 35  2  0
 35 36  1  0
 36 37  2  0
 34 38  1  0
 38 39  1  0
 38 40  1  0
  9  4  1  0
 20 15  1  0
 26  6  1  0
 37 32  1  0
M  END
$$$$
