
     RDKit          3D

 40 43  0  0  0  0  0  0  0  0999 V2000
  -15.4540  -46.8210   -7.8248 C   0  0  0  0  0  0  0  0  0  0  0  0
  -16.5458  -46.7144   -8.6633 O   0  0  0  0  0  0  0  0  0  0  0  0
  -17.7055  -46.7266   -7.9369 C   0  0  0  0  0  0  0  0  0  0  0  0
  -18.4344  -45.4294   -7.9325 C   0  0  0  0  0  0  0  0  0  0  0  0
  -19.7982  -45.3450   -7.9703 C   0  0  0  0  0  0  0  0  0  0  0  0
  -20.5018  -44.1046   -7.9467 C   0  0  0  0  0  0  0  0  0  0  0  0
  -19.7738  -42.9310   -7.8811 C   0  0  0  0  0  0  0  0  0  0  0  0
  -18.4042  -42.9583   -7.8378 C   0  0  0  0  0  0  0  0  0  0  0  0
  -17.7742  -44.2378   -7.8680 C   0  0  0  0  0  0  0  0  0  0  0  0
  -17.3879  -41.9087   -7.7266 C   0  0  0  0  0  0  0  0  0  0  0  0
  -16.2837  -42.0807   -8.4723 O   0  0  0  0  0  0  0  0  0  0  0  0
  -17.2591  -40.7111   -7.0037 N   0  0  0  0  0  0  0  0  0  0  0  0
  -18.0953  -39.4996   -7.1014 C   0  0  1  0  0  0  0  0  0  0  0  0
  -18.5765  -39.0494   -5.7272 C   0  0  0  0  0  0  0  0  0  0  0  0
  -19.9995  -39.3638   -5.4234 C   0  0  0  0  0  0  0  0  0  0  0  0
  -20.6184  -40.5832   -5.3704 C   0  0  0  0  0  0  0  0  0  0  0  0
  -21.9825  -40.5817   -5.1621 C   0  0  0  0  0  0  0  0  0  0  0  0
  -22.7091  -39.4079   -4.9982 C   0  0  0  0  0  0  0  0  0  0  0  0
  -22.1175  -38.1650   -5.0391 C   0  0  0  0  0  0  0  0  0  0  0  0
  -20.7623  -38.1859   -5.2553 C   0  0  0  0  0  0  0  0  0  0  0  0
  -22.8491  -41.7189   -5.0956 O   0  0  0  0  0  0  0  0  0  0  0  0
  -22.8861  -42.7519   -6.0657 C   0  0  0  0  0  0  0  0  0  0  0  0
  -24.2250  -43.3488   -6.2480 C   0  0  0  0  0  0  0  0  0  0  0  0
  -24.1779  -44.3446   -7.4132 C   0  0  0  0  0  0  0  0  0  0  0  0
  -23.0722  -43.9689   -8.3965 C   0  0  0  0  0  0  0  0  0  0  0  0
  -21.8448  -44.3339   -7.9890 O   0  0  0  0  0  0  0  0  0  0  0  0
  -17.1969  -38.4706   -7.7532 C   0  0  2  0  0  0  0  0  0  0  0  0
  -17.7434  -37.2126   -7.7191 O   0  0  0  0  0  0  0  0  0  0  0  0
  -16.5929  -38.8297   -9.0493 C   0  0  0  0  0  0  0  0  0  0  0  0
  -15.3499  -39.4651   -9.0969 N   0  0  0  0  0  0  0  0  0  0  0  0
  -14.9480  -40.2271  -10.2088 C   0  0  0  0  0  0  0  0  0  0  0  0
  -14.5678  -39.4866  -11.4218 C   0  0  0  0  0  0  0  0  0  0  0  0
  -14.3349  -38.1425  -11.3584 C   0  0  0  0  0  0  0  0  0  0  0  0
  -13.9574  -37.3582  -12.4285 C   0  0  0  0  0  0  0  0  0  0  0  0
  -13.8094  -37.9878  -13.6383 C   0  0  0  0  0  0  0  0  0  0  0  0
  -14.0389  -39.3593  -13.7442 C   0  0  0  0  0  0  0  0  0  0  0  0
  -14.4133  -40.0989  -12.6517 C   0  0  0  0  0  0  0  0  0  0  0  0
  -13.7550  -35.9151  -12.2321 C   0  0  0  0  0  0  0  0  0  0  0  0
  -12.6420  -35.7115  -11.2076 C   0  0  0  0  0  0  0  0  0  0  0  0
  -14.9719  -35.1245  -11.8896 C   0  0  0  0  0  0  0  0  0  0  0  0
  1  2  1  0
  2  3  1  0
  3  4  1  0
  4  5  2  0
  5  6  1  0
  6  7  2  0
  7  8  1  0
  8  9  2  0
  8 10  1  0
 10 11  2  0
 10 12  1  0
 12 13  1  0
 13 14  1  1
 14 15  1  0
 15 16  2  0
 16 17  1  0
 17 18  2  0
 18 19  1  0
 19 20  2  0
 17 21  1  0
 21 22  1  0
 22 23  1  0
 23 24  1  0
 24 25  1  0
 25 26  1  0
 13 27  1  0
 27 28  1  6
 27 29  1  0
 29 30  1  0
 30 31  1  0
 31 32  1  0
 32 33  2  0
 33 34  1  0
 34 35  2  0
 35 36  1  0
 36 37  2  0
 34 38  1  0
 38 39  1  0
 38 40  1  0
  9  4  1  0
 20 15  1  0
 26  6  1  0
 37 32  1  0
M  END
$$$$
