
     RDKit          3D

 40 43  0  0  0  0  0  0  0  0999 V2000
  -17.4405  -45.8764  -14.0399 C   0  0  0  0  0  0  0  0  0  0  0  0
  -18.1206  -45.7747  -12.8426 O   0  0  0  0  0  0  0  0  0  0  0  0
  -17.2789  -46.0326  -11.7949 C   0  0  0  0  0  0  0  0  0  0  0  0
  -16.4577  -44.8657  -11.3727 C   0  0  0  0  0  0  0  0  0  0  0  0
  -15.1723  -44.6717  -11.7952 C   0  0  0  0  0  0  0  0  0  0  0  0
  -14.3880  -43.5449  -11.4085 C   0  0  0  0  0  0  0  0  0  0  0  0
  -14.9515  -42.6022  -10.5686 C   0  0  0  0  0  0  0  0  0  0  0  0
  -16.2377  -42.7460  -10.1178 C   0  0  0  0  0  0  0  0  0  0  0  0
  -16.9559  -43.9014  -10.5470 C   0  0  0  0  0  0  0  0  0  0  0  0
  -17.0987  -41.9132   -9.2739 C   0  0  0  0  0  0  0  0  0  0  0  0
  -17.8708  -42.5721   -8.3938 O   0  0  0  0  0  0  0  0  0  0  0  0
  -17.3422  -40.5360   -9.1415 N   0  0  0  0  0  0  0  0  0  0  0  0
  -16.3947  -39.4844   -8.7260 C   0  0  1  0  0  0  0  0  0  0  0  0
  -16.3944  -38.3217   -9.7113 C   0  0  0  0  0  0  0  0  0  0  0  0
  -15.2231  -38.2733  -10.6288 C   0  0  0  0  0  0  0  0  0  0  0  0
  -14.8086  -39.2026  -11.5440 C   0  0  0  0  0  0  0  0  0  0  0  0
  -13.6214  -38.9465  -12.1988 C   0  0  0  0  0  0  0  0  0  0  0  0
  -12.8741  -37.7982  -11.9634 C   0  0  0  0  0  0  0  0  0  0  0  0
  -13.2649  -36.8400  -11.0548 C   0  0  0  0  0  0  0  0  0  0  0  0
  -14.4434  -37.1155  -10.4074 C   0  0  0  0  0  0  0  0  0  0  0  0
  -12.9732  -39.7736  -13.1707 O   0  0  0  0  0  0  0  0  0  0  0  0
  -12.7064  -41.1545  -12.9931 C   0  0  0  0  0  0  0  0  0  0  0  0
  -11.4696  -41.6117  -13.6590 C   0  0  0  0  0  0  0  0  0  0  0  0
  -11.2060  -43.0745  -13.2819 C   0  0  0  0  0  0  0  0  0  0  0  0
  -11.8312  -43.4012  -11.9280 C   0  0  0  0  0  0  0  0  0  0  0  0
  -13.1561  -43.6186  -11.9871 O   0  0  0  0  0  0  0  0  0  0  0  0
  -16.8733  -39.0642   -7.3528 C   0  0  2  0  0  0  0  0  0  0  0  0
  -15.9770  -38.2370   -6.7246 O   0  0  0  0  0  0  0  0  0  0  0  0
  -17.4326  -40.1163   -6.4845 C   0  0  0  0  0  0  0  0  0  0  0  0
  -18.4024  -40.9942   -6.9743 N   0  0  0  0  0  0  0  0  0  0  0  0
  -19.4859  -40.5449   -7.7505 C   0  0  0  0  0  0  0  0  0  0  0  0
  -20.7034  -40.1460   -7.0275 C   0  0  0  0  0  0  0  0  0  0  0  0
  -21.2414  -38.9064   -7.2245 C   0  0  0  0  0  0  0  0  0  0  0  0
  -22.3861  -38.4393   -6.6128 C   0  0  0  0  0  0  0  0  0  0  0  0
  -23.0195  -39.2931   -5.7459 C   0  0  0  0  0  0  0  0  0  0  0  0
  -22.5009  -40.5673   -5.5172 C   0  0  0  0  0  0  0  0  0  0  0  0
  -21.3587  -40.9885   -6.1485 C   0  0  0  0  0  0  0  0  0  0  0  0
  -22.8525  -37.0741   -6.8965 C   0  0  0  0  0  0  0  0  0  0  0  0
  -23.6106  -37.0807   -8.2214 C   0  0  0  0  0  0  0  0  0  0  0  0
  -21.8119  -36.0067   -6.8615 C   0  0  0  0  0  0  0  0  0  0  0  0
  1  2  1  0
  2  3  1  0
  3  4  1  0
  4  5  2  0
  5  6  1  0
  6  7  2  0
  7  8  1  0
  8  9  2  0
  8 10  1  0
 10 11  2  0
 10 12  1  0
 12 13  1  0
 13 14  1  6
 14 15  1  0
 15 16  2  0
 16 17  1  0
 17 18  2  0
 18 19  1  0
 19 20  2  0
 17 21  1  0
 21 22  1  0
 22 23  1  0
 23 24  1  0
 24 25  1  0
 25 26  1  0
 13 27  1  0
 27 28  1  1
 27 29  1  0
 29 30  1  0
 30 31  1  0
 31 32  1  0
 32 33  2  0
 33 34  1  0
 34 35  2  0
 35 36  1  0
 36 37  2  0
 34 38  1  0
 38 39  1  0
 38 40  1  0
  9  4  1  0
 20 15  1  0
 26  6  1  0
 37 32  1  0
M  END
$$$$
