
     RDKit          3D

 40 43  0  0  0  0  0  0  0  0999 V2000
  -19.2940  -46.4766   -9.6131 C   0  0  0  0  0  0  0  0  0  0  0  0
  -20.0542  -45.3857   -9.9850 O   0  0  0  0  0  0  0  0  0  0  0  0
  -19.5432  -44.8151  -11.1190 C   0  0  0  0  0  0  0  0  0  0  0  0
  -18.3759  -43.9241  -10.8788 C   0  0  0  0  0  0  0  0  0  0  0  0
  -17.1829  -44.0733  -11.5292 C   0  0  0  0  0  0  0  0  0  0  0  0
  -16.0676  -43.2100  -11.3165 C   0  0  0  0  0  0  0  0  0  0  0  0
  -16.1962  -42.1719  -10.4124 C   0  0  0  0  0  0  0  0  0  0  0  0
  -17.3714  -41.9748   -9.7353 C   0  0  0  0  0  0  0  0  0  0  0  0
  -18.4394  -42.8825  -10.0009 C   0  0  0  0  0  0  0  0  0  0  0  0
  -17.8104  -40.9624   -8.7713 C   0  0  0  0  0  0  0  0  0  0  0  0
  -18.5613  -41.4108   -7.7516 O   0  0  0  0  0  0  0  0  0  0  0  0
  -17.6455  -39.5744   -8.6309 N   0  0  0  0  0  0  0  0  0  0  0  0
  -16.3910  -38.8282   -8.4171 C   0  0  1  0  0  0  0  0  0  0  0  0
  -16.2531  -37.6841   -9.4144 C   0  0  0  0  0  0  0  0  0  0  0  0
  -15.2959  -37.9301  -10.5276 C   0  0  0  0  0  0  0  0  0  0  0  0
  -15.3181  -38.9132  -11.4795 C   0  0  0  0  0  0  0  0  0  0  0  0
  -14.2428  -38.9703  -12.3422 C   0  0  0  0  0  0  0  0  0  0  0  0
  -13.1837  -38.0724  -12.2722 C   0  0  0  0  0  0  0  0  0  0  0  0
  -13.1325  -37.0677  -11.3318 C   0  0  0  0  0  0  0  0  0  0  0  0
  -14.2061  -37.0315  -10.4775 C   0  0  0  0  0  0  0  0  0  0  0  0
  -14.0265  -39.9165  -13.3942 O   0  0  0  0  0  0  0  0  0  0  0  0
  -14.1149  -41.3223  -13.2338 C   0  0  0  0  0  0  0  0  0  0  0  0
  -13.1871  -42.0791  -14.0990 C   0  0  0  0  0  0  0  0  0  0  0  0
  -13.2649  -43.5678  -13.7399 C   0  0  0  0  0  0  0  0  0  0  0  0
  -13.7026  -43.7481  -12.2885 C   0  0  0  0  0  0  0  0  0  0  0  0
  -15.0253  -43.5985  -12.1043 O   0  0  0  0  0  0  0  0  0  0  0  0
  -16.4849  -38.3296   -6.9910 C   0  0  2  0  0  0  0  0  0  0  0  0
  -15.3186  -37.7408   -6.5723 O   0  0  0  0  0  0  0  0  0  0  0  0
  -17.0909  -39.2372   -5.9998 C   0  0  0  0  0  0  0  0  0  0  0  0
  -18.3255  -38.9300   -5.4234 N   0  0  0  0  0  0  0  0  0  0  0  0
  -19.2916  -38.1653   -6.1019 C   0  0  0  0  0  0  0  0  0  0  0  0
  -20.4592  -38.8859   -6.6329 C   0  0  0  0  0  0  0  0  0  0  0  0
  -21.3145  -39.5248   -5.7815 C   0  0  0  0  0  0  0  0  0  0  0  0
  -22.4448  -40.2126   -6.1714 C   0  0  0  0  0  0  0  0  0  0  0  0
  -22.7168  -40.2492   -7.5155 C   0  0  0  0  0  0  0  0  0  0  0  0
  -21.8669  -39.6095   -8.4173 C   0  0  0  0  0  0  0  0  0  0  0  0
  -20.7532  -38.9374   -7.9829 C   0  0  0  0  0  0  0  0  0  0  0  0
  -23.2753  -40.8752   -5.1549 C   0  0  0  0  0  0  0  0  0  0  0  0
  -23.5170  -42.3196   -5.5852 C   0  0  0  0  0  0  0  0  0  0  0  0
  -24.5482  -40.1851   -4.7988 C   0  0  0  0  0  0  0  0  0  0  0  0
  1  2  1  0
  2  3  1  0
  3  4  1  0
  4  5  2  0
  5  6  1  0
  6  7  2  0
  7  8  1  0
  8  9  2  0
  8 10  1  0
 10 11  2  0
 10 12  1  0
 12 13  1  0
 13 14  1  6
 14 15  1  0
 15 16  2  0
 16 17  1  0
 17 18  2  0
 18 19  1  0
 19 20  2  0
 17 21  1  0
 21 22  1  0
 22 23  1  0
 23 24  1  0
 24 25  1  0
 25 26  1  0
 13 27  1  0
 27 28  1  1
 27 29  1  0
 29 30  1  0
 30 31  1  0
 31 32  1  0
 32 33  2  0
 33 34  1  0
 34 35  2  0
 35 36  1  0
 36 37  2  0
 34 38  1  0
 38 39  1  0
 38 40  1  0
  9  4  1  0
 20 15  1  0
 26  6  1  0
 37 32  1  0
M  END
$$$$
