
     RDKit          3D

 40 43  0  0  0  0  0  0  0  0999 V2000
  -24.0181  -40.7889  -10.9452 C   0  0  0  0  0  0  0  0  0  0  0  0
  -22.6994  -40.3814  -10.9104 O   0  0  0  0  0  0  0  0  0  0  0  0
  -21.9036  -41.2928  -11.5496 C   0  0  0  0  0  0  0  0  0  0  0  0
  -20.7209  -41.7285  -10.7586 C   0  0  0  0  0  0  0  0  0  0  0  0
  -20.5414  -43.0180  -10.3422 C   0  0  0  0  0  0  0  0  0  0  0  0
  -19.4001  -43.4442   -9.6005 C   0  0  0  0  0  0  0  0  0  0  0  0
  -18.4274  -42.5127   -9.2877 C   0  0  0  0  0  0  0  0  0  0  0  0
  -18.5557  -41.2068   -9.6833 C   0  0  0  0  0  0  0  0  0  0  0  0
  -19.7271  -40.8584  -10.4192 C   0  0  0  0  0  0  0  0  0  0  0  0
  -17.6931  -40.0310   -9.5403 C   0  0  0  0  0  0  0  0  0  0  0  0
  -18.3197  -38.8738   -9.2700 O   0  0  0  0  0  0  0  0  0  0  0  0
  -16.3122  -39.7857   -9.6204 N   0  0  0  0  0  0  0  0  0  0  0  0
  -15.2448  -40.3245   -8.7563 C   0  0  1  0  0  0  0  0  0  0  0  0
  -14.1196  -40.9333   -9.5845 C   0  0  0  0  0  0  0  0  0  0  0  0
  -14.1041  -42.4213   -9.6296 C   0  0  0  0  0  0  0  0  0  0  0  0
  -15.0662  -43.2777  -10.0917 C   0  0  0  0  0  0  0  0  0  0  0  0
  -14.8334  -44.6272   -9.9224 C   0  0  0  0  0  0  0  0  0  0  0  0
  -13.6763  -45.1137   -9.3249 C   0  0  0  0  0  0  0  0  0  0  0  0
  -12.6854  -44.2808   -8.8550 C   0  0  0  0  0  0  0  0  0  0  0  0
  -12.9379  -42.9424   -9.0245 C   0  0  0  0  0  0  0  0  0  0  0  0
  -15.6953  -45.7076  -10.2947 O   0  0  0  0  0  0  0  0  0  0  0  0
  -17.0684  -45.7879   -9.9514 C   0  0  0  0  0  0  0  0  0  0  0  0
  -17.5487  -47.1687   -9.7396 C   0  0  0  0  0  0  0  0  0  0  0  0
  -18.9961  -47.1265   -9.2352 C   0  0  0  0  0  0  0  0  0  0  0  0
  -19.2730  -45.8138   -8.5066 C   0  0  0  0  0  0  0  0  0  0  0  0
  -19.4939  -44.7775   -9.3332 O   0  0  0  0  0  0  0  0  0  0  0  0
  -14.7744  -39.1343   -7.9481 C   0  0  2  0  0  0  0  0  0  0  0  0
  -13.8298  -39.4838   -7.0165 O   0  0  0  0  0  0  0  0  0  0  0  0
  -15.8090  -38.2146   -7.4408 C   0  0  0  0  0  0  0  0  0  0  0  0
  -17.0682  -38.6991   -7.0794 N   0  0  0  0  0  0  0  0  0  0  0  0
  -18.0523  -38.9972   -8.0392 C   0  0  0  0  0  0  0  0  0  0  0  0
  -18.2707  -38.0023   -9.1007 C   0  0  0  0  0  0  0  0  0  0  0  0
  -19.3686  -38.0922   -9.9077 C   0  0  0  0  0  0  0  0  0  0  0  0
  -19.6769  -37.2054  -10.9183 C   0  0  0  0  0  0  0  0  0  0  0  0
  -18.8081  -36.1623  -11.1157 C   0  0  0  0  0  0  0  0  0  0  0  0
  -17.6749  -36.0361  -10.3127 C   0  0  0  0  0  0  0  0  0  0  0  0
  -17.4090  -36.9433   -9.3191 C   0  0  0  0  0  0  0  0  0  0  0  0
  -20.8828  -37.4247  -11.7305 C   0  0  0  0  0  0  0  0  0  0  0  0
  -20.9702  -36.3244  -12.7848 C   0  0  0  0  0  0  0  0  0  0  0  0
  -22.1614  -37.5699  -10.9771 C   0  0  0  0  0  0  0  0  0  0  0  0
  1  2  1  0
  2  3  1  0
  3  4  1  0
  4  5  2  0
  5  6  1  0
  6  7  2  0
  7  8  1  0
  8  9  2  0
  8 10  1  0
 10 11  2  0
 10 12  1  0
 12 13  1  0
 13 14  1  6
 14 15  1  0
 15 16  2  0
 16 17  1  0
 17 18  2  0
 18 19  1  0
 19 20  2  0
 17 21  1  0
 21 22  1  0
 22 23  1  0
 23 24  1  0
 24 25  1  0
 25 26  1  0
 13 27  1  0
 27 28  1  1
 27 29  1  0
 29 30  1  0
 30 31  1  0
 31 32  1  0
 32 33  2  0
 33 34  1  0
 34 35  2  0
 35 36  1  0
 36 37  2  0
 34 38  1  0
 38 39  1  0
 38 40  1  0
  9  4  1  0
 20 15  1  0
 26  6  1  0
 37 32  1  0
M  END
$$$$
