
     RDKit          3D

 40 43  0  0  0  0  0  0  0  0999 V2000
  -17.6560  -47.1578   -4.7217 C   0  0  0  0  0  0  0  0  0  0  0  0
  -16.9316  -47.1095   -5.8962 O   0  0  0  0  0  0  0  0  0  0  0  0
  -17.7743  -47.1115   -6.9744 C   0  0  0  0  0  0  0  0  0  0  0  0
  -18.4150  -45.7967   -7.2482 C   0  0  0  0  0  0  0  0  0  0  0  0
  -19.7427  -45.6665   -7.5462 C   0  0  0  0  0  0  0  0  0  0  0  0
  -20.3653  -44.4067   -7.7904 C   0  0  0  0  0  0  0  0  0  0  0  0
  -19.5934  -43.2617   -7.7218 C   0  0  0  0  0  0  0  0  0  0  0  0
  -18.2577  -43.3348   -7.4236 C   0  0  0  0  0  0  0  0  0  0  0  0
  -17.7085  -44.6314   -7.1952 C   0  0  0  0  0  0  0  0  0  0  0  0
  -17.2180  -42.3182   -7.2434 C   0  0  0  0  0  0  0  0  0  0  0  0
  -16.0101  -42.6192   -7.7488 O   0  0  0  0  0  0  0  0  0  0  0  0
  -17.1508  -41.0484   -6.6461 N   0  0  0  0  0  0  0  0  0  0  0  0
  -17.8837  -39.8269   -7.0300 C   0  0  1  0  0  0  0  0  0  0  0  0
  -18.5759  -39.1980   -5.8267 C   0  0  0  0  0  0  0  0  0  0  0  0
  -20.0462  -39.4205   -5.7579 C   0  0  0  0  0  0  0  0  0  0  0  0
  -20.7349  -40.6008   -5.6856 C   0  0  0  0  0  0  0  0  0  0  0  0
  -22.1118  -40.5235   -5.7342 C   0  0  0  0  0  0  0  0  0  0  0  0
  -22.7861  -39.3123   -5.8381 C   0  0  0  0  0  0  0  0  0  0  0  0
  -22.1249  -38.1061   -5.9064 C   0  0  0  0  0  0  0  0  0  0  0  0
  -20.7565  -38.2033   -5.8650 C   0  0  0  0  0  0  0  0  0  0  0  0
  -23.0414  -41.6115   -5.7034 O   0  0  0  0  0  0  0  0  0  0  0  0
  -22.9645  -42.7509   -6.5434 C   0  0  0  0  0  0  0  0  0  0  0  0
  -24.2818  -43.3148   -6.9026 C   0  0  0  0  0  0  0  0  0  0  0  0
  -24.0852  -44.4437   -7.9216 C   0  0  0  0  0  0  0  0  0  0  0  0
  -22.8012  -44.2297   -8.7193 C   0  0  0  0  0  0  0  0  0  0  0  0
  -21.6901  -44.5891   -8.0543 O   0  0  0  0  0  0  0  0  0  0  0  0
  -16.8243  -38.9174   -7.6145 C   0  0  2  0  0  0  0  0  0  0  0  0
  -17.2146  -37.6021   -7.6118 O   0  0  0  0  0  0  0  0  0  0  0  0
  -16.1818  -39.3522   -8.8682 C   0  0  0  0  0  0  0  0  0  0  0  0
  -15.3839  -40.4984   -8.8918 N   0  0  0  0  0  0  0  0  0  0  0  0
  -14.2955  -40.6269   -9.7735 C   0  0  0  0  0  0  0  0  0  0  0  0
  -14.3945  -39.9229  -11.0615 C   0  0  0  0  0  0  0  0  0  0  0  0
  -13.7953  -38.7067  -11.2246 C   0  0  0  0  0  0  0  0  0  0  0  0
  -13.8116  -37.9719  -12.3919 C   0  0  0  0  0  0  0  0  0  0  0  0
  -14.4828  -38.5147  -13.4581 C   0  0  0  0  0  0  0  0  0  0  0  0
  -15.1088  -39.7545  -13.3311 C   0  0  0  0  0  0  0  0  0  0  0  0
  -15.0660  -40.4493  -12.1494 C   0  0  0  0  0  0  0  0  0  0  0  0
  -13.1418  -36.6637  -12.4328 C   0  0  0  0  0  0  0  0  0  0  0  0
  -13.2683  -36.0054  -11.0615 C   0  0  0  0  0  0  0  0  0  0  0  0
  -13.5671  -35.7449  -13.5274 C   0  0  0  0  0  0  0  0  0  0  0  0
  1  2  1  0
  2  3  1  0
  3  4  1  0
  4  5  2  0
  5  6  1  0
  6  7  2  0
  7  8  1  0
  8  9  2  0
  8 10  1  0
 10 11  2  0
 10 12  1  0
 12 13  1  0
 13 14  1  1
 14 15  1  0
 15 16  2  0
 16 17  1  0
 17 18  2  0
 18 19  1  0
 19 20  2  0
 17 21  1  0
 21 22  1  0
 22 23  1  0
 23 24  1  0
 24 25  1  0
 25 26  1  0
 13 27  1  0
 27 28  1  6
 27 29  1  0
 29 30  1  0
 30 31  1  0
 31 32  1  0
 32 33  2  0
 33 34  1  0
 34 35  2  0
 35 36  1  0
 36 37  2  0
 34 38  1  0
 38 39  1  0
 38 40  1  0
  9  4  1  0
 20 15  1  0
 26  6  1  0
 37 32  1  0
M  END
$$$$
