
     RDKit          3D

 40 43  0  0  0  0  0  0  0  0999 V2000
  -17.5952  -47.5720   -4.5203 C   0  0  0  0  0  0  0  0  0  0  0  0
  -17.1714  -46.6952   -5.4991 O   0  0  0  0  0  0  0  0  0  0  0  0
  -17.9813  -46.7833   -6.5987 C   0  0  0  0  0  0  0  0  0  0  0  0
  -18.5727  -45.4859   -7.0243 C   0  0  0  0  0  0  0  0  0  0  0  0
  -19.8983  -45.3377   -7.3233 C   0  0  0  0  0  0  0  0  0  0  0  0
  -20.4733  -44.0920   -7.7129 C   0  0  0  0  0  0  0  0  0  0  0  0
  -19.6552  -42.9802   -7.7914 C   0  0  0  0  0  0  0  0  0  0  0  0
  -18.3193  -43.0721   -7.4993 C   0  0  0  0  0  0  0  0  0  0  0  0
  -17.8193  -44.3532   -7.1201 C   0  0  0  0  0  0  0  0  0  0  0  0
  -17.2372  -42.0852   -7.4541 C   0  0  0  0  0  0  0  0  0  0  0  0
  -16.0499  -42.4951   -7.9305 O   0  0  0  0  0  0  0  0  0  0  0  0
  -17.1105  -40.7563   -7.0163 N   0  0  0  0  0  0  0  0  0  0  0  0
  -17.7993  -39.5610   -7.5389 C   0  0  1  0  0  0  0  0  0  0  0  0
  -18.4482  -38.7627   -6.4145 C   0  0  0  0  0  0  0  0  0  0  0  0
  -19.9251  -38.9139   -6.3052 C   0  0  0  0  0  0  0  0  0  0  0  0
  -20.6595  -40.0472   -6.0833 C   0  0  0  0  0  0  0  0  0  0  0  0
  -22.0327  -39.9191   -6.1277 C   0  0  0  0  0  0  0  0  0  0  0  0
  -22.6593  -38.7024   -6.3718 C   0  0  0  0  0  0  0  0  0  0  0  0
  -21.9514  -37.5420   -6.5925 C   0  0  0  0  0  0  0  0  0  0  0  0
  -20.5875  -37.6901   -6.5527 C   0  0  0  0  0  0  0  0  0  0  0  0
  -23.0046  -40.9558   -5.9560 O   0  0  0  0  0  0  0  0  0  0  0  0
  -22.9857  -42.1908   -6.6518 C   0  0  0  0  0  0  0  0  0  0  0  0
  -24.3296  -42.7388   -6.9272 C   0  0  0  0  0  0  0  0  0  0  0  0
  -24.1932  -43.9900   -7.8032 C   0  0  0  0  0  0  0  0  0  0  0  0
  -22.9134  -43.9278   -8.6331 C   0  0  0  0  0  0  0  0  0  0  0  0
  -21.8080  -44.2498   -7.9400 O   0  0  0  0  0  0  0  0  0  0  0  0
  -16.7129  -38.7737   -8.2398 C   0  0  2  0  0  0  0  0  0  0  0  0
  -16.9697  -37.4260   -8.2387 O   0  0  0  0  0  0  0  0  0  0  0  0
  -16.2331  -39.2942   -9.5331 C   0  0  0  0  0  0  0  0  0  0  0  0
  -15.4909  -40.4762   -9.5867 N   0  0  0  0  0  0  0  0  0  0  0  0
  -14.2718  -40.5560  -10.2838 C   0  0  0  0  0  0  0  0  0  0  0  0
  -14.0640  -39.5917  -11.3752 C   0  0  0  0  0  0  0  0  0  0  0  0
  -13.3249  -38.4637  -11.1605 C   0  0  0  0  0  0  0  0  0  0  0  0
  -13.0549  -37.5063  -12.1161 C   0  0  0  0  0  0  0  0  0  0  0  0
  -13.5733  -37.7157  -13.3688 C   0  0  0  0  0  0  0  0  0  0  0  0
  -14.3343  -38.8553  -13.6279 C   0  0  0  0  0  0  0  0  0  0  0  0
  -14.5770  -39.7806  -12.6452 C   0  0  0  0  0  0  0  0  0  0  0  0
  -12.2596  -36.3244  -11.7518 C   0  0  0  0  0  0  0  0  0  0  0  0
  -12.6022  -35.1884  -12.7120 C   0  0  0  0  0  0  0  0  0  0  0  0
  -10.7870  -36.5337  -11.6474 C   0  0  0  0  0  0  0  0  0  0  0  0
  1  2  1  0
  2  3  1  0
  3  4  1  0
  4  5  2  0
  5  6  1  0
  6  7  2  0
  7  8  1  0
  8  9  2  0
  8 10  1  0
 10 11  2  0
 10 12  1  0
 12 13  1  0
 13 14  1  1
 14 15  1  0
 15 16  2  0
 16 17  1  0
 17 18  2  0
 18 19  1  0
 19 20  2  0
 17 21  1  0
 21 22  1  0
 22 23  1  0
 23 24  1  0
 24 25  1  0
 25 26  1  0
 13 27  1  0
 27 28  1  6
 27 29  1  0
 29 30  1  0
 30 31  1  0
 31 32  1  0
 32 33  2  0
 33 34  1  0
 34 35  2  0
 35 36  1  0
 36 37  2  0
 34 38  1  0
 38 39  1  0
 38 40  1  0
  9  4  1  0
 20 15  1  0
 26  6  1  0
 37 32  1  0
M  END
$$$$
