
     RDKit          3D

 40 43  0  0  0  0  0  0  0  0999 V2000
  -18.8563  -47.0184   -3.6117 C   0  0  0  0  0  0  0  0  0  0  0  0
  -19.6400  -45.8944   -3.7817 O   0  0  0  0  0  0  0  0  0  0  0  0
  -20.4778  -46.0570   -4.8514 C   0  0  0  0  0  0  0  0  0  0  0  0
  -20.5358  -44.8822   -5.7629 C   0  0  0  0  0  0  0  0  0  0  0  0
  -21.6587  -44.5427   -6.4645 C   0  0  0  0  0  0  0  0  0  0  0  0
  -21.7250  -43.4067   -7.3243 C   0  0  0  0  0  0  0  0  0  0  0  0
  -20.6036  -42.6087   -7.4555 C   0  0  0  0  0  0  0  0  0  0  0  0
  -19.4522  -42.9016   -6.7724 C   0  0  0  0  0  0  0  0  0  0  0  0
  -19.4644  -44.0561   -5.9346 C   0  0  0  0  0  0  0  0  0  0  0  0
  -18.1500  -42.2363   -6.6793 C   0  0  0  0  0  0  0  0  0  0  0  0
  -17.0782  -43.0461   -6.6598 O   0  0  0  0  0  0  0  0  0  0  0  0
  -17.7083  -40.9053   -6.5969 N   0  0  0  0  0  0  0  0  0  0  0  0
  -17.8686  -39.8340   -7.5985 C   0  0  1  0  0  0  0  0  0  0  0  0
  -18.4523  -38.5743   -6.9700 C   0  0  0  0  0  0  0  0  0  0  0  0
  -19.8924  -38.3340   -7.2607 C   0  0  0  0  0  0  0  0  0  0  0  0
  -20.9721  -39.1222   -6.9677 C   0  0  0  0  0  0  0  0  0  0  0  0
  -22.1975  -38.7035   -7.4441 C   0  0  0  0  0  0  0  0  0  0  0  0
  -22.3504  -37.5326   -8.1776 C   0  0  0  0  0  0  0  0  0  0  0  0
  -21.2871  -36.7130   -8.4846 C   0  0  0  0  0  0  0  0  0  0  0  0
  -20.0756  -37.1495   -8.0097 C   0  0  0  0  0  0  0  0  0  0  0  0
  -23.4573  -39.3659   -7.2925 O   0  0  0  0  0  0  0  0  0  0  0  0
  -23.6819  -40.7326   -7.5944 C   0  0  0  0  0  0  0  0  0  0  0  0
  -25.0433  -41.0156   -8.0930 C   0  0  0  0  0  0  0  0  0  0  0  0
  -25.1271  -42.4855   -8.5216 C   0  0  0  0  0  0  0  0  0  0  0  0
  -23.7503  -43.0064   -8.9262 C   0  0  0  0  0  0  0  0  0  0  0  0
  -22.9664  -43.3196   -7.8805 O   0  0  0  0  0  0  0  0  0  0  0  0
  -16.4720  -39.6054   -8.1355 C   0  0  2  0  0  0  0  0  0  0  0  0
  -16.2913  -38.3172   -8.5717 O   0  0  0  0  0  0  0  0  0  0  0  0
  -15.9240  -40.6306   -9.0423 C   0  0  0  0  0  0  0  0  0  0  0  0
  -14.6094  -41.0775   -8.8901 N   0  0  0  0  0  0  0  0  0  0  0  0
  -13.8039  -41.4042   -9.9959 C   0  0  0  0  0  0  0  0  0  0  0  0
  -13.1130  -40.2931  -10.6685 C   0  0  0  0  0  0  0  0  0  0  0  0
  -11.9857  -39.7543  -10.1176 C   0  0  0  0  0  0  0  0  0  0  0  0
  -11.2534  -38.7253  -10.6724 C   0  0  0  0  0  0  0  0  0  0  0  0
  -11.7024  -38.2159  -11.8643 C   0  0  0  0  0  0  0  0  0  0  0  0
  -12.8506  -38.7387  -12.4586 C   0  0  0  0  0  0  0  0  0  0  0  0
  -13.5470  -39.7627  -11.8693 C   0  0  0  0  0  0  0  0  0  0  0  0
  -10.0653  -38.2211   -9.9680 C   0  0  0  0  0  0  0  0  0  0  0  0
   -8.9032  -39.1780  -10.2205 C   0  0  0  0  0  0  0  0  0  0  0  0
  -10.2386  -37.9346   -8.5150 C   0  0  0  0  0  0  0  0  0  0  0  0
  1  2  1  0
  2  3  1  0
  3  4  1  0
  4  5  2  0
  5  6  1  0
  6  7  2  0
  7  8  1  0
  8  9  2  0
  8 10  1  0
 10 11  2  0
 10 12  1  0
 12 13  1  0
 13 14  1  1
 14 15  1  0
 15 16  2  0
 16 17  1  0
 17 18  2  0
 18 19  1  0
 19 20  2  0
 17 21  1  0
 21 22  1  0
 22 23  1  0
 23 24  1  0
 24 25  1  0
 25 26  1  0
 13 27  1  0
 27 28  1  6
 27 29  1  0
 29 30  1  0
 30 31  1  0
 31 32  1  0
 32 33  2  0
 33 34  1  0
 34 35  2  0
 35 36  1  0
 36 37  2  0
 34 38  1  0
 38 39  1  0
 38 40  1  0
  9  4  1  0
 20 15  1  0
 26  6  1  0
 37 32  1  0
M  END
$$$$
