
     RDKit          3D

 37 39  0  0  0  0  0  0  0  0999 V2000
  -12.8167  -41.3919  -10.4956 C   0  0  0  0  0  0  0  0  0  0  0  0
  -13.3169  -40.1635   -9.7746 C   0  0  2  0  0  0  0  0  0  0  0  0
  -14.5539  -40.4443   -9.0931 N   0  0  0  0  0  0  0  0  0  0  0  0
  -15.0483  -39.3134   -8.3458 C   0  0  0  0  0  0  0  0  0  0  0  0
  -16.2565  -39.6547   -7.5699 C   0  0  1  0  0  0  0  0  0  0  0  0
  -16.2475  -38.8974   -6.3700 O   0  0  0  0  0  0  0  0  0  0  0  0
  -17.5836  -39.3725   -8.2033 C   0  0  2  0  0  0  0  0  0  0  0  0
  -18.6755  -39.1205   -7.1898 C   0  0  0  0  0  0  0  0  0  0  0  0
  -19.6826  -38.1020   -7.6930 C   0  0  2  0  0  0  0  0  0  0  0  0
  -19.3404  -36.7779   -7.0279 C   0  0  0  0  0  0  0  0  0  0  0  0
  -21.0973  -38.4115   -7.4359 C   0  0  0  0  0  0  0  0  0  0  0  0
  -21.4435  -39.7135   -6.8119 C   0  0  0  0  0  0  0  0  0  0  0  0
  -22.9169  -39.8438   -6.4692 C   0  0  0  0  0  0  0  0  0  0  0  0
  -23.0207  -40.8585   -5.3468 C   0  0  0  0  0  0  0  0  0  0  0  0
  -22.7577  -42.2640   -5.8510 C   0  0  0  0  0  0  0  0  0  0  0  0
  -22.5117  -43.2511   -4.7757 C   0  0  0  0  0  0  0  0  0  0  0  0
  -21.0891  -43.5551   -4.4637 C   0  0  0  0  0  0  0  0  0  0  0  0
  -20.3508  -44.1896   -5.4476 O   0  0  0  0  0  0  0  0  0  0  0  0
  -19.9364  -43.8919   -6.7408 C   0  0  0  0  0  0  0  0  0  0  0  0
  -19.1479  -42.8334   -7.1639 C   0  0  0  0  0  0  0  0  0  0  0  0
  -18.8514  -42.7087   -8.4964 C   0  0  0  0  0  0  0  0  0  0  0  0
  -19.3707  -43.6881   -9.3931 C   0  0  0  0  0  0  0  0  0  0  0  0
  -20.1485  -44.7476   -9.0206 C   0  0  0  0  0  0  0  0  0  0  0  0
  -20.4165  -44.8226   -7.6735 C   0  0  0  0  0  0  0  0  0  0  0  0
  -18.0671  -41.7155   -9.2435 C   0  0  0  0  0  0  0  0  0  0  0  0
  -17.2576  -42.2329  -10.1996 O   0  0  0  0  0  0  0  0  0  0  0  0
  -17.9513  -40.3100   -9.2079 N   0  0  0  0  0  0  0  0  0  0  0  0
  -13.4824  -39.0183  -10.7230 C   0  0  0  0  0  0  0  0  0  0  0  0
  -12.9933  -37.7473  -10.5464 C   0  0  0  0  0  0  0  0  0  0  0  0
  -13.3723  -36.9933  -11.6682 C   0  0  0  0  0  0  0  0  0  0  0  0
  -13.0993  -35.5832  -11.9676 C   0  0  0  0  0  0  0  0  0  0  0  0
  -12.2850  -35.3788  -13.2152 C   0  0  0  0  0  0  0  0  0  0  0  0
  -11.6141  -36.6461  -13.6941 C   0  0  0  0  0  0  0  0  0  0  0  0
  -13.2672  -34.9827  -14.3243 C   0  0  0  0  0  0  0  0  0  0  0  0
  -11.2661  -34.2940  -13.1095 C   0  0  0  0  0  0  0  0  0  0  0  0
  -14.0435  -37.8121  -12.4342 O   0  0  0  0  0  0  0  0  0  0  0  0
  -14.1210  -38.9977  -11.9047 N   0  0  0  0  0  0  0  0  0  0  0  0
  2  1  1  6
  2  3  1  0
  3  4  1  0
  4  5  1  0
  5  6  1  1
  5  7  1  0
  7  8  1  1
  8  9  1  0
  9 10  1  1
  9 11  1  0
 11 12  1  0
 12 13  1  0
 13 14  1  0
 14 15  1  0
 15 16  1  0
 16 17  1  0
 17 18  1  0
 18 19  1  0
 19 20  2  0
 20 21  1  0
 21 22  2  0
 22 23  1  0
 23 24  2  0
 21 25  1  0
 25 26  2  0
 25 27  1  0
  2 28  1  0
 28 29  1  0
 29 30  2  0
 30 31  1  0
 31 32  1  0
 32 33  1  0
 32 34  1  0
 32 35  1  0
 30 36  1  0
 36 37  1  0
 24 19  1  0
 27  7  1  0
 37 28  2  0
M  END
$$$$
