
     RDKit          3D

 37 39  0  0  0  0  0  0  0  0999 V2000
  -11.8787  -41.0577   -9.0410 C   0  0  0  0  0  0  0  0  0  0  0  0
  -12.9037  -39.9759   -9.2818 C   0  0  2  0  0  0  0  0  0  0  0  0
  -14.1415  -40.2937   -8.6182 N   0  0  0  0  0  0  0  0  0  0  0  0
  -15.0467  -39.1717   -8.5585 C   0  0  0  0  0  0  0  0  0  0  0  0
  -16.1296  -39.3922   -7.5803 C   0  0  1  0  0  0  0  0  0  0  0  0
  -15.8532  -38.6184   -6.4235 O   0  0  0  0  0  0  0  0  0  0  0  0
  -17.5167  -39.0050   -7.9903 C   0  0  2  0  0  0  0  0  0  0  0  0
  -18.4718  -38.9217   -6.8226 C   0  0  0  0  0  0  0  0  0  0  0  0
  -19.5084  -37.8310   -7.0235 C   0  0  2  0  0  0  0  0  0  0  0  0
  -19.0578  -36.6366   -6.1971 C   0  0  0  0  0  0  0  0  0  0  0  0
  -20.8885  -38.1749   -6.6486 C   0  0  0  0  0  0  0  0  0  0  0  0
  -21.1867  -39.5615   -6.2093 C   0  0  0  0  0  0  0  0  0  0  0  0
  -22.6105  -39.7427   -5.7138 C   0  0  0  0  0  0  0  0  0  0  0  0
  -22.6012  -40.9293   -4.7694 C   0  0  0  0  0  0  0  0  0  0  0  0
  -22.4338  -42.2323   -5.5263 C   0  0  0  0  0  0  0  0  0  0  0  0
  -22.0825  -43.3849   -4.6665 C   0  0  0  0  0  0  0  0  0  0  0  0
  -20.6401  -43.7405   -4.5864 C   0  0  0  0  0  0  0  0  0  0  0  0
  -20.0411  -44.2049   -5.7445 O   0  0  0  0  0  0  0  0  0  0  0  0
  -19.7794  -43.6979   -7.0123 C   0  0  0  0  0  0  0  0  0  0  0  0
  -19.0236  -42.5861   -7.3494 C   0  0  0  0  0  0  0  0  0  0  0  0
  -18.8877  -42.2427   -8.6695 C   0  0  0  0  0  0  0  0  0  0  0  0
  -19.5343  -43.0582   -9.6441 C   0  0  0  0  0  0  0  0  0  0  0  0
  -20.2857  -44.1627   -9.3580 C   0  0  0  0  0  0  0  0  0  0  0  0
  -20.3903  -44.4594   -8.0189 C   0  0  0  0  0  0  0  0  0  0  0  0
  -18.1767  -41.1415   -9.3340 C   0  0  0  0  0  0  0  0  0  0  0  0
  -17.5011  -41.4952  -10.4545 O   0  0  0  0  0  0  0  0  0  0  0  0
  -18.0249  -39.7617   -9.0824 N   0  0  0  0  0  0  0  0  0  0  0  0
  -13.1260  -39.7675  -10.7466 C   0  0  0  0  0  0  0  0  0  0  0  0
  -12.9599  -38.5868  -11.4279 C   0  0  0  0  0  0  0  0  0  0  0  0
  -13.2711  -38.8332  -12.7744 C   0  0  0  0  0  0  0  0  0  0  0  0
  -13.2517  -37.9055  -13.9109 C   0  0  0  0  0  0  0  0  0  0  0  0
  -11.9194  -37.8295  -14.6041 C   0  0  0  0  0  0  0  0  0  0  0  0
  -12.0162  -37.2704  -16.0054 C   0  0  0  0  0  0  0  0  0  0  0  0
  -11.0666  -36.8290  -13.8145 C   0  0  0  0  0  0  0  0  0  0  0  0
  -11.1751  -39.1220  -14.6419 C   0  0  0  0  0  0  0  0  0  0  0  0
  -13.5962  -40.0974  -12.8365 O   0  0  0  0  0  0  0  0  0  0  0  0
  -13.5192  -40.6628  -11.6676 N   0  0  0  0  0  0  0  0  0  0  0  0
  2  1  1  6
  2  3  1  0
  3  4  1  0
  4  5  1  0
  5  6  1  1
  5  7  1  0
  7  8  1  1
  8  9  1  0
  9 10  1  1
  9 11  1  0
 11 12  1  0
 12 13  1  0
 13 14  1  0
 14 15  1  0
 15 16  1  0
 16 17  1  0
 17 18  1  0
 18 19  1  0
 19 20  2  0
 20 21  1  0
 21 22  2  0
 22 23  1  0
 23 24  2  0
 21 25  1  0
 25 26  2  0
 25 27  1  0
  2 28  1  0
 28 29  1  0
 29 30  2  0
 30 31  1  0
 31 32  1  0
 32 33  1  0
 32 34  1  0
 32 35  1  0
 30 36  1  0
 36 37  1  0
 24 19  1  0
 27  7  1  0
 37 28  2  0
M  END
$$$$
