
     RDKit          3D

 37 39  0  0  0  0  0  0  0  0999 V2000
  -12.2471  -41.6310   -9.6733 C   0  0  0  0  0  0  0  0  0  0  0  0
  -13.1357  -40.4118   -9.6203 C   0  0  2  0  0  0  0  0  0  0  0  0
  -14.4480  -40.7615   -9.1417 N   0  0  0  0  0  0  0  0  0  0  0  0
  -15.3488  -39.6349   -9.1097 C   0  0  0  0  0  0  0  0  0  0  0  0
  -16.4650  -39.8518   -8.1688 C   0  0  1  0  0  0  0  0  0  0  0  0
  -16.2494  -39.0428   -7.0232 O   0  0  0  0  0  0  0  0  0  0  0  0
  -17.8421  -39.5036   -8.6427 C   0  0  2  0  0  0  0  0  0  0  0  0
  -18.8209  -39.3086   -7.5084 C   0  0  0  0  0  0  0  0  0  0  0  0
  -19.8496  -38.2406   -7.8337 C   0  0  2  0  0  0  0  0  0  0  0  0
  -19.4123  -36.9737   -7.1151 C   0  0  0  0  0  0  0  0  0  0  0  0
  -21.2382  -38.5456   -7.4568 C   0  0  0  0  0  0  0  0  0  0  0  0
  -21.5500  -39.8838   -6.8941 C   0  0  0  0  0  0  0  0  0  0  0  0
  -22.9843  -40.0154   -6.4137 C   0  0  0  0  0  0  0  0  0  0  0  0
  -22.9985  -41.1070   -5.3608 C   0  0  0  0  0  0  0  0  0  0  0  0
  -22.8196  -42.4762   -5.9869 C   0  0  0  0  0  0  0  0  0  0  0  0
  -22.4899  -43.5423   -5.0144 C   0  0  0  0  0  0  0  0  0  0  0  0
  -21.0506  -43.8905   -4.8707 C   0  0  0  0  0  0  0  0  0  0  0  0
  -20.4293  -44.4635   -5.9667 O   0  0  0  0  0  0  0  0  0  0  0  0
  -20.1397  -44.0795   -7.2711 C   0  0  0  0  0  0  0  0  0  0  0  0
  -19.3734  -43.0057   -7.6964 C   0  0  0  0  0  0  0  0  0  0  0  0
  -19.2091  -42.7895   -9.0400 C   0  0  0  0  0  0  0  0  0  0  0  0
  -19.8379  -43.6930   -9.9461 C   0  0  0  0  0  0  0  0  0  0  0  0
  -20.5987  -44.7644   -9.5722 C   0  0  0  0  0  0  0  0  0  0  0  0
  -20.7320  -44.9325   -8.2135 C   0  0  0  0  0  0  0  0  0  0  0  0
  -18.4809  -41.7572   -9.7909 C   0  0  0  0  0  0  0  0  0  0  0  0
  -17.7833  -42.2166  -10.8584 O   0  0  0  0  0  0  0  0  0  0  0  0
  -18.3299  -40.3600   -9.6684 N   0  0  0  0  0  0  0  0  0  0  0  0
  -13.2187  -39.7529  -10.9609 C   0  0  0  0  0  0  0  0  0  0  0  0
  -12.8968  -38.4474  -11.2397 C   0  0  0  0  0  0  0  0  0  0  0  0
  -13.1168  -38.2457  -12.6114 C   0  0  0  0  0  0  0  0  0  0  0  0
  -12.9250  -37.0285  -13.4077 C   0  0  0  0  0  0  0  0  0  0  0  0
  -11.4974  -36.7967  -13.8198 C   0  0  0  0  0  0  0  0  0  0  0  0
  -10.5258  -36.9154  -12.6677 C   0  0  0  0  0  0  0  0  0  0  0  0
  -11.1296  -37.9237  -14.7927 C   0  0  0  0  0  0  0  0  0  0  0  0
  -11.2670  -35.5022  -14.5247 C   0  0  0  0  0  0  0  0  0  0  0  0
  -13.5430  -39.3915  -13.0733 O   0  0  0  0  0  0  0  0  0  0  0  0
  -13.6107  -40.2850  -12.1305 N   0  0  0  0  0  0  0  0  0  0  0  0
  2  1  1  6
  2  3  1  0
  3  4  1  0
  4  5  1  0
  5  6  1  1
  5  7  1  0
  7  8  1  1
  8  9  1  0
  9 10  1  1
  9 11  1  0
 11 12  1  0
 12 13  1  0
 13 14  1  0
 14 15  1  0
 15 16  1  0
 16 17  1  0
 17 18  1  0
 18 19  1  0
 19 20  2  0
 20 21  1  0
 21 22  2  0
 22 23  1  0
 23 24  2  0
 21 25  1  0
 25 26  2  0
 25 27  1  0
  2 28  1  0
 28 29  1  0
 29 30  2  0
 30 31  1  0
 31 32  1  0
 32 33  1  0
 32 34  1  0
 32 35  1  0
 30 36  1  0
 36 37  1  0
 24 19  1  0
 27  7  1  0
 37 28  2  0
M  END
$$$$
