
     RDKit          3D

 37 39  0  0  0  0  0  0  0  0999 V2000
  -12.8208  -41.3200  -10.1595 C   0  0  0  0  0  0  0  0  0  0  0  0
  -13.2398  -40.1413   -9.3144 C   0  0  2  0  0  0  0  0  0  0  0  0
  -14.5713  -40.3336   -8.8009 N   0  0  0  0  0  0  0  0  0  0  0  0
  -14.8359  -39.5400   -7.6253 C   0  0  0  0  0  0  0  0  0  0  0  0
  -16.1779  -39.8088   -7.0730 C   0  0  1  0  0  0  0  0  0  0  0  0
  -16.3548  -39.0078   -5.9152 O   0  0  0  0  0  0  0  0  0  0  0  0
  -17.3552  -39.5034   -7.9462 C   0  0  2  0  0  0  0  0  0  0  0  0
  -18.5741  -39.0795   -7.1604 C   0  0  0  0  0  0  0  0  0  0  0  0
  -19.3976  -38.0515   -7.9153 C   0  0  2  0  0  0  0  0  0  0  0  0
  -19.0613  -36.6934   -7.3194 C   0  0  0  0  0  0  0  0  0  0  0  0
  -20.8559  -38.2389   -7.8781 C   0  0  0  0  0  0  0  0  0  0  0  0
  -21.4059  -39.4463   -7.2115 C   0  0  0  0  0  0  0  0  0  0  0  0
  -22.9212  -39.4434   -7.1160 C   0  0  0  0  0  0  0  0  0  0  0  0
  -23.2911  -40.3320   -5.9438 C   0  0  0  0  0  0  0  0  0  0  0  0
  -23.0656  -41.7951   -6.2712 C   0  0  0  0  0  0  0  0  0  0  0  0
  -23.0816  -42.6842   -5.0878 C   0  0  0  0  0  0  0  0  0  0  0  0
  -21.7594  -43.0496   -4.5118 C   0  0  0  0  0  0  0  0  0  0  0  0
  -20.9244  -43.8267   -5.2958 O   0  0  0  0  0  0  0  0  0  0  0  0
  -20.2804  -43.6878   -6.5199 C   0  0  0  0  0  0  0  0  0  0  0  0
  -19.3486  -42.7316   -6.8924 C   0  0  0  0  0  0  0  0  0  0  0  0
  -18.8283  -42.7604   -8.1603 C   0  0  0  0  0  0  0  0  0  0  0  0
  -19.2723  -43.7876   -9.0438 C   0  0  0  0  0  0  0  0  0  0  0  0
  -20.1853  -44.7505   -8.7191 C   0  0  0  0  0  0  0  0  0  0  0  0
  -20.6759  -44.6728   -7.4364 C   0  0  0  0  0  0  0  0  0  0  0  0
  -17.8528  -41.9011   -8.8457 C   0  0  0  0  0  0  0  0  0  0  0  0
  -16.9429  -42.5639   -9.6005 O   0  0  0  0  0  0  0  0  0  0  0  0
  -17.6290  -40.5099   -8.9134 N   0  0  0  0  0  0  0  0  0  0  0  0
  -13.1512  -38.8673  -10.0937 C   0  0  0  0  0  0  0  0  0  0  0  0
  -13.1313  -38.7584  -11.4625 C   0  0  0  0  0  0  0  0  0  0  0  0
  -13.0431  -37.3921  -11.7725 C   0  0  0  0  0  0  0  0  0  0  0  0
  -12.9907  -36.7459  -13.0886 C   0  0  0  0  0  0  0  0  0  0  0  0
  -13.5931  -35.3681  -13.1079 C   0  0  0  0  0  0  0  0  0  0  0  0
  -13.1555  -34.5513  -14.3024 C   0  0  0  0  0  0  0  0  0  0  0  0
  -15.1082  -35.5501  -13.2601 C   0  0  0  0  0  0  0  0  0  0  0  0
  -13.3584  -34.5807  -11.8625 C   0  0  0  0  0  0  0  0  0  0  0  0
  -13.0152  -36.7700  -10.6236 O   0  0  0  0  0  0  0  0  0  0  0  0
  -13.0770  -37.6084   -9.6310 N   0  0  0  0  0  0  0  0  0  0  0  0
  2  1  1  6
  2  3  1  0
  3  4  1  0
  4  5  1  0
  5  6  1  1
  5  7  1  0
  7  8  1  1
  8  9  1  0
  9 10  1  1
  9 11  1  0
 11 12  1  0
 12 13  1  0
 13 14  1  0
 14 15  1  0
 15 16  1  0
 16 17  1  0
 17 18  1  0
 18 19  1  0
 19 20  2  0
 20 21  1  0
 21 22  2  0
 22 23  1  0
 23 24  2  0
 21 25  1  0
 25 26  2  0
 25 27  1  0
  2 28  1  0
 28 29  1  0
 29 30  2  0
 30 31  1  0
 31 32  1  0
 32 33  1  0
 32 34  1  0
 32 35  1  0
 30 36  1  0
 36 37  1  0
 24 19  1  0
 27  7  1  0
 37 28  2  0
M  END
$$$$
