
     RDKit          3D

 37 39  0  0  0  0  0  0  0  0999 V2000
  -12.0593  -40.2395   -8.8670 C   0  0  0  0  0  0  0  0  0  0  0  0
  -13.3178  -39.4118   -8.9662 C   0  0  2  0  0  0  0  0  0  0  0  0
  -14.4792  -40.2219   -8.7049 N   0  0  0  0  0  0  0  0  0  0  0  0
  -15.7158  -39.5181   -8.9445 C   0  0  0  0  0  0  0  0  0  0  0  0
  -16.5930  -39.5311   -7.7576 C   0  0  1  0  0  0  0  0  0  0  0  0
  -16.1356  -38.5398   -6.8512 O   0  0  0  0  0  0  0  0  0  0  0  0
  -18.0440  -39.2296   -7.9710 C   0  0  2  0  0  0  0  0  0  0  0  0
  -18.8592  -39.3430   -6.7039 C   0  0  0  0  0  0  0  0  0  0  0  0
  -19.9924  -38.3332   -6.6747 C   0  0  2  0  0  0  0  0  0  0  0  0
  -19.5404  -37.1888   -5.7810 C   0  0  0  0  0  0  0  0  0  0  0  0
  -21.2887  -38.8313   -6.1900 C   0  0  0  0  0  0  0  0  0  0  0  0
  -21.4267  -40.2745   -5.8695 C   0  0  0  0  0  0  0  0  0  0  0  0
  -22.7645  -40.6268   -5.2438 C   0  0  0  0  0  0  0  0  0  0  0  0
  -22.5541  -41.8933   -4.4363 C   0  0  0  0  0  0  0  0  0  0  0  0
  -22.3777  -43.0978   -5.3400 C   0  0  0  0  0  0  0  0  0  0  0  0
  -21.8411  -44.2923   -4.6499 C   0  0  0  0  0  0  0  0  0  0  0  0
  -20.3763  -44.5260   -4.7654 C   0  0  0  0  0  0  0  0  0  0  0  0
  -19.8836  -44.8226   -6.0243 O   0  0  0  0  0  0  0  0  0  0  0  0
  -19.8118  -44.1751   -7.2524 C   0  0  0  0  0  0  0  0  0  0  0  0
  -19.1877  -42.9740   -7.5508 C   0  0  0  0  0  0  0  0  0  0  0  0
  -19.2341  -42.4948   -8.8343 C   0  0  0  0  0  0  0  0  0  0  0  0
  -19.9264  -43.2665   -9.8132 C   0  0  0  0  0  0  0  0  0  0  0  0
  -20.5526  -44.4550   -9.5649 C   0  0  0  0  0  0  0  0  0  0  0  0
  -20.4766  -44.8871   -8.2612 C   0  0  0  0  0  0  0  0  0  0  0  0
  -18.6920  -41.2767   -9.4524 C   0  0  0  0  0  0  0  0  0  0  0  0
  -18.1274  -41.4605  -10.6709 O   0  0  0  0  0  0  0  0  0  0  0  0
  -18.6175  -39.9195   -9.0749 N   0  0  0  0  0  0  0  0  0  0  0  0
  -13.4204  -38.7549  -10.3065 C   0  0  0  0  0  0  0  0  0  0  0  0
  -13.3208  -37.4080  -10.5548 C   0  0  0  0  0  0  0  0  0  0  0  0
  -13.4727  -37.2249  -11.9382 C   0  0  0  0  0  0  0  0  0  0  0  0
  -13.4468  -35.9790  -12.7126 C   0  0  0  0  0  0  0  0  0  0  0  0
  -12.1627  -35.7638  -13.4651 C   0  0  0  0  0  0  0  0  0  0  0  0
  -10.9435  -35.8054  -12.5722 C   0  0  0  0  0  0  0  0  0  0  0  0
  -12.0125  -36.9460  -14.4304 C   0  0  0  0  0  0  0  0  0  0  0  0
  -12.1328  -34.5135  -14.2785 C   0  0  0  0  0  0  0  0  0  0  0  0
  -13.6494  -38.4203  -12.4357 O   0  0  0  0  0  0  0  0  0  0  0  0
  -13.6229  -39.3281  -11.5045 N   0  0  0  0  0  0  0  0  0  0  0  0
  2  1  1  6
  2  3  1  0
  3  4  1  0
  4  5  1  0
  5  6  1  1
  5  7  1  0
  7  8  1  1
  8  9  1  0
  9 10  1  1
  9 11  1  0
 11 12  1  0
 12 13  1  0
 13 14  1  0
 14 15  1  0
 15 16  1  0
 16 17  1  0
 17 18  1  0
 18 19  1  0
 19 20  2  0
 20 21  1  0
 21 22  2  0
 22 23  1  0
 23 24  2  0
 21 25  1  0
 25 26  2  0
 25 27  1  0
  2 28  1  0
 28 29  1  0
 29 30  2  0
 30 31  1  0
 31 32  1  0
 32 33  1  0
 32 34  1  0
 32 35  1  0
 30 36  1  0
 36 37  1  0
 24 19  1  0
 27  7  1  0
 37 28  2  0
M  END
$$$$
