
     RDKit          3D

 37 39  0  0  0  0  0  0  0  0999 V2000
  -12.5021  -41.6506   -9.5978 C   0  0  0  0  0  0  0  0  0  0  0  0
  -13.1628  -40.3311   -9.2792 C   0  0  2  0  0  0  0  0  0  0  0  0
  -14.4881  -40.5409   -8.7569 N   0  0  0  0  0  0  0  0  0  0  0  0
  -14.9812  -39.4064   -8.0141 C   0  0  0  0  0  0  0  0  0  0  0  0
  -16.2287  -39.7238   -7.2923 C   0  0  1  0  0  0  0  0  0  0  0  0
  -16.2439  -38.9886   -6.0788 O   0  0  0  0  0  0  0  0  0  0  0  0
  -17.5207  -39.3891   -7.9712 C   0  0  2  0  0  0  0  0  0  0  0  0
  -18.6289  -39.0658   -6.9965 C   0  0  0  0  0  0  0  0  0  0  0  0
  -19.5691  -38.0090   -7.5477 C   0  0  2  0  0  0  0  0  0  0  0  0
  -19.1825  -36.6910   -6.8949 C   0  0  0  0  0  0  0  0  0  0  0  0
  -21.0044  -38.2445   -7.3294 C   0  0  0  0  0  0  0  0  0  0  0  0
  -21.4328  -39.5165   -6.6944 C   0  0  0  0  0  0  0  0  0  0  0  0
  -22.9205  -39.5687   -6.3954 C   0  0  0  0  0  0  0  0  0  0  0  0
  -23.1078  -40.5563   -5.2597 C   0  0  0  0  0  0  0  0  0  0  0  0
  -22.8991  -41.9819   -5.7316 C   0  0  0  0  0  0  0  0  0  0  0  0
  -22.7344  -42.9598   -4.6327 C   0  0  0  0  0  0  0  0  0  0  0  0
  -21.3385  -43.3269   -4.2717 C   0  0  0  0  0  0  0  0  0  0  0  0
  -20.6029  -44.0144   -5.2214 O   0  0  0  0  0  0  0  0  0  0  0  0
  -20.1357  -43.7611   -6.5060 C   0  0  0  0  0  0  0  0  0  0  0  0
  -19.2837  -42.7502   -6.9223 C   0  0  0  0  0  0  0  0  0  0  0  0
  -18.9415  -42.6646   -8.2469 C   0  0  0  0  0  0  0  0  0  0  0  0
  -19.4811  -43.6340   -9.1425 C   0  0  0  0  0  0  0  0  0  0  0  0
  -20.3209  -44.6474   -8.7764 C   0  0  0  0  0  0  0  0  0  0  0  0
  -20.6326  -44.6844   -7.4372 C   0  0  0  0  0  0  0  0  0  0  0  0
  -18.0872  -41.7246   -8.9860 C   0  0  0  0  0  0  0  0  0  0  0  0
  -17.2757  -42.2983   -9.9077 O   0  0  0  0  0  0  0  0  0  0  0  0
  -17.9036  -40.3260   -8.9707 N   0  0  0  0  0  0  0  0  0  0  0  0
  -13.2025  -39.4488  -10.4868 C   0  0  0  0  0  0  0  0  0  0  0  0
  -13.1263  -38.0777  -10.4871 C   0  0  0  0  0  0  0  0  0  0  0  0
  -13.1992  -37.6547  -11.8236 C   0  0  0  0  0  0  0  0  0  0  0  0
  -13.1618  -36.2909  -12.3634 C   0  0  0  0  0  0  0  0  0  0  0  0
  -11.7810  -35.8298  -12.7407 C   0  0  0  0  0  0  0  0  0  0  0  0
  -11.7739  -34.4663  -13.3936 C   0  0  0  0  0  0  0  0  0  0  0  0
  -10.9957  -35.6697  -11.4333 C   0  0  0  0  0  0  0  0  0  0  0  0
  -11.0296  -36.7897  -13.6010 C   0  0  0  0  0  0  0  0  0  0  0  0
  -13.3113  -38.7457  -12.5342 O   0  0  0  0  0  0  0  0  0  0  0  0
  -13.3156  -39.8036  -11.7775 N   0  0  0  0  0  0  0  0  0  0  0  0
  2  1  1  6
  2  3  1  0
  3  4  1  0
  4  5  1  0
  5  6  1  1
  5  7  1  0
  7  8  1  1
  8  9  1  0
  9 10  1  1
  9 11  1  0
 11 12  1  0
 12 13  1  0
 13 14  1  0
 14 15  1  0
 15 16  1  0
 16 17  1  0
 17 18  1  0
 18 19  1  0
 19 20  2  0
 20 21  1  0
 21 22  2  0
 22 23  1  0
 23 24  2  0
 21 25  1  0
 25 26  2  0
 25 27  1  0
  2 28  1  0
 28 29  1  0
 29 30  2  0
 30 31  1  0
 31 32  1  0
 32 33  1  0
 32 34  1  0
 32 35  1  0
 30 36  1  0
 36 37  1  0
 24 19  1  0
 27  7  1  0
 37 28  2  0
M  END
$$$$
