
     RDKit          3D

 37 39  0  0  0  0  0  0  0  0999 V2000
  -19.6331  -39.6793   -4.6102 C   0  0  0  0  0  0  0  0  0  0  0  0
  -18.7522  -40.2920   -5.6721 C   0  0  2  0  0  0  0  0  0  0  0  0
  -17.6061  -39.4573   -5.9235 N   0  0  0  0  0  0  0  0  0  0  0  0
  -16.5777  -40.1337   -6.6763 C   0  0  0  0  0  0  0  0  0  0  0  0
  -15.6799  -39.1805   -7.3573 C   0  0  1  0  0  0  0  0  0  0  0  0
  -14.4575  -39.1246   -6.6391 O   0  0  0  0  0  0  0  0  0  0  0  0
  -15.2923  -39.4896   -8.7702 C   0  0  2  0  0  0  0  0  0  0  0  0
  -15.6174  -38.3662   -9.7268 C   0  0  0  0  0  0  0  0  0  0  0  0
  -14.5927  -38.2663  -10.8424 C   0  0  2  0  0  0  0  0  0  0  0  0
  -13.6571  -37.1232  -10.4808 C   0  0  0  0  0  0  0  0  0  0  0  0
  -15.1284  -38.0331  -12.1922 C   0  0  0  0  0  0  0  0  0  0  0  0
  -16.6005  -38.0161  -12.3852 C   0  0  0  0  0  0  0  0  0  0  0  0
  -17.0187  -37.6217  -13.7905 C   0  0  0  0  0  0  0  0  0  0  0  0
  -18.4230  -37.0574  -13.6909 C   0  0  0  0  0  0  0  0  0  0  0  0
  -19.4377  -38.1528  -13.4279 C   0  0  0  0  0  0  0  0  0  0  0  0
  -20.7603  -37.6530  -12.9899 C   0  0  0  0  0  0  0  0  0  0  0  0
  -21.0190  -37.6498  -11.5247 C   0  0  0  0  0  0  0  0  0  0  0  0
  -21.0862  -38.8803  -10.8948 O   0  0  0  0  0  0  0  0  0  0  0  0
  -20.2186  -39.9439  -10.6740 C   0  0  0  0  0  0  0  0  0  0  0  0
  -19.0053  -39.9329  -10.0040 C   0  0  0  0  0  0  0  0  0  0  0  0
  -18.2880  -41.0961   -9.8966 C   0  0  0  0  0  0  0  0  0  0  0  0
  -18.8332  -42.2762  -10.4821 C   0  0  0  0  0  0  0  0  0  0  0  0
  -20.0245  -42.3339  -11.1483 C   0  0  0  0  0  0  0  0  0  0  0  0
  -20.7005  -41.1386  -11.2281 C   0  0  0  0  0  0  0  0  0  0  0  0
  -16.9939  -41.4025   -9.2710 C   0  0  0  0  0  0  0  0  0  0  0  0
  -16.9609  -42.5638   -8.5728 O   0  0  0  0  0  0  0  0  0  0  0  0
  -15.7376  -40.7627   -9.2223 N   0  0  0  0  0  0  0  0  0  0  0  0
  -19.5220  -40.5290   -6.9329 C   0  0  0  0  0  0  0  0  0  0  0  0
  -20.7918  -40.0794   -7.1996 C   0  0  0  0  0  0  0  0  0  0  0  0
  -21.1305  -40.5217   -8.4881 C   0  0  0  0  0  0  0  0  0  0  0  0
  -22.3719  -40.3085   -9.2405 C   0  0  0  0  0  0  0  0  0  0  0  0
  -23.3938  -41.3928   -9.0368 C   0  0  0  0  0  0  0  0  0  0  0  0
  -22.9084  -42.7512   -9.4891 C   0  0  0  0  0  0  0  0  0  0  0  0
  -23.6161  -41.5123   -7.5242 C   0  0  0  0  0  0  0  0  0  0  0  0
  -24.7178  -41.1110   -9.6642 C   0  0  0  0  0  0  0  0  0  0  0  0
  -20.0920  -41.1887   -8.9173 O   0  0  0  0  0  0  0  0  0  0  0  0
  -19.1422  -41.2068   -8.0287 N   0  0  0  0  0  0  0  0  0  0  0  0
  2  1  1  1
  2  3  1  0
  3  4  1  0
  4  5  1  0
  5  6  1  1
  5  7  1  0
  7  8  1  6
  8  9  1  0
  9 10  1  1
  9 11  1  0
 11 12  1  0
 12 13  1  0
 13 14  1  0
 14 15  1  0
 15 16  1  0
 16 17  1  0
 17 18  1  0
 18 19  1  0
 19 20  2  0
 20 21  1  0
 21 22  2  0
 22 23  1  0
 23 24  2  0
 21 25  1  0
 25 26  2  0
 25 27  1  0
  2 28  1  0
 28 29  1  0
 29 30  2  0
 30 31  1  0
 31 32  1  0
 32 33  1  0
 32 34  1  0
 32 35  1  0
 30 36  1  0
 36 37  1  0
 24 19  1  0
 27  7  1  0
 37 28  2  0
M  END
$$$$
