
     RDKit          3D

 37 39  0  0  0  0  0  0  0  0999 V2000
  -13.2183  -37.5158   -9.8256 C   0  0  0  0  0  0  0  0  0  0  0  0
  -14.1924  -38.4602  -10.4875 C   0  0  2  0  0  0  0  0  0  0  0  0
  -14.9525  -39.1796   -9.4985 N   0  0  0  0  0  0  0  0  0  0  0  0
  -15.9532  -38.3600   -8.8591 C   0  0  0  0  0  0  0  0  0  0  0  0
  -16.9559  -39.1752   -8.1461 C   0  0  1  0  0  0  0  0  0  0  0  0
  -16.9815  -38.7670   -6.7874 O   0  0  0  0  0  0  0  0  0  0  0  0
  -18.3759  -39.0817   -8.6117 C   0  0  2  0  0  0  0  0  0  0  0  0
  -19.3713  -39.1579   -7.4777 C   0  0  0  0  0  0  0  0  0  0  0  0
  -20.5944  -38.3001   -7.7473 C   0  0  2  0  0  0  0  0  0  0  0  0
  -20.4189  -37.0182   -6.9481 C   0  0  0  0  0  0  0  0  0  0  0  0
  -21.8925  -38.9003   -7.4040 C   0  0  0  0  0  0  0  0  0  0  0  0
  -21.9276  -40.3062   -6.9276 C   0  0  0  0  0  0  0  0  0  0  0  0
  -23.3051  -40.7525   -6.4707 C   0  0  0  0  0  0  0  0  0  0  0  0
  -23.0972  -41.8879   -5.4869 C   0  0  0  0  0  0  0  0  0  0  0  0
  -22.6483  -43.1518   -6.1939 C   0  0  0  0  0  0  0  0  0  0  0  0
  -22.1088  -44.1884   -5.2852 C   0  0  0  0  0  0  0  0  0  0  0  0
  -20.6285  -44.2488   -5.1485 C   0  0  0  0  0  0  0  0  0  0  0  0
  -19.9073  -44.6163   -6.2712 O   0  0  0  0  0  0  0  0  0  0  0  0
  -19.7039  -44.1018   -7.5466 C   0  0  0  0  0  0  0  0  0  0  0  0
  -19.1700  -42.8718   -7.8974 C   0  0  0  0  0  0  0  0  0  0  0  0
  -19.0557  -42.5440   -9.2235 C   0  0  0  0  0  0  0  0  0  0  0  0
  -19.4922  -43.4973  -10.1896 C   0  0  0  0  0  0  0  0  0  0  0  0
  -20.0213  -44.7207   -9.8899 C   0  0  0  0  0  0  0  0  0  0  0  0
  -20.1150  -44.9961   -8.5454 C   0  0  0  0  0  0  0  0  0  0  0  0
  -18.5515  -41.3420   -9.9024 C   0  0  0  0  0  0  0  0  0  0  0  0
  -17.7784  -41.5849  -10.9888 O   0  0  0  0  0  0  0  0  0  0  0  0
  -18.6841  -39.9532   -9.6929 N   0  0  0  0  0  0  0  0  0  0  0  0
  -13.4807  -39.4073  -11.4011 C   0  0  0  0  0  0  0  0  0  0  0  0
  -12.1403  -39.7041  -11.3706 C   0  0  0  0  0  0  0  0  0  0  0  0
  -11.8940  -40.6340  -12.3929 C   0  0  0  0  0  0  0  0  0  0  0  0
  -10.6283  -41.2680  -12.7786 C   0  0  0  0  0  0  0  0  0  0  0  0
   -9.9761  -40.6325  -13.9752 C   0  0  0  0  0  0  0  0  0  0  0  0
  -10.9141  -40.4946  -15.1528 C   0  0  0  0  0  0  0  0  0  0  0  0
   -9.6052  -39.2011  -13.5684 C   0  0  0  0  0  0  0  0  0  0  0  0
   -8.7245  -41.3108  -14.4218 C   0  0  0  0  0  0  0  0  0  0  0  0
  -13.0495  -40.8436  -12.9661 O   0  0  0  0  0  0  0  0  0  0  0  0
  -13.9891  -40.1400  -12.4057 N   0  0  0  0  0  0  0  0  0  0  0  0
  2  1  1  1
  2  3  1  0
  3  4  1  0
  4  5  1  0
  5  6  1  1
  5  7  1  0
  7  8  1  1
  8  9  1  0
  9 10  1  1
  9 11  1  0
 11 12  1  0
 12 13  1  0
 13 14  1  0
 14 15  1  0
 15 16  1  0
 16 17  1  0
 17 18  1  0
 18 19  1  0
 19 20  2  0
 20 21  1  0
 21 22  2  0
 22 23  1  0
 23 24  2  0
 21 25  1  0
 25 26  2  0
 25 27  1  0
  2 28  1  0
 28 29  1  0
 29 30  2  0
 30 31  1  0
 31 32  1  0
 32 33  1  0
 32 34  1  0
 32 35  1  0
 30 36  1  0
 36 37  1  0
 24 19  1  0
 27  7  1  0
 37 28  2  0
M  END
$$$$
