
     RDKit          3D

 37 39  0  0  0  0  0  0  0  0999 V2000
  -15.5481  -41.3576  -11.8510 C   0  0  0  0  0  0  0  0  0  0  0  0
  -14.6000  -40.8568  -10.7883 C   0  0  2  0  0  0  0  0  0  0  0  0
  -15.2951  -40.0257   -9.8398 N   0  0  0  0  0  0  0  0  0  0  0  0
  -16.5862  -40.5561   -9.4742 C   0  0  0  0  0  0  0  0  0  0  0  0
  -17.3233  -39.6392   -8.5830 C   0  0  1  0  0  0  0  0  0  0  0  0
  -16.6536  -38.3883   -8.5736 O   0  0  0  0  0  0  0  0  0  0  0  0
  -18.7421  -39.3231   -8.9423 C   0  0  2  0  0  0  0  0  0  0  0  0
  -19.6149  -39.0865   -7.7318 C   0  0  0  0  0  0  0  0  0  0  0  0
  -20.6819  -38.0420   -8.0061 C   0  0  2  0  0  0  0  0  0  0  0  0
  -20.1956  -36.7414   -7.3858 C   0  0  0  0  0  0  0  0  0  0  0  0
  -22.0262  -38.3413   -7.4899 C   0  0  0  0  0  0  0  0  0  0  0  0
  -22.2689  -39.6562   -6.8442 C   0  0  0  0  0  0  0  0  0  0  0  0
  -23.6513  -39.7781   -6.2282 C   0  0  0  0  0  0  0  0  0  0  0  0
  -23.5556  -40.8228   -5.1328 C   0  0  0  0  0  0  0  0  0  0  0  0
  -23.4186  -42.2165   -5.7136 C   0  0  0  0  0  0  0  0  0  0  0  0
  -22.9881  -43.2365   -4.7310 C   0  0  0  0  0  0  0  0  0  0  0  0
  -21.5376  -43.5665   -4.7061 C   0  0  0  0  0  0  0  0  0  0  0  0
  -21.0128  -44.1819   -5.8293 O   0  0  0  0  0  0  0  0  0  0  0  0
  -20.8490  -43.8529   -7.1700 C   0  0  0  0  0  0  0  0  0  0  0  0
  -20.1379  -42.7926   -7.7097 C   0  0  0  0  0  0  0  0  0  0  0  0
  -20.1004  -42.6340   -9.0708 C   0  0  0  0  0  0  0  0  0  0  0  0
  -20.7989  -43.5813   -9.8755 C   0  0  0  0  0  0  0  0  0  0  0  0
  -21.5092  -44.6413   -9.3875 C   0  0  0  0  0  0  0  0  0  0  0  0
  -21.5151  -44.7510   -8.0164 C   0  0  0  0  0  0  0  0  0  0  0  0
  -19.4567  -41.6297   -9.9292 C   0  0  0  0  0  0  0  0  0  0  0  0
  -18.8547  -42.1297  -11.0359 O   0  0  0  0  0  0  0  0  0  0  0  0
  -19.3118  -40.2273   -9.8810 N   0  0  0  0  0  0  0  0  0  0  0  0
  -13.4537  -40.1164  -11.4016 C   0  0  0  0  0  0  0  0  0  0  0  0
  -12.1824  -40.0301  -10.8896 C   0  0  0  0  0  0  0  0  0  0  0  0
  -11.4263  -39.2470  -11.7759 C   0  0  0  0  0  0  0  0  0  0  0  0
  -10.0148  -38.8563  -11.6885 C   0  0  0  0  0  0  0  0  0  0  0  0
   -9.7882  -37.5847  -10.9184 C   0  0  0  0  0  0  0  0  0  0  0  0
   -8.8082  -36.6536  -11.5954 C   0  0  0  0  0  0  0  0  0  0  0  0
  -11.1266  -36.8365  -10.8966 C   0  0  0  0  0  0  0  0  0  0  0  0
   -9.3679  -37.7941   -9.5023 C   0  0  0  0  0  0  0  0  0  0  0  0
  -12.2444  -38.9132  -12.7387 O   0  0  0  0  0  0  0  0  0  0  0  0
  -13.4313  -39.4079  -12.5426 N   0  0  0  0  0  0  0  0  0  0  0  0
  2  1  1  6
  2  3  1  0
  3  4  1  0
  4  5  1  0
  5  6  1  6
  5  7  1  0
  7  8  1  1
  8  9  1  0
  9 10  1  1
  9 11  1  0
 11 12  1  0
 12 13  1  0
 13 14  1  0
 14 15  1  0
 15 16  1  0
 16 17  1  0
 17 18  1  0
 18 19  1  0
 19 20  2  0
 20 21  1  0
 21 22  2  0
 22 23  1  0
 23 24  2  0
 21 25  1  0
 25 26  2  0
 25 27  1  0
  2 28  1  0
 28 29  1  0
 29 30  2  0
 30 31  1  0
 31 32  1  0
 32 33  1  0
 32 34  1  0
 32 35  1  0
 30 36  1  0
 36 37  1  0
 24 19  1  0
 27  7  1  0
 37 28  2  0
M  END
$$$$
