
     RDKit          3D

 37 39  0  0  0  0  0  0  0  0999 V2000
  -12.8694  -42.1404  -10.2642 C   0  0  0  0  0  0  0  0  0  0  0  0
  -13.3737  -40.7647   -9.9009 C   0  0  2  0  0  0  0  0  0  0  0  0
  -14.6954  -40.8425   -9.3348 N   0  0  0  0  0  0  0  0  0  0  0  0
  -14.9715  -39.7678   -8.4125 C   0  0  0  0  0  0  0  0  0  0  0  0
  -16.1575  -40.0501   -7.5807 C   0  0  1  0  0  0  0  0  0  0  0  0
  -16.0393  -39.3209   -6.3692 O   0  0  0  0  0  0  0  0  0  0  0  0
  -17.4948  -39.6724   -8.1383 C   0  0  2  0  0  0  0  0  0  0  0  0
  -18.4846  -39.2729   -7.0690 C   0  0  0  0  0  0  0  0  0  0  0  0
  -19.4276  -38.1874   -7.5559 C   0  0  2  0  0  0  0  0  0  0  0  0
  -18.9198  -36.8729   -6.9839 C   0  0  0  0  0  0  0  0  0  0  0  0
  -20.8429  -38.3497   -7.1900 C   0  0  0  0  0  0  0  0  0  0  0  0
  -21.2614  -39.5838   -6.4784 C   0  0  0  0  0  0  0  0  0  0  0  0
  -22.7126  -39.5585   -6.0325 C   0  0  0  0  0  0  0  0  0  0  0  0
  -22.8289  -40.5074   -4.8550 C   0  0  0  0  0  0  0  0  0  0  0  0
  -22.7317  -41.9527   -5.3027 C   0  0  0  0  0  0  0  0  0  0  0  0
  -22.5013  -42.9092   -4.1968 C   0  0  0  0  0  0  0  0  0  0  0  0
  -21.0939  -43.3322   -3.9647 C   0  0  0  0  0  0  0  0  0  0  0  0
  -20.4881  -44.0772   -4.9615 O   0  0  0  0  0  0  0  0  0  0  0  0
  -20.1408  -43.8785   -6.2929 C   0  0  0  0  0  0  0  0  0  0  0  0
  -19.2909  -42.9195   -6.8211 C   0  0  0  0  0  0  0  0  0  0  0  0
  -19.0795  -42.8834   -8.1750 C   0  0  0  0  0  0  0  0  0  0  0  0
  -19.7482  -43.8486   -8.9837 C   0  0  0  0  0  0  0  0  0  0  0  0
  -20.5911  -44.8120   -8.5066 C   0  0  0  0  0  0  0  0  0  0  0  0
  -20.7688  -44.8006   -7.1426 C   0  0  0  0  0  0  0  0  0  0  0  0
  -18.2626  -42.0035   -9.0224 C   0  0  0  0  0  0  0  0  0  0  0  0
  -17.5734  -42.6376  -10.0023 O   0  0  0  0  0  0  0  0  0  0  0  0
  -18.0167  -40.6151   -9.0669 N   0  0  0  0  0  0  0  0  0  0  0  0
  -13.3597  -39.8592  -11.0918 C   0  0  0  0  0  0  0  0  0  0  0  0
  -12.5835  -38.7366  -11.2428 C   0  0  0  0  0  0  0  0  0  0  0  0
  -12.8800  -38.1887  -12.5007 C   0  0  0  0  0  0  0  0  0  0  0  0
  -12.3239  -36.9909  -13.1401 C   0  0  0  0  0  0  0  0  0  0  0  0
  -13.1856  -35.7686  -12.9826 C   0  0  0  0  0  0  0  0  0  0  0  0
  -14.6423  -36.0321  -13.2895 C   0  0  0  0  0  0  0  0  0  0  0  0
  -13.1359  -35.3806  -11.4998 C   0  0  0  0  0  0  0  0  0  0  0  0
  -12.7237  -34.5891  -13.7709 C   0  0  0  0  0  0  0  0  0  0  0  0
  -13.7829  -38.9747  -13.0248 O   0  0  0  0  0  0  0  0  0  0  0  0
  -14.0785  -39.9551  -12.2226 N   0  0  0  0  0  0  0  0  0  0  0  0
  2  1  1  6
  2  3  1  0
  3  4  1  0
  4  5  1  0
  5  6  1  1
  5  7  1  0
  7  8  1  1
  8  9  1  0
  9 10  1  1
  9 11  1  0
 11 12  1  0
 12 13  1  0
 13 14  1  0
 14 15  1  0
 15 16  1  0
 16 17  1  0
 17 18  1  0
 18 19  1  0
 19 20  2  0
 20 21  1  0
 21 22  2  0
 22 23  1  0
 23 24  2  0
 21 25  1  0
 25 26  2  0
 25 27  1  0
  2 28  1  0
 28 29  1  0
 29 30  2  0
 30 31  1  0
 31 32  1  0
 32 33  1  0
 32 34  1  0
 32 35  1  0
 30 36  1  0
 36 37  1  0
 24 19  1  0
 27  7  1  0
 37 28  2  0
M  END
$$$$
