
     RDKit          3D

 37 39  0  0  0  0  0  0  0  0999 V2000
  -17.8863  -37.2574  -12.5685 C   0  0  0  0  0  0  0  0  0  0  0  0
  -16.6888  -38.0996  -12.2005 C   0  0  2  0  0  0  0  0  0  0  0  0
  -16.8977  -38.7516  -10.9337 N   0  0  0  0  0  0  0  0  0  0  0  0
  -17.4680  -37.8732   -9.9414 C   0  0  0  0  0  0  0  0  0  0  0  0
  -17.6475  -38.5542   -8.6444 C   0  0  1  0  0  0  0  0  0  0  0  0
  -16.6779  -38.0539   -7.7373 O   0  0  0  0  0  0  0  0  0  0  0  0
  -18.9628  -38.3779   -7.9508 C   0  0  2  0  0  0  0  0  0  0  0  0
  -19.1484  -39.3318   -6.7939 C   0  0  0  0  0  0  0  0  0  0  0  0
  -19.9473  -38.6991   -5.6688 C   0  0  2  0  0  0  0  0  0  0  0  0
  -18.9479  -38.2693   -4.6060 C   0  0  0  0  0  0  0  0  0  0  0  0
  -20.9690  -39.5523   -5.0431 C   0  0  0  0  0  0  0  0  0  0  0  0
  -21.2168  -40.9033   -5.6071 C   0  0  0  0  0  0  0  0  0  0  0  0
  -22.1866  -41.7309   -4.7826 C   0  0  0  0  0  0  0  0  0  0  0  0
  -21.8825  -43.1878   -5.0748 C   0  0  0  0  0  0  0  0  0  0  0  0
  -22.3439  -43.5768   -6.4657 C   0  0  0  0  0  0  0  0  0  0  0  0
  -21.7904  -44.8639   -6.9434 C   0  0  0  0  0  0  0  0  0  0  0  0
  -20.5941  -44.7881   -7.8246 C   0  0  0  0  0  0  0  0  0  0  0  0
  -20.7645  -44.2054   -9.0684 O   0  0  0  0  0  0  0  0  0  0  0  0
  -21.1180  -42.9497   -9.5488 C   0  0  0  0  0  0  0  0  0  0  0  0
  -20.4772  -41.7398   -9.3327 C   0  0  0  0  0  0  0  0  0  0  0  0
  -20.9900  -40.5995   -9.8947 C   0  0  0  0  0  0  0  0  0  0  0  0
  -22.1693  -40.7150  -10.6877 C   0  0  0  0  0  0  0  0  0  0  0  0
  -22.8316  -41.8852  -10.9292 C   0  0  0  0  0  0  0  0  0  0  0  0
  -22.2752  -42.9965  -10.3396 C   0  0  0  0  0  0  0  0  0  0  0  0
  -20.5578  -39.1957   -9.8462 C   0  0  0  0  0  0  0  0  0  0  0  0
  -20.6265  -38.5387  -11.0298 O   0  0  0  0  0  0  0  0  0  0  0  0
  -20.0770  -38.3385   -8.8343 N   0  0  0  0  0  0  0  0  0  0  0  0
  -15.4427  -37.2721  -12.1714 C   0  0  0  0  0  0  0  0  0  0  0  0
  -14.1592  -37.7412  -12.3065 C   0  0  0  0  0  0  0  0  0  0  0  0
  -13.2983  -36.6356  -12.2217 C   0  0  0  0  0  0  0  0  0  0  0  0
  -11.8340  -36.5975  -12.3055 C   0  0  0  0  0  0  0  0  0  0  0  0
  -11.1590  -36.4075  -10.9752 C   0  0  0  0  0  0  0  0  0  0  0  0
  -11.6732  -35.2021  -10.2214 C   0  0  0  0  0  0  0  0  0  0  0  0
  -11.5254  -37.6236  -10.1158 C   0  0  0  0  0  0  0  0  0  0  0  0
   -9.6703  -36.3419  -11.0487 C   0  0  0  0  0  0  0  0  0  0  0  0
  -14.0724  -35.5974  -12.0469 O   0  0  0  0  0  0  0  0  0  0  0  0
  -15.3259  -35.9431  -12.0142 N   0  0  0  0  0  0  0  0  0  0  0  0
  2  1  1  1
  2  3  1  0
  3  4  1  0
  4  5  1  0
  5  6  1  1
  5  7  1  0
  7  8  1  1
  8  9  1  0
  9 10  1  1
  9 11  1  0
 11 12  1  0
 12 13  1  0
 13 14  1  0
 14 15  1  0
 15 16  1  0
 16 17  1  0
 17 18  1  0
 18 19  1  0
 19 20  2  0
 20 21  1  0
 21 22  2  0
 22 23  1  0
 23 24  2  0
 21 25  1  0
 25 26  2  0
 25 27  1  0
  2 28  1  0
 28 29  1  0
 29 30  2  0
 30 31  1  0
 31 32  1  0
 32 33  1  0
 32 34  1  0
 32 35  1  0
 30 36  1  0
 36 37  1  0
 24 19  1  0
 27  7  1  0
 37 28  2  0
M  END
$$$$
