
     RDKit          3D

 37 39  0  0  0  0  0  0  0  0999 V2000
  -12.9174  -41.6931  -10.3163 C   0  0  0  0  0  0  0  0  0  0  0  0
  -13.3958  -40.4134   -9.6741 C   0  0  2  0  0  0  0  0  0  0  0  0
  -14.6992  -40.5960   -9.0898 N   0  0  0  0  0  0  0  0  0  0  0  0
  -15.1075  -39.4768   -8.2758 C   0  0  0  0  0  0  0  0  0  0  0  0
  -16.3187  -39.7831   -7.4901 C   0  0  1  0  0  0  0  0  0  0  0  0
  -16.2534  -39.0658   -6.2676 O   0  0  0  0  0  0  0  0  0  0  0  0
  -17.6400  -39.4162   -8.0914 C   0  0  2  0  0  0  0  0  0  0  0  0
  -18.7954  -39.6250   -7.1405 C   0  0  0  0  0  0  0  0  0  0  0  0
  -19.8842  -38.5871   -7.3455 C   0  0  2  0  0  0  0  0  0  0  0  0
  -19.7164  -37.5492   -6.2467 C   0  0  0  0  0  0  0  0  0  0  0  0
  -21.2669  -39.0879   -7.3191 C   0  0  0  0  0  0  0  0  0  0  0  0
  -21.4967  -40.5501   -7.2019 C   0  0  0  0  0  0  0  0  0  0  0  0
  -22.9608  -40.9180   -7.0391 C   0  0  0  0  0  0  0  0  0  0  0  0
  -23.0025  -42.2625   -6.3384 C   0  0  0  0  0  0  0  0  0  0  0  0
  -22.5674  -43.3794   -7.2669 C   0  0  0  0  0  0  0  0  0  0  0  0
  -22.2626  -44.6514   -6.5740 C   0  0  0  0  0  0  0  0  0  0  0  0
  -20.8303  -44.9196   -6.2741 C   0  0  0  0  0  0  0  0  0  0  0  0
  -19.9859  -45.1091   -7.3542 O   0  0  0  0  0  0  0  0  0  0  0  0
  -19.5507  -44.3489   -8.4338 C   0  0  0  0  0  0  0  0  0  0  0  0
  -18.8639  -43.1452   -8.4107 C   0  0  0  0  0  0  0  0  0  0  0  0
  -18.5255  -42.5434   -9.5949 C   0  0  0  0  0  0  0  0  0  0  0  0
  -18.8966  -43.1946  -10.8078 C   0  0  0  0  0  0  0  0  0  0  0  0
  -19.5705  -44.3809  -10.8778 C   0  0  0  0  0  0  0  0  0  0  0  0
  -19.8866  -44.9387   -9.6609 C   0  0  0  0  0  0  0  0  0  0  0  0
  -17.8217  -41.2893   -9.8980 C   0  0  0  0  0  0  0  0  0  0  0  0
  -16.9206  -41.3728  -10.9070 O   0  0  0  0  0  0  0  0  0  0  0  0
  -17.8604  -39.9779   -9.3796 N   0  0  0  0  0  0  0  0  0  0  0  0
  -13.4114  -39.2923  -10.6646 C   0  0  0  0  0  0  0  0  0  0  0  0
  -14.0343  -38.0795  -10.5009 C   0  0  0  0  0  0  0  0  0  0  0  0
  -13.7985  -37.3275  -11.6625 C   0  0  0  0  0  0  0  0  0  0  0  0
  -14.2449  -35.9685  -11.9887 C   0  0  0  0  0  0  0  0  0  0  0  0
  -13.1354  -35.0643  -12.4501 C   0  0  0  0  0  0  0  0  0  0  0  0
  -13.5892  -33.6381  -12.6640 C   0  0  0  0  0  0  0  0  0  0  0  0
  -12.1085  -35.0085  -11.3126 C   0  0  0  0  0  0  0  0  0  0  0  0
  -12.4257  -35.5419  -13.6725 C   0  0  0  0  0  0  0  0  0  0  0  0
  -13.0754  -38.0917  -12.4376 O   0  0  0  0  0  0  0  0  0  0  0  0
  -12.8370  -39.2414  -11.8779 N   0  0  0  0  0  0  0  0  0  0  0  0
  2  1  1  6
  2  3  1  0
  3  4  1  0
  4  5  1  0
  5  6  1  1
  5  7  1  0
  7  8  1  1
  8  9  1  0
  9 10  1  1
  9 11  1  0
 11 12  1  0
 12 13  1  0
 13 14  1  0
 14 15  1  0
 15 16  1  0
 16 17  1  0
 17 18  1  0
 18 19  1  0
 19 20  2  0
 20 21  1  0
 21 22  2  0
 22 23  1  0
 23 24  2  0
 21 25  1  0
 25 26  2  0
 25 27  1  0
  2 28  1  0
 28 29  1  0
 29 30  2  0
 30 31  1  0
 31 32  1  0
 32 33  1  0
 32 34  1  0
 32 35  1  0
 30 36  1  0
 36 37  1  0
 24 19  1  0
 27  7  1  0
 37 28  2  0
M  END
$$$$
