
     RDKit          3D

 37 39  0  0  0  0  0  0  0  0999 V2000
  -12.9011  -41.5439  -10.0247 C   0  0  0  0  0  0  0  0  0  0  0  0
  -13.6004  -40.2601   -9.6480 C   0  0  2  0  0  0  0  0  0  0  0  0
  -14.8755  -40.5373   -9.0392 N   0  0  0  0  0  0  0  0  0  0  0  0
  -15.4236  -39.3958   -8.3476 C   0  0  0  0  0  0  0  0  0  0  0  0
  -16.6614  -39.7376   -7.6203 C   0  0  1  0  0  0  0  0  0  0  0  0
  -16.7249  -38.9441   -6.4457 O   0  0  0  0  0  0  0  0  0  0  0  0
  -17.9612  -39.5015   -8.3251 C   0  0  2  0  0  0  0  0  0  0  0  0
  -19.0681  -39.0779   -7.3881 C   0  0  0  0  0  0  0  0  0  0  0  0
  -20.0247  -38.1055   -8.0545 C   0  0  2  0  0  0  0  0  0  0  0  0
  -19.6514  -36.7147   -7.5655 C   0  0  0  0  0  0  0  0  0  0  0  0
  -21.4557  -38.3306   -7.7998 C   0  0  0  0  0  0  0  0  0  0  0  0
  -21.8644  -39.5231   -7.0153 C   0  0  0  0  0  0  0  0  0  0  0  0
  -23.3496  -39.5572   -6.7019 C   0  0  0  0  0  0  0  0  0  0  0  0
  -23.5182  -40.4050   -5.4556 C   0  0  0  0  0  0  0  0  0  0  0  0
  -23.2940  -41.8740   -5.7563 C   0  0  0  0  0  0  0  0  0  0  0  0
  -23.1108  -42.7123   -4.5502 C   0  0  0  0  0  0  0  0  0  0  0  0
  -21.7084  -43.0171   -4.1578 C   0  0  0  0  0  0  0  0  0  0  0  0
  -20.9694  -43.8038   -5.0242 O   0  0  0  0  0  0  0  0  0  0  0  0
  -20.5123  -43.6994   -6.3329 C   0  0  0  0  0  0  0  0  0  0  0  0
  -19.6756  -42.7350   -6.8723 C   0  0  0  0  0  0  0  0  0  0  0  0
  -19.3417  -42.8033   -8.2000 C   0  0  0  0  0  0  0  0  0  0  0  0
  -19.8738  -43.8786   -8.9704 C   0  0  0  0  0  0  0  0  0  0  0  0
  -20.6986  -44.8514   -8.4807 C   0  0  0  0  0  0  0  0  0  0  0  0
  -21.0026  -44.7327   -7.1445 C   0  0  0  0  0  0  0  0  0  0  0  0
  -18.5034  -41.9477   -9.0514 C   0  0  0  0  0  0  0  0  0  0  0  0
  -17.6897  -42.6170   -9.9041 O   0  0  0  0  0  0  0  0  0  0  0  0
  -18.3376  -40.5551   -9.2036 N   0  0  0  0  0  0  0  0  0  0  0  0
  -13.7644  -39.3718  -10.8406 C   0  0  0  0  0  0  0  0  0  0  0  0
  -13.4450  -38.0377  -10.9031 C   0  0  0  0  0  0  0  0  0  0  0  0
  -13.7538  -37.5935  -12.1984 C   0  0  0  0  0  0  0  0  0  0  0  0
  -13.6000  -36.2535  -12.7757 C   0  0  0  0  0  0  0  0  0  0  0  0
  -12.3245  -36.0745  -13.5519 C   0  0  0  0  0  0  0  0  0  0  0  0
  -12.1742  -37.0747  -14.6755 C   0  0  0  0  0  0  0  0  0  0  0  0
  -12.4065  -34.6997  -14.2263 C   0  0  0  0  0  0  0  0  0  0  0  0
  -11.0908  -36.0900  -12.7130 C   0  0  0  0  0  0  0  0  0  0  0  0
  -14.2247  -38.6377  -12.8274 O   0  0  0  0  0  0  0  0  0  0  0  0
  -14.2407  -39.6856  -12.0569 N   0  0  0  0  0  0  0  0  0  0  0  0
  2  1  1  6
  2  3  1  0
  3  4  1  0
  4  5  1  0
  5  6  1  1
  5  7  1  0
  7  8  1  1
  8  9  1  0
  9 10  1  1
  9 11  1  0
 11 12  1  0
 12 13  1  0
 13 14  1  0
 14 15  1  0
 15 16  1  0
 16 17  1  0
 17 18  1  0
 18 19  1  0
 19 20  2  0
 20 21  1  0
 21 22  2  0
 22 23  1  0
 23 24  2  0
 21 25  1  0
 25 26  2  0
 25 27  1  0
  2 28  1  0
 28 29  1  0
 29 30  2  0
 30 31  1  0
 31 32  1  0
 32 33  1  0
 32 34  1  0
 32 35  1  0
 30 36  1  0
 36 37  1  0
 24 19  1  0
 27  7  1  0
 37 28  2  0
M  END
$$$$
