
     RDKit          3D

 34 35  0  0  0  0  0  0  0  0999 V2000
  -12.3914  -36.1772  -13.8231 C   0  0  0  0  0  0  0  0  0  0  0  0
  -11.3723  -35.9842  -12.7205 C   0  0  0  0  0  0  0  0  0  0  0  0
  -11.6186  -36.9281  -11.5601 C   0  0  0  0  0  0  0  0  0  0  0  0
  -12.9370  -37.6231  -11.6606 C   0  0  0  0  0  0  0  0  0  0  0  0
  -13.0875  -38.5226  -10.5435 N   0  0  0  0  0  0  0  0  0  0  0  0
  -14.1848  -39.3985  -10.3445 C   0  0  0  0  0  0  0  0  0  0  0  0
  -14.8245  -39.7234  -11.3846 O   0  0  0  0  0  0  0  0  0  0  0  0
  -14.6025  -39.9247   -9.0499 C   0  0  2  0  0  0  0  0  0  0  0  0
  -13.6091  -40.8586   -8.3938 C   0  0  0  0  0  0  0  0  0  0  0  0
  -16.0022  -40.4210   -8.9465 C   0  0  0  0  0  0  0  0  0  0  0  0
  -17.0779  -39.5091   -9.4055 C   0  0  2  0  0  0  0  0  0  0  0  0
  -16.8135  -38.1803   -9.4427 O   0  0  0  0  0  0  0  0  0  0  0  0
  -18.3638  -39.8694   -8.6136 C   0  0  2  0  0  0  0  0  0  0  0  0
  -19.1538  -38.6782   -8.2971 C   0  0  0  0  0  0  0  0  0  0  0  0
  -19.4689  -38.2438   -6.9440 C   0  0  2  0  0  0  0  0  0  0  0  0
  -18.3365  -37.9853   -5.9967 C   0  0  0  0  0  0  0  0  0  0  0  0
  -20.5545  -38.9582   -6.1895 C   0  0  0  0  0  0  0  0  0  0  0  0
  -21.8588  -38.7900   -6.9284 C   0  0  0  0  0  0  0  0  0  0  0  0
  -22.4832  -40.0777   -7.3793 C   0  0  0  0  0  0  0  0  0  0  0  0
  -23.5735  -40.3948   -6.5337 C   0  0  0  0  0  0  0  0  0  0  0  0
  -24.3118  -41.5395   -6.6587 C   0  0  0  0  0  0  0  0  0  0  0  0
  -23.9239  -42.3752   -7.6697 C   0  0  0  0  0  0  0  0  0  0  0  0
  -22.8410  -42.1007   -8.5402 C   0  0  0  0  0  0  0  0  0  0  0  0
  -22.6535  -43.2360   -9.4852 C   0  0  0  0  0  0  0  0  0  0  0  0
  -21.2647  -44.2746   -9.1601 S   0  0  0  0  0  6  0  0  0  0  0  0
  -21.1291  -45.1943  -10.3424 O   0  0  0  0  0  0  0  0  0  0  0  0
  -21.6082  -45.1356   -7.9791 O   0  0  0  0  0  0  0  0  0  0  0  0
  -19.7423  -43.4237   -8.9537 C   0  0  0  0  0  0  0  0  0  0  0  0
  -19.3931  -43.0337   -7.5655 C   0  0  1  0  0  0  0  0  0  0  0  0
  -19.1724  -44.2848   -6.6825 C   0  0  0  0  0  0  0  0  0  0  0  0
  -18.1833  -42.1866   -7.4933 C   0  0  0  0  0  0  0  0  0  0  0  0
  -17.0806  -42.8516   -7.3299 O   0  0  0  0  0  0  0  0  0  0  0  0
  -18.0513  -40.7969   -7.5704 N   0  0  0  0  0  0  0  0  0  0  0  0
  -22.1118  -40.9337   -8.3938 C   0  0  0  0  0  0  0  0  0  0  0  0
  1  2  1  0
  2  3  1  0
  3  4  1  0
  4  5  1  0
  5  6  1  0
  6  7  2  0
  6  8  1  0
  8  9  1  6
  8 10  1  0
 10 11  1  0
 11 12  1  1
 11 13  1  0
 13 14  1  1
 14 15  1  0
 15 16  1  1
 15 17  1  0
 17 18  1  0
 18 19  1  0
 19 20  1  0
 20 21  2  0
 21 22  1  0
 22 23  2  0
 23 24  1  0
 24 25  1  0
 25 26  2  0
 25 27  2  0
 25 28  1  0
 28 29  1  0
 29 30  1  1
 29 31  1  0
 31 32  2  0
 31 33  1  0
 23 34  1  0
 33 13  1  0
 34 19  2  0
M  END
$$$$
