
     RDKit          3D

 34 35  0  0  0  0  0  0  0  0999 V2000
  -12.7187  -34.8212  -11.4831 C   0  0  0  0  0  0  0  0  0  0  0  0
  -13.0971  -36.0147  -12.3338 C   0  0  0  0  0  0  0  0  0  0  0  0
  -12.3736  -37.2704  -11.8888 C   0  0  0  0  0  0  0  0  0  0  0  0
  -13.2044  -38.4992  -12.0642 C   0  0  0  0  0  0  0  0  0  0  0  0
  -13.7819  -38.8686  -10.7954 N   0  0  0  0  0  0  0  0  0  0  0  0
  -14.7051  -39.9267  -10.5972 C   0  0  0  0  0  0  0  0  0  0  0  0
  -15.4347  -40.2125  -11.5884 O   0  0  0  0  0  0  0  0  0  0  0  0
  -14.8550  -40.6754   -9.3546 C   0  0  2  0  0  0  0  0  0  0  0  0
  -14.0415  -41.9490   -9.2786 C   0  0  0  0  0  0  0  0  0  0  0  0
  -16.2410  -40.8557   -8.8420 C   0  0  0  0  0  0  0  0  0  0  0  0
  -16.9515  -39.6408   -8.3743 C   0  0  2  0  0  0  0  0  0  0  0  0
  -16.3402  -38.8623   -7.4484 O   0  0  0  0  0  0  0  0  0  0  0  0
  -18.3924  -40.0658   -7.9818 C   0  0  2  0  0  0  0  0  0  0  0  0
  -19.3237  -38.9381   -8.0468 C   0  0  0  0  0  0  0  0  0  0  0  0
  -20.0778  -38.4359   -6.9074 C   0  0  2  0  0  0  0  0  0  0  0  0
  -19.3216  -37.9956   -5.6905 C   0  0  0  0  0  0  0  0  0  0  0  0
  -21.2923  -39.1952   -6.4527 C   0  0  0  0  0  0  0  0  0  0  0  0
  -22.3068  -39.2133   -7.5689 C   0  0  0  0  0  0  0  0  0  0  0  0
  -22.6655  -40.5868   -8.0546 C   0  0  0  0  0  0  0  0  0  0  0  0
  -23.9410  -40.9455   -7.5558 C   0  0  0  0  0  0  0  0  0  0  0  0
  -24.5200  -42.1637   -7.7828 C   0  0  0  0  0  0  0  0  0  0  0  0
  -23.7762  -43.0311   -8.5348 C   0  0  0  0  0  0  0  0  0  0  0  0
  -22.4968  -42.7173   -9.0550 C   0  0  0  0  0  0  0  0  0  0  0  0
  -21.9424  -43.8968   -9.7753 C   0  0  0  0  0  0  0  0  0  0  0  0
  -20.6565  -44.7651   -8.9354 S   0  0  0  0  0  6  0  0  0  0  0  0
  -20.0917  -45.7537   -9.9181 O   0  0  0  0  0  0  0  0  0  0  0  0
  -21.2920  -45.5641   -7.8345 O   0  0  0  0  0  0  0  0  0  0  0  0
  -19.3400  -43.7546   -8.3609 C   0  0  0  0  0  0  0  0  0  0  0  0
  -19.4730  -43.2280   -6.9803 C   0  0  1  0  0  0  0  0  0  0  0  0
  -19.4533  -44.3807   -5.9486 C   0  0  0  0  0  0  0  0  0  0  0  0
  -18.4101  -42.2623   -6.6283 C   0  0  0  0  0  0  0  0  0  0  0  0
  -17.3705  -42.8006   -6.0675 O   0  0  0  0  0  0  0  0  0  0  0  0
  -18.3589  -40.8761   -6.8036 N   0  0  0  0  0  0  0  0  0  0  0  0
  -21.9348  -41.4761   -8.8129 C   0  0  0  0  0  0  0  0  0  0  0  0
  1  2  1  0
  2  3  1  0
  3  4  1  0
  4  5  1  0
  5  6  1  0
  6  7  2  0
  6  8  1  0
  8  9  1  6
  8 10  1  0
 10 11  1  0
 11 12  1  1
 11 13  1  0
 13 14  1  1
 14 15  1  0
 15 16  1  1
 15 17  1  0
 17 18  1  0
 18 19  1  0
 19 20  1  0
 20 21  2  0
 21 22  1  0
 22 23  2  0
 23 24  1  0
 24 25  1  0
 25 26  2  0
 25 27  2  0
 25 28  1  0
 28 29  1  0
 29 30  1  1
 29 31  1  0
 31 32  2  0
 31 33  1  0
 23 34  1  0
 33 13  1  0
 34 19  2  0
M  END
$$$$
