
     RDKit          3D

 34 35  0  0  0  0  0  0  0  0999 V2000
  -13.2139  -35.2894  -13.6175 C   0  0  0  0  0  0  0  0  0  0  0  0
  -12.9353  -34.7626  -12.2260 C   0  0  0  0  0  0  0  0  0  0  0  0
  -12.8066  -35.8873  -11.2177 C   0  0  0  0  0  0  0  0  0  0  0  0
  -13.6984  -37.0426  -11.5357 C   0  0  0  0  0  0  0  0  0  0  0  0
  -13.4986  -38.0819  -10.5562 N   0  0  0  0  0  0  0  0  0  0  0  0
  -14.3278  -39.2212  -10.3960 C   0  0  0  0  0  0  0  0  0  0  0  0
  -15.1274  -39.4570  -11.3455 O   0  0  0  0  0  0  0  0  0  0  0  0
  -14.3106  -40.1034   -9.2346 C   0  0  2  0  0  0  0  0  0  0  0  0
  -13.3556  -41.2724   -9.3395 C   0  0  0  0  0  0  0  0  0  0  0  0
  -15.6309  -40.4977   -8.6710 C   0  0  0  0  0  0  0  0  0  0  0  0
  -16.3907  -39.4560   -7.9381 C   0  0  2  0  0  0  0  0  0  0  0  0
  -15.9538  -39.0975   -6.7062 O   0  0  0  0  0  0  0  0  0  0  0  0
  -17.8899  -39.8580   -7.9780 C   0  0  2  0  0  0  0  0  0  0  0  0
  -18.7478  -38.7109   -8.2800 C   0  0  0  0  0  0  0  0  0  0  0  0
  -19.7861  -38.2117   -7.3901 C   0  0  2  0  0  0  0  0  0  0  0  0
  -19.3988  -37.8062   -6.0001 C   0  0  0  0  0  0  0  0  0  0  0  0
  -21.0907  -38.9535   -7.3133 C   0  0  0  0  0  0  0  0  0  0  0  0
  -21.7480  -38.9334   -8.6710 C   0  0  0  0  0  0  0  0  0  0  0  0
  -21.9748  -40.2916   -9.2669 C   0  0  0  0  0  0  0  0  0  0  0  0
  -23.3445  -40.6323   -9.1568 C   0  0  0  0  0  0  0  0  0  0  0  0
  -23.8536  -41.8349   -9.5637 C   0  0  0  0  0  0  0  0  0  0  0  0
  -22.9403  -42.7050  -10.0927 C   0  0  0  0  0  0  0  0  0  0  0  0
  -21.5615  -42.4089  -10.2232 C   0  0  0  0  0  0  0  0  0  0  0  0
  -20.8434  -43.5877  -10.7818 C   0  0  0  0  0  0  0  0  0  0  0  0
  -19.8609  -44.4950   -9.6310 S   0  0  0  0  0  6  0  0  0  0  0  0
  -19.0558  -45.4791  -10.4345 O   0  0  0  0  0  0  0  0  0  0  0  0
  -20.7938  -45.2984   -8.7717 O   0  0  0  0  0  0  0  0  0  0  0  0
  -18.7461  -43.5205   -8.6867 C   0  0  0  0  0  0  0  0  0  0  0  0
  -19.2566  -43.0133   -7.3894 C   0  0  1  0  0  0  0  0  0  0  0  0
  -19.5469  -44.1824   -6.4185 C   0  0  0  0  0  0  0  0  0  0  0  0
  -18.3226  -42.0750   -6.7311 C   0  0  0  0  0  0  0  0  0  0  0  0
  -17.4924  -42.6429   -5.9106 O   0  0  0  0  0  0  0  0  0  0  0  0
  -18.2033  -40.6875   -6.8556 N   0  0  0  0  0  0  0  0  0  0  0  0
  -21.0727  -41.1833   -9.8061 C   0  0  0  0  0  0  0  0  0  0  0  0
  1  2  1  0
  2  3  1  0
  3  4  1  0
  4  5  1  0
  5  6  1  0
  6  7  2  0
  6  8  1  0
  8  9  1  6
  8 10  1  0
 10 11  1  0
 11 12  1  1
 11 13  1  0
 13 14  1  1
 14 15  1  0
 15 16  1  1
 15 17  1  0
 17 18  1  0
 18 19  1  0
 19 20  1  0
 20 21  2  0
 21 22  1  0
 22 23  2  0
 23 24  1  0
 24 25  1  0
 25 26  2  0
 25 27  2  0
 25 28  1  0
 28 29  1  0
 29 30  1  1
 29 31  1  0
 31 32  2  0
 31 33  1  0
 23 34  1  0
 33 13  1  0
 34 19  2  0
M  END
$$$$
