
     RDKit          3D

 34 35  0  0  0  0  0  0  0  0999 V2000
  -12.5074  -34.5573  -11.8877 C   0  0  0  0  0  0  0  0  0  0  0  0
  -12.2572  -35.9184  -11.2742 C   0  0  0  0  0  0  0  0  0  0  0  0
  -12.5789  -37.0371  -12.2453 C   0  0  0  0  0  0  0  0  0  0  0  0
  -13.9567  -37.5807  -12.0522 C   0  0  0  0  0  0  0  0  0  0  0  0
  -13.8714  -38.9035  -11.4843 N   0  0  0  0  0  0  0  0  0  0  0  0
  -14.9793  -39.6854  -11.0693 C   0  0  0  0  0  0  0  0  0  0  0  0
  -15.9694  -39.6961  -11.8543 O   0  0  0  0  0  0  0  0  0  0  0  0
  -15.0376  -40.4494   -9.8282 C   0  0  2  0  0  0  0  0  0  0  0  0
  -15.1116  -41.9498  -10.0091 C   0  0  0  0  0  0  0  0  0  0  0  0
  -15.9729  -39.9571   -8.7798 C   0  0  0  0  0  0  0  0  0  0  0  0
  -17.1726  -39.2160   -9.2390 C   0  0  2  0  0  0  0  0  0  0  0  0
  -17.0788  -37.8701   -9.3690 O   0  0  0  0  0  0  0  0  0  0  0  0
  -18.3691  -39.6783   -8.3640 C   0  0  2  0  0  0  0  0  0  0  0  0
  -19.3381  -38.5996   -8.1624 C   0  0  0  0  0  0  0  0  0  0  0  0
  -19.6979  -38.0589   -6.8596 C   0  0  2  0  0  0  0  0  0  0  0  0
  -18.6077  -37.5079   -5.9910 C   0  0  0  0  0  0  0  0  0  0  0  0
  -20.6394  -38.8404   -5.9872 C   0  0  0  0  0  0  0  0  0  0  0  0
  -21.9656  -38.9756   -6.6933 C   0  0  0  0  0  0  0  0  0  0  0  0
  -22.3781  -40.3922   -6.9659 C   0  0  0  0  0  0  0  0  0  0  0  0
  -23.3877  -40.7742   -6.0499 C   0  0  0  0  0  0  0  0  0  0  0  0
  -23.9306  -42.0291   -6.0120 C   0  0  0  0  0  0  0  0  0  0  0  0
  -23.4277  -42.9093   -6.9304 C   0  0  0  0  0  0  0  0  0  0  0  0
  -22.4188  -42.5732   -7.8658 C   0  0  0  0  0  0  0  0  0  0  0  0
  -22.0635  -43.7709   -8.6761 C   0  0  0  0  0  0  0  0  0  0  0  0
  -20.5182  -44.5253   -8.2808 S   0  0  0  0  0  6  0  0  0  0  0  0
  -20.2533  -45.5492   -9.3502 O   0  0  0  0  0  0  0  0  0  0  0  0
  -20.6967  -45.2789   -6.9947 O   0  0  0  0  0  0  0  0  0  0  0  0
  -19.1525  -43.4223   -8.2315 C   0  0  0  0  0  0  0  0  0  0  0  0
  -18.8492  -42.8141   -6.9128 C   0  0  1  0  0  0  0  0  0  0  0  0
  -18.4122  -43.8958   -5.8966 C   0  0  0  0  0  0  0  0  0  0  0  0
  -17.7934  -41.7815   -6.9849 C   0  0  0  0  0  0  0  0  0  0  0  0
  -16.5941  -42.2358   -6.7839 O   0  0  0  0  0  0  0  0  0  0  0  0
  -17.8919  -40.4086   -7.2305 N   0  0  0  0  0  0  0  0  0  0  0  0
  -21.8882  -41.2952   -7.8848 C   0  0  0  0  0  0  0  0  0  0  0  0
  1  2  1  0
  2  3  1  0
  3  4  1  0
  4  5  1  0
  5  6  1  0
  6  7  2  0
  6  8  1  0
  8  9  1  6
  8 10  1  0
 10 11  1  0
 11 12  1  1
 11 13  1  0
 13 14  1  1
 14 15  1  0
 15 16  1  1
 15 17  1  0
 17 18  1  0
 18 19  1  0
 19 20  1  0
 20 21  2  0
 21 22  1  0
 22 23  2  0
 23 24  1  0
 24 25  1  0
 25 26  2  0
 25 27  2  0
 25 28  1  0
 28 29  1  0
 29 30  1  1
 29 31  1  0
 31 32  2  0
 31 33  1  0
 23 34  1  0
 33 13  1  0
 34 19  2  0
M  END
$$$$
