
     RDKit          3D

 34 35  0  0  0  0  0  0  0  0999 V2000
  -13.4610  -34.4010  -11.5898 C   0  0  0  0  0  0  0  0  0  0  0  0
  -12.9502  -35.7350  -12.0906 C   0  0  0  0  0  0  0  0  0  0  0  0
  -13.1899  -36.8403  -11.0810 C   0  0  0  0  0  0  0  0  0  0  0  0
  -12.8205  -38.1868  -11.6117 C   0  0  0  0  0  0  0  0  0  0  0  0
  -13.1334  -39.1900  -10.6241 N   0  0  0  0  0  0  0  0  0  0  0  0
  -14.4257  -39.7224  -10.3841 C   0  0  0  0  0  0  0  0  0  0  0  0
  -15.3730  -39.1700  -11.0117 O   0  0  0  0  0  0  0  0  0  0  0  0
  -14.7116  -40.8324   -9.4823 C   0  0  2  0  0  0  0  0  0  0  0  0
  -14.2848  -42.1914   -9.9928 C   0  0  0  0  0  0  0  0  0  0  0  0
  -16.0626  -40.8593   -8.8574 C   0  0  0  0  0  0  0  0  0  0  0  0
  -16.5096  -39.6281   -8.1618 C   0  0  2  0  0  0  0  0  0  0  0  0
  -15.8088  -39.2199   -7.0760 O   0  0  0  0  0  0  0  0  0  0  0  0
  -18.0352  -39.7648   -7.9071 C   0  0  2  0  0  0  0  0  0  0  0  0
  -18.7556  -38.5467   -8.2818 C   0  0  0  0  0  0  0  0  0  0  0  0
  -19.5380  -37.7433   -7.3537 C   0  0  2  0  0  0  0  0  0  0  0  0
  -18.8588  -37.2013   -6.1325 C   0  0  0  0  0  0  0  0  0  0  0  0
  -20.9034  -38.2261   -6.9526 C   0  0  0  0  0  0  0  0  0  0  0  0
  -21.7777  -38.3022   -8.1796 C   0  0  0  0  0  0  0  0  0  0  0  0
  -22.3013  -39.6758   -8.4800 C   0  0  0  0  0  0  0  0  0  0  0  0
  -23.6655  -39.7522   -8.1095 C   0  0  0  0  0  0  0  0  0  0  0  0
  -24.4082  -40.8962   -8.2126 C   0  0  0  0  0  0  0  0  0  0  0  0
  -23.7386  -41.9829   -8.7042 C   0  0  0  0  0  0  0  0  0  0  0  0
  -22.3755  -41.9547   -9.0879 C   0  0  0  0  0  0  0  0  0  0  0  0
  -21.9463  -43.3123   -9.5237 C   0  0  0  0  0  0  0  0  0  0  0  0
  -20.9211  -44.1876   -8.3853 S   0  0  0  0  0  6  0  0  0  0  0  0
  -20.4215  -45.4088   -9.1073 O   0  0  0  0  0  0  0  0  0  0  0  0
  -21.7968  -44.6740   -7.2670 O   0  0  0  0  0  0  0  0  0  0  0  0
  -19.5281  -43.2876   -7.8076 C   0  0  0  0  0  0  0  0  0  0  0  0
  -19.7244  -42.5050   -6.5626 C   0  0  1  0  0  0  0  0  0  0  0  0
  -20.0083  -43.4416   -5.3643 C   0  0  0  0  0  0  0  0  0  0  0  0
  -18.5627  -41.6530   -6.2298 C   0  0  0  0  0  0  0  0  0  0  0  0
  -17.6940  -42.2229   -5.4515 O   0  0  0  0  0  0  0  0  0  0  0  0
  -18.2655  -40.3435   -6.6194 N   0  0  0  0  0  0  0  0  0  0  0  0
  -21.6475  -40.7832   -8.9760 C   0  0  0  0  0  0  0  0  0  0  0  0
  1  2  1  0
  2  3  1  0
  3  4  1  0
  4  5  1  0
  5  6  1  0
  6  7  2  0
  6  8  1  0
  8  9  1  6
  8 10  1  0
 10 11  1  0
 11 12  1  1
 11 13  1  0
 13 14  1  1
 14 15  1  0
 15 16  1  1
 15 17  1  0
 17 18  1  0
 18 19  1  0
 19 20  1  0
 20 21  2  0
 21 22  1  0
 22 23  2  0
 23 24  1  0
 24 25  1  0
 25 26  2  0
 25 27  2  0
 25 28  1  0
 28 29  1  0
 29 30  1  1
 29 31  1  0
 31 32  2  0
 31 33  1  0
 23 34  1  0
 33 13  1  0
 34 19  2  0
M  END
$$$$
