
     RDKit          3D

 34 35  0  0  0  0  0  0  0  0999 V2000
  -12.2374  -34.4749  -12.5213 C   0  0  0  0  0  0  0  0  0  0  0  0
  -13.3448  -35.3640  -13.0453 C   0  0  0  0  0  0  0  0  0  0  0  0
  -13.8208  -36.3442  -11.9914 C   0  0  0  0  0  0  0  0  0  0  0  0
  -13.1940  -37.6917  -12.1418 C   0  0  0  0  0  0  0  0  0  0  0  0
  -13.4736  -38.4806  -10.9675 N   0  0  0  0  0  0  0  0  0  0  0  0
  -14.5909  -39.3396  -10.8097 C   0  0  0  0  0  0  0  0  0  0  0  0
  -15.4787  -39.2568  -11.7050 O   0  0  0  0  0  0  0  0  0  0  0  0
  -14.7665  -40.2789   -9.7079 C   0  0  2  0  0  0  0  0  0  0  0  0
  -14.0647  -41.6073   -9.8881 C   0  0  0  0  0  0  0  0  0  0  0  0
  -16.1463  -40.4341   -9.1709 C   0  0  0  0  0  0  0  0  0  0  0  0
  -16.8234  -39.2078   -8.6839 C   0  0  2  0  0  0  0  0  0  0  0  0
  -16.2102  -38.4832   -7.7165 O   0  0  0  0  0  0  0  0  0  0  0  0
  -18.2903  -39.5884   -8.3459 C   0  0  2  0  0  0  0  0  0  0  0  0
  -19.1920  -38.4447   -8.4947 C   0  0  0  0  0  0  0  0  0  0  0  0
  -19.9873  -37.8862   -7.4108 C   0  0  2  0  0  0  0  0  0  0  0  0
  -19.2793  -37.4181   -6.1755 C   0  0  0  0  0  0  0  0  0  0  0  0
  -21.2384  -38.6033   -6.9881 C   0  0  0  0  0  0  0  0  0  0  0  0
  -22.1997  -38.6407   -8.1501 C   0  0  0  0  0  0  0  0  0  0  0  0
  -22.5658  -40.0232   -8.6039 C   0  0  0  0  0  0  0  0  0  0  0  0
  -23.8710  -40.3371   -8.1542 C   0  0  0  0  0  0  0  0  0  0  0  0
  -24.4659  -41.5506   -8.3656 C   0  0  0  0  0  0  0  0  0  0  0  0
  -23.7072  -42.4597   -9.0505 C   0  0  0  0  0  0  0  0  0  0  0  0
  -22.3982  -42.1914   -9.5198 C   0  0  0  0  0  0  0  0  0  0  0  0
  -21.8371  -43.4073  -10.1710 C   0  0  0  0  0  0  0  0  0  0  0  0
  -20.6117  -44.2712   -9.2408 S   0  0  0  0  0  6  0  0  0  0  0  0
  -20.0238  -45.3061  -10.1603 O   0  0  0  0  0  0  0  0  0  0  0  0
  -21.3158  -45.0166   -8.1441 O   0  0  0  0  0  0  0  0  0  0  0  0
  -19.3014  -43.2681   -8.6401 C   0  0  0  0  0  0  0  0  0  0  0  0
  -19.4871  -42.6893   -7.2867 C   0  0  1  0  0  0  0  0  0  0  0  0
  -19.5416  -43.8042   -6.2154 C   0  0  0  0  0  0  0  0  0  0  0  0
  -18.4205  -41.7338   -6.9186 C   0  0  0  0  0  0  0  0  0  0  0  0
  -17.4207  -42.2729   -6.2902 O   0  0  0  0  0  0  0  0  0  0  0  0
  -18.3302  -40.3562   -7.1396 N   0  0  0  0  0  0  0  0  0  0  0  0
  -21.8205  -40.9542   -9.2948 C   0  0  0  0  0  0  0  0  0  0  0  0
  1  2  1  0
  2  3  1  0
  3  4  1  0
  4  5  1  0
  5  6  1  0
  6  7  2  0
  6  8  1  0
  8  9  1  6
  8 10  1  0
 10 11  1  0
 11 12  1  1
 11 13  1  0
 13 14  1  1
 14 15  1  0
 15 16  1  1
 15 17  1  0
 17 18  1  0
 18 19  1  0
 19 20  1  0
 20 21  2  0
 21 22  1  0
 22 23  2  0
 23 24  1  0
 24 25  1  0
 25 26  2  0
 25 27  2  0
 25 28  1  0
 28 29  1  0
 29 30  1  1
 29 31  1  0
 31 32  2  0
 31 33  1  0
 23 34  1  0
 33 13  1  0
 34 19  2  0
M  END
$$$$
