
     RDKit          3D

 34 35  0  0  0  0  0  0  0  0999 V2000
  -12.1693  -34.9714  -13.1175 C   0  0  0  0  0  0  0  0  0  0  0  0
  -13.4072  -35.7036  -13.5897 C   0  0  0  0  0  0  0  0  0  0  0  0
  -14.0777  -36.4561  -12.4574 C   0  0  0  0  0  0  0  0  0  0  0  0
  -14.2908  -37.8990  -12.7795 C   0  0  0  0  0  0  0  0  0  0  0  0
  -14.2671  -38.6677  -11.5596 N   0  0  0  0  0  0  0  0  0  0  0  0
  -15.0338  -39.8359  -11.3173 C   0  0  0  0  0  0  0  0  0  0  0  0
  -15.8167  -40.1821  -12.2466 O   0  0  0  0  0  0  0  0  0  0  0  0
  -14.9720  -40.6304  -10.0958 C   0  0  2  0  0  0  0  0  0  0  0  0
  -14.2541  -41.9550  -10.2356 C   0  0  0  0  0  0  0  0  0  0  0  0
  -16.2285  -40.7463   -9.3057 C   0  0  0  0  0  0  0  0  0  0  0  0
  -16.9282  -39.4850   -8.9607 C   0  0  2  0  0  0  0  0  0  0  0  0
  -16.2688  -38.5789   -8.1984 O   0  0  0  0  0  0  0  0  0  0  0  0
  -18.3292  -39.8650   -8.4098 C   0  0  2  0  0  0  0  0  0  0  0  0
  -19.2403  -38.7191   -8.4169 C   0  0  0  0  0  0  0  0  0  0  0  0
  -19.8639  -38.1651   -7.2238 C   0  0  2  0  0  0  0  0  0  0  0  0
  -18.9787  -37.7047   -6.1054 C   0  0  0  0  0  0  0  0  0  0  0  0
  -21.0399  -38.8824   -6.6231 C   0  0  0  0  0  0  0  0  0  0  0  0
  -22.1636  -38.9120   -7.6290 C   0  0  0  0  0  0  0  0  0  0  0  0
  -22.5966  -40.2915   -8.0302 C   0  0  0  0  0  0  0  0  0  0  0  0
  -23.8210  -40.6057   -7.3927 C   0  0  0  0  0  0  0  0  0  0  0  0
  -24.4436  -41.8170   -7.5192 C   0  0  0  0  0  0  0  0  0  0  0  0
  -23.7976  -42.7237   -8.3140 C   0  0  0  0  0  0  0  0  0  0  0  0
  -22.5724  -42.4550   -8.9717 C   0  0  0  0  0  0  0  0  0  0  0  0
  -22.1176  -43.6684   -9.7053 C   0  0  0  0  0  0  0  0  0  0  0  0
  -20.7694  -44.5392   -8.9724 S   0  0  0  0  0  6  0  0  0  0  0  0
  -20.3275  -45.5702   -9.9744 O   0  0  0  0  0  0  0  0  0  0  0  0
  -21.3041  -45.2893   -7.7869 O   0  0  0  0  0  0  0  0  0  0  0  0
  -19.3818  -43.5414   -8.5686 C   0  0  0  0  0  0  0  0  0  0  0  0
  -19.3625  -42.9696   -7.1998 C   0  0  1  0  0  0  0  0  0  0  0  0
  -19.2594  -44.0901   -6.1379 C   0  0  0  0  0  0  0  0  0  0  0  0
  -18.2506  -42.0178   -6.9898 C   0  0  0  0  0  0  0  0  0  0  0  0
  -17.1697  -42.5619   -6.5202 O   0  0  0  0  0  0  0  0  0  0  0  0
  -18.1909  -40.6392   -7.2150 N   0  0  0  0  0  0  0  0  0  0  0  0
  -21.9647  -41.2200   -8.8291 C   0  0  0  0  0  0  0  0  0  0  0  0
  1  2  1  0
  2  3  1  0
  3  4  1  0
  4  5  1  0
  5  6  1  0
  6  7  2  0
  6  8  1  0
  8  9  1  6
  8 10  1  0
 10 11  1  0
 11 12  1  1
 11 13  1  0
 13 14  1  1
 14 15  1  0
 15 16  1  1
 15 17  1  0
 17 18  1  0
 18 19  1  0
 19 20  1  0
 20 21  2  0
 21 22  1  0
 22 23  2  0
 23 24  1  0
 24 25  1  0
 25 26  2  0
 25 27  2  0
 25 28  1  0
 28 29  1  0
 29 30  1  1
 29 31  1  0
 31 32  2  0
 31 33  1  0
 23 34  1  0
 33 13  1  0
 34 19  2  0
M  END
$$$$
