
     RDKit          3D

 34 35  0  0  0  0  0  0  0  0999 V2000
  -11.1811  -36.0683  -13.3872 C   0  0  0  0  0  0  0  0  0  0  0  0
  -11.5442  -36.6786  -12.0504 C   0  0  0  0  0  0  0  0  0  0  0  0
  -13.0084  -36.4682  -11.7189 C   0  0  0  0  0  0  0  0  0  0  0  0
  -13.8675  -37.5950  -12.1915 C   0  0  0  0  0  0  0  0  0  0  0  0
  -13.9805  -38.5795  -11.1438 N   0  0  0  0  0  0  0  0  0  0  0  0
  -15.1616  -39.2953  -10.8219 C   0  0  0  0  0  0  0  0  0  0  0  0
  -16.1958  -38.9695  -11.4705 O   0  0  0  0  0  0  0  0  0  0  0  0
  -15.2456  -40.3485   -9.8164 C   0  0  2  0  0  0  0  0  0  0  0  0
  -14.6732  -41.6821  -10.2446 C   0  0  0  0  0  0  0  0  0  0  0  0
  -16.5428  -40.4911   -9.0999 C   0  0  0  0  0  0  0  0  0  0  0  0
  -17.0399  -39.3056   -8.3605 C   0  0  2  0  0  0  0  0  0  0  0  0
  -16.2360  -38.7620   -7.4143 O   0  0  0  0  0  0  0  0  0  0  0  0
  -18.4684  -39.6390   -7.8517 C   0  0  2  0  0  0  0  0  0  0  0  0
  -19.3369  -38.4606   -7.8726 C   0  0  0  0  0  0  0  0  0  0  0  0
  -19.9728  -37.8945   -6.6918 C   0  0  2  0  0  0  0  0  0  0  0  0
  -19.1027  -37.4763   -5.5453 C   0  0  0  0  0  0  0  0  0  0  0  0
  -21.1901  -38.5736   -6.1303 C   0  0  0  0  0  0  0  0  0  0  0  0
  -22.2859  -38.5536   -7.1668 C   0  0  0  0  0  0  0  0  0  0  0  0
  -22.7573  -39.9129   -7.5928 C   0  0  0  0  0  0  0  0  0  0  0  0
  -24.0094  -40.1877   -6.9920 C   0  0  0  0  0  0  0  0  0  0  0  0
  -24.6717  -41.3744   -7.1470 C   0  0  0  0  0  0  0  0  0  0  0  0
  -24.0373  -42.2972   -7.9325 C   0  0  0  0  0  0  0  0  0  0  0  0
  -22.7855  -42.0678   -8.5540 C   0  0  0  0  0  0  0  0  0  0  0  0
  -22.3547  -43.2905   -9.2865 C   0  0  0  0  0  0  0  0  0  0  0  0
  -21.0597  -44.2162   -8.5255 S   0  0  0  0  0  6  0  0  0  0  0  0
  -20.6279  -45.2539   -9.5249 O   0  0  0  0  0  0  0  0  0  0  0  0
  -21.6537  -44.9564   -7.3622 O   0  0  0  0  0  0  0  0  0  0  0  0
  -19.6485  -43.2731   -8.0744 C   0  0  0  0  0  0  0  0  0  0  0  0
  -19.6464  -42.7141   -6.7001 C   0  0  1  0  0  0  0  0  0  0  0  0
  -19.6133  -43.8467   -5.6466 C   0  0  0  0  0  0  0  0  0  0  0  0
  -18.5070  -41.8053   -6.4508 C   0  0  0  0  0  0  0  0  0  0  0  0
  -17.4599  -42.3924   -5.9571 O   0  0  0  0  0  0  0  0  0  0  0  0
  -18.3912  -40.4279   -6.6610 N   0  0  0  0  0  0  0  0  0  0  0  0
  -22.1376  -40.8569   -8.3830 C   0  0  0  0  0  0  0  0  0  0  0  0
  1  2  1  0
  2  3  1  0
  3  4  1  0
  4  5  1  0
  5  6  1  0
  6  7  2  0
  6  8  1  0
  8  9  1  6
  8 10  1  0
 10 11  1  0
 11 12  1  1
 11 13  1  0
 13 14  1  1
 14 15  1  0
 15 16  1  1
 15 17  1  0
 17 18  1  0
 18 19  1  0
 19 20  1  0
 20 21  2  0
 21 22  1  0
 22 23  2  0
 23 24  1  0
 24 25  1  0
 25 26  2  0
 25 27  2  0
 25 28  1  0
 28 29  1  0
 29 30  1  1
 29 31  1  0
 31 32  2  0
 31 33  1  0
 23 34  1  0
 33 13  1  0
 34 19  2  0
M  END
$$$$
