
     RDKit          3D

 34 35  0  0  0  0  0  0  0  0999 V2000
  -13.2466  -34.9751  -12.9512 C   0  0  0  0  0  0  0  0  0  0  0  0
  -13.6764  -35.9635  -11.8884 C   0  0  0  0  0  0  0  0  0  0  0  0
  -12.6837  -37.1006  -11.7480 C   0  0  0  0  0  0  0  0  0  0  0  0
  -12.9684  -37.9626  -10.5619 C   0  0  0  0  0  0  0  0  0  0  0  0
  -13.7142  -39.1224  -10.9843 N   0  0  0  0  0  0  0  0  0  0  0  0
  -14.8494  -39.6489  -10.3172 C   0  0  0  0  0  0  0  0  0  0  0  0
  -15.9382  -39.5910  -10.9558 O   0  0  0  0  0  0  0  0  0  0  0  0
  -14.8304  -40.2310   -8.9800 C   0  0  2  0  0  0  0  0  0  0  0  0
  -13.9476  -41.4509   -8.8311 C   0  0  0  0  0  0  0  0  0  0  0  0
  -16.1446  -40.3948   -8.3000 C   0  0  0  0  0  0  0  0  0  0  0  0
  -17.1067  -39.2715   -8.4101 C   0  0  2  0  0  0  0  0  0  0  0  0
  -16.8251  -38.1243   -7.7456 O   0  0  0  0  0  0  0  0  0  0  0  0
  -18.5207  -39.8381   -8.1095 C   0  0  2  0  0  0  0  0  0  0  0  0
  -19.5688  -38.8637   -8.4185 C   0  0  0  0  0  0  0  0  0  0  0  0
  -20.5060  -38.3349   -7.4381 C   0  0  2  0  0  0  0  0  0  0  0  0
  -19.9559  -37.6521   -6.2225 C   0  0  0  0  0  0  0  0  0  0  0  0
  -21.6633  -39.1917   -7.0084 C   0  0  0  0  0  0  0  0  0  0  0  0
  -22.5312  -39.4824   -8.2075 C   0  0  0  0  0  0  0  0  0  0  0  0
  -22.6605  -40.9405   -8.5368 C   0  0  0  0  0  0  0  0  0  0  0  0
  -23.9320  -41.4065   -8.1239 C   0  0  0  0  0  0  0  0  0  0  0  0
  -24.3276  -42.7106   -8.2410 C   0  0  0  0  0  0  0  0  0  0  0  0
  -23.4011  -43.5531   -8.7912 C   0  0  0  0  0  0  0  0  0  0  0  0
  -22.1178  -43.1334   -9.2189 C   0  0  0  0  0  0  0  0  0  0  0  0
  -21.3435  -44.3047   -9.7146 C   0  0  0  0  0  0  0  0  0  0  0  0
  -20.0677  -44.8821   -8.6413 S   0  0  0  0  0  6  0  0  0  0  0  0
  -19.2760  -45.8961   -9.4205 O   0  0  0  0  0  0  0  0  0  0  0  0
  -20.7246  -45.6213   -7.5116 O   0  0  0  0  0  0  0  0  0  0  0  0
  -18.9603  -43.6400   -8.0801 C   0  0  0  0  0  0  0  0  0  0  0  0
  -19.3164  -42.9735   -6.8033 C   0  0  1  0  0  0  0  0  0  0  0  0
  -19.2762  -43.9796   -5.6287 C   0  0  0  0  0  0  0  0  0  0  0  0
  -18.4275  -41.8368   -6.4806 C   0  0  0  0  0  0  0  0  0  0  0  0
  -17.4024  -42.1569   -5.7515 O   0  0  0  0  0  0  0  0  0  0  0  0
  -18.5259  -40.4880   -6.8352 N   0  0  0  0  0  0  0  0  0  0  0  0
  -21.7435  -41.8072   -9.0916 C   0  0  0  0  0  0  0  0  0  0  0  0
  1  2  1  0
  2  3  1  0
  3  4  1  0
  4  5  1  0
  5  6  1  0
  6  7  2  0
  6  8  1  0
  8  9  1  6
  8 10  1  0
 10 11  1  0
 11 12  1  1
 11 13  1  0
 13 14  1  1
 14 15  1  0
 15 16  1  1
 15 17  1  0
 17 18  1  0
 18 19  1  0
 19 20  1  0
 20 21  2  0
 21 22  1  0
 22 23  2  0
 23 24  1  0
 24 25  1  0
 25 26  2  0
 25 27  2  0
 25 28  1  0
 28 29  1  0
 29 30  1  1
 29 31  1  0
 31 32  2  0
 31 33  1  0
 23 34  1  0
 33 13  1  0
 34 19  2  0
M  END
$$$$
