
     RDKit          3D

 34 35  0  0  0  0  0  0  0  0999 V2000
  -11.3510  -37.1151  -14.1422 C   0  0  0  0  0  0  0  0  0  0  0  0
  -11.9703  -36.8276  -12.7912 C   0  0  0  0  0  0  0  0  0  0  0  0
  -13.3724  -37.3945  -12.6868 C   0  0  0  0  0  0  0  0  0  0  0  0
  -13.9983  -37.1257  -11.3575 C   0  0  0  0  0  0  0  0  0  0  0  0
  -13.9022  -38.3085  -10.5381 N   0  0  0  0  0  0  0  0  0  0  0  0
  -14.8773  -39.3360  -10.4723 C   0  0  0  0  0  0  0  0  0  0  0  0
  -15.7731  -39.3015  -11.3628 O   0  0  0  0  0  0  0  0  0  0  0  0
  -14.9035  -40.3922   -9.4668 C   0  0  2  0  0  0  0  0  0  0  0  0
  -14.2522  -41.6900   -9.8922 C   0  0  0  0  0  0  0  0  0  0  0  0
  -16.1929  -40.6105   -8.7554 C   0  0  0  0  0  0  0  0  0  0  0  0
  -16.8489  -39.4186   -8.1651 C   0  0  2  0  0  0  0  0  0  0  0  0
  -16.2300  -38.7973   -7.1318 O   0  0  0  0  0  0  0  0  0  0  0  0
  -18.3265  -39.7964   -7.8739 C   0  0  2  0  0  0  0  0  0  0  0  0
  -19.1982  -38.6204   -7.8967 C   0  0  0  0  0  0  0  0  0  0  0  0
  -19.9840  -38.1649   -6.7591 C   0  0  2  0  0  0  0  0  0  0  0  0
  -19.2700  -37.8546   -5.4784 C   0  0  0  0  0  0  0  0  0  0  0  0
  -21.2549  -38.8918   -6.4206 C   0  0  0  0  0  0  0  0  0  0  0  0
  -22.2114  -38.7757   -7.5812 C   0  0  0  0  0  0  0  0  0  0  0  0
  -22.6105  -40.0896   -8.1859 C   0  0  0  0  0  0  0  0  0  0  0  0
  -23.9254  -40.4176   -7.7760 C   0  0  0  0  0  0  0  0  0  0  0  0
  -24.5499  -41.5845   -8.1214 C   0  0  0  0  0  0  0  0  0  0  0  0
  -23.8115  -42.4315   -8.9013 C   0  0  0  0  0  0  0  0  0  0  0  0
  -22.4939  -42.1469   -9.3358 C   0  0  0  0  0  0  0  0  0  0  0  0
  -21.9609  -43.2973  -10.1166 C   0  0  0  0  0  0  0  0  0  0  0  0
  -20.7621  -44.2901   -9.2856 S   0  0  0  0  0  6  0  0  0  0  0  0
  -20.1965  -45.2318  -10.3129 O   0  0  0  0  0  0  0  0  0  0  0  0
  -21.4900  -45.1338   -8.2794 O   0  0  0  0  0  0  0  0  0  0  0  0
  -19.4295  -43.3936   -8.5752 C   0  0  0  0  0  0  0  0  0  0  0  0
  -19.6067  -42.9635   -7.1665 C   0  0  1  0  0  0  0  0  0  0  0  0
  -19.6944  -44.1882   -6.2252 C   0  0  0  0  0  0  0  0  0  0  0  0
  -18.5178  -42.0824   -6.6930 C   0  0  0  0  0  0  0  0  0  0  0  0
  -17.5349  -42.7132   -6.1265 O   0  0  0  0  0  0  0  0  0  0  0  0
  -18.3915  -40.6916   -6.7601 N   0  0  0  0  0  0  0  0  0  0  0  0
  -21.8859  -40.9574   -8.9743 C   0  0  0  0  0  0  0  0  0  0  0  0
  1  2  1  0
  2  3  1  0
  3  4  1  0
  4  5  1  0
  5  6  1  0
  6  7  2  0
  6  8  1  0
  8  9  1  6
  8 10  1  0
 10 11  1  0
 11 12  1  1
 11 13  1  0
 13 14  1  1
 14 15  1  0
 15 16  1  1
 15 17  1  0
 17 18  1  0
 18 19  1  0
 19 20  1  0
 20 21  2  0
 21 22  1  0
 22 23  2  0
 23 24  1  0
 24 25  1  0
 25 26  2  0
 25 27  2  0
 25 28  1  0
 28 29  1  0
 29 30  1  1
 29 31  1  0
 31 32  2  0
 31 33  1  0
 23 34  1  0
 33 13  1  0
 34 19  2  0
M  END
$$$$
