
     RDKit          3D

 34 35  0  0  0  0  0  0  0  0999 V2000
  -11.6049  -36.3117  -14.3582 C   0  0  0  0  0  0  0  0  0  0  0  0
  -12.7824  -36.4888  -13.4236 C   0  0  0  0  0  0  0  0  0  0  0  0
  -12.3884  -36.2592  -11.9779 C   0  0  0  0  0  0  0  0  0  0  0  0
  -13.5654  -36.2662  -11.0583 C   0  0  0  0  0  0  0  0  0  0  0  0
  -13.5523  -37.4783  -10.2772 N   0  0  0  0  0  0  0  0  0  0  0  0
  -14.2143  -38.6820  -10.6293 C   0  0  0  0  0  0  0  0  0  0  0  0
  -14.6707  -38.7343  -11.8063 O   0  0  0  0  0  0  0  0  0  0  0  0
  -14.3931  -39.8222   -9.7375 C   0  0  2  0  0  0  0  0  0  0  0  0
  -13.5771  -41.0443  -10.0980 C   0  0  0  0  0  0  0  0  0  0  0  0
  -15.7912  -40.1649   -9.3575 C   0  0  0  0  0  0  0  0  0  0  0  0
  -16.4157  -39.3581   -8.2812 C   0  0  2  0  0  0  0  0  0  0  0  0
  -15.9008  -39.4564   -7.0313 O   0  0  0  0  0  0  0  0  0  0  0  0
  -17.9481  -39.5992   -8.3475 C   0  0  2  0  0  0  0  0  0  0  0  0
  -18.6733  -38.3709   -8.6771 C   0  0  0  0  0  0  0  0  0  0  0  0
  -19.6693  -37.7545   -7.8128 C   0  0  2  0  0  0  0  0  0  0  0  0
  -19.2677  -37.3769   -6.4191 C   0  0  0  0  0  0  0  0  0  0  0  0
  -21.0467  -38.3527   -7.7555 C   0  0  0  0  0  0  0  0  0  0  0  0
  -21.6722  -38.2781   -9.1262 C   0  0  0  0  0  0  0  0  0  0  0  0
  -22.0308  -39.6111   -9.7142 C   0  0  0  0  0  0  0  0  0  0  0  0
  -23.4308  -39.8033   -9.6285 C   0  0  0  0  0  0  0  0  0  0  0  0
  -24.0570  -40.9496  -10.0346 C   0  0  0  0  0  0  0  0  0  0  0  0
  -23.2315  -41.9175  -10.5373 C   0  0  0  0  0  0  0  0  0  0  0  0
  -21.8268  -41.7709  -10.6428 C   0  0  0  0  0  0  0  0  0  0  0  0
  -21.2277  -43.0254  -11.1761 C   0  0  0  0  0  0  0  0  0  0  0  0
  -20.3692  -44.0190   -9.9976 S   0  0  0  0  0  6  0  0  0  0  0  0
  -19.6582  -45.0918  -10.7758 O   0  0  0  0  0  0  0  0  0  0  0  0
  -21.3984  -44.7091   -9.1500 O   0  0  0  0  0  0  0  0  0  0  0  0
  -19.1752  -43.1578   -9.0400 C   0  0  0  0  0  0  0  0  0  0  0  0
  -19.6535  -42.5848   -7.7578 C   0  0  1  0  0  0  0  0  0  0  0  0
  -20.0848  -43.7056   -6.7824 C   0  0  0  0  0  0  0  0  0  0  0  0
  -18.6377  -41.7436   -7.0895 C   0  0  0  0  0  0  0  0  0  0  0  0
  -17.8884  -42.3873   -6.2473 O   0  0  0  0  0  0  0  0  0  0  0  0
  -18.3692  -40.3781   -7.2242 N   0  0  0  0  0  0  0  0  0  0  0  0
  -21.2185  -40.5995  -10.2271 C   0  0  0  0  0  0  0  0  0  0  0  0
  1  2  1  0
  2  3  1  0
  3  4  1  0
  4  5  1  0
  5  6  1  0
  6  7  2  0
  6  8  1  0
  8  9  1  6
  8 10  1  0
 10 11  1  0
 11 12  1  1
 11 13  1  0
 13 14  1  1
 14 15  1  0
 15 16  1  1
 15 17  1  0
 17 18  1  0
 18 19  1  0
 19 20  1  0
 20 21  2  0
 21 22  1  0
 22 23  2  0
 23 24  1  0
 24 25  1  0
 25 26  2  0
 25 27  2  0
 25 28  1  0
 28 29  1  0
 29 30  1  1
 29 31  1  0
 31 32  2  0
 31 33  1  0
 23 34  1  0
 33 13  1  0
 34 19  2  0
M  END
$$$$
