
     RDKit          3D

 39 41  0  0  0  0  0  0  0  0999 V2000
  -20.6649  -49.2273   -7.8212 C   0  0  0  0  0  0  0  0  0  0  0  0
  -20.4045  -47.7575   -7.8337 C   0  0  0  0  0  0  0  0  0  0  0  0
  -19.0914  -47.3927   -7.5482 O   0  0  0  0  0  0  0  0  0  0  0  0
  -18.3706  -46.3906   -8.1634 C   0  0  0  0  0  0  0  0  0  0  0  0
  -17.5639  -45.5735   -7.3658 C   0  0  0  0  0  0  0  0  0  0  0  0
  -16.8158  -44.5562   -7.8964 C   0  0  0  0  0  0  0  0  0  0  0  0
  -15.9797  -43.7310   -6.9649 C   0  0  0  0  0  0  0  0  0  0  0  0
  -16.2668  -42.3699   -7.0008 N   0  0  0  0  0  0  0  0  0  0  0  0
  -15.9786  -41.5008   -8.0265 C   0  0  0  0  0  0  0  0  0  0  0  0
  -16.1279  -40.0517   -7.9876 C   0  0  1  0  0  0  0  0  0  0  0  0
  -15.6797  -39.4542   -6.8070 O   0  0  0  0  0  0  0  0  0  0  0  0
  -16.0314  -39.1931   -9.1984 C   0  0  2  0  0  0  0  0  0  0  0  0
  -16.3487  -37.7427   -8.8298 C   0  0  0  0  0  0  0  0  0  0  0  0
  -15.5589  -36.7883   -9.6421 C   0  0  2  0  0  0  0  0  0  0  0  0
  -14.8376  -35.7325   -8.8013 C   0  0  0  0  0  0  0  0  0  0  0  0
  -16.4157  -36.0301  -10.6479 C   0  0  0  0  0  0  0  0  0  0  0  0
  -17.0425  -34.7935  -10.0759 C   0  0  0  0  0  0  0  0  0  0  0  0
  -18.4200  -34.9442  -10.0885 O   0  0  0  0  0  0  0  0  0  0  0  0
  -19.1148  -33.8844  -10.6122 C   0  0  0  0  0  0  0  0  0  0  0  0
  -20.3827  -34.3199  -11.3282 C   0  0  0  0  0  0  0  0  0  0  0  0
  -21.5788  -34.3958  -10.4236 C   0  0  0  0  0  0  0  0  0  0  0  0
  -22.3384  -35.6948  -10.5309 C   0  0  0  0  0  0  0  0  0  0  0  0
  -22.0026  -36.5634   -9.4225 N   0  0  0  0  0  0  0  0  0  0  0  0
  -21.2273  -37.7594   -9.3651 C   0  0  0  0  0  0  0  0  0  0  0  0
  -20.0336  -38.1124   -9.9490 C   0  0  0  0  0  0  0  0  0  0  0  0
  -19.5133  -39.3641   -9.6963 C   0  0  0  0  0  0  0  0  0  0  0  0
  -20.2152  -40.2536   -8.8471 C   0  0  0  0  0  0  0  0  0  0  0  0
  -21.4066  -39.9423   -8.2443 C   0  0  0  0  0  0  0  0  0  0  0  0
  -21.8849  -38.6951   -8.5200 C   0  0  0  0  0  0  0  0  0  0  0  0
  -18.2824  -40.0175  -10.1756 C   0  0  0  0  0  0  0  0  0  0  0  0
  -18.4210  -41.2684  -10.6295 O   0  0  0  0  0  0  0  0  0  0  0  0
  -16.9433  -39.6052  -10.2657 N   0  0  0  0  0  0  0  0  0  0  0  0
  -16.8481  -44.3190   -9.2510 C   0  0  0  0  0  0  0  0  0  0  0  0
  -17.6421  -45.1233  -10.0351 C   0  0  0  0  0  0  0  0  0  0  0  0
  -18.3989  -46.1506   -9.5065 C   0  0  0  0  0  0  0  0  0  0  0  0
  -17.7241  -44.9188  -11.5117 C   0  0  0  0  0  0  0  0  0  0  0  0
  -17.3065  -45.9999  -12.2255 F   0  0  0  0  0  0  0  0  0  0  0  0
  -19.0442  -44.6120  -11.7893 F   0  0  0  0  0  0  0  0  0  0  0  0
  -16.9726  -43.7836  -11.8165 F   0  0  0  0  0  0  0  0  0  0  0  0
  1  2  1  0
  2  3  1  0
  3  4  1  0
  4  5  2  0
  5  6  1  0
  6  7  1  0
  7  8  1  0
  8  9  1  0
  9 10  1  0
 10 11  1  1
 10 12  1  0
 12 13  1  1
 13 14  1  0
 14 15  1  1
 14 16  1  0
 16 17  1  0
 17 18  1  0
 18 19  1  0
 19 20  1  0
 20 21  1  0
 21 22  1  0
 22 23  1  0
 23 24  1  0
 24 25  2  0
 25 26  1  0
 26 27  2  0
 27 28  1  0
 28 29  2  0
 26 30  1  0
 30 31  2  0
 30 32  1  0
  6 33  2  0
 33 34  1  0
 34 35  2  0
 34 36  1  0
 36 37  1  0
 36 38  1  0
 36 39  1  0
 29 24  1  0
 32 12  1  0
 35  4  1  0
M  END
$$$$
