
     RDKit          3D

 39 41  0  0  0  0  0  0  0  0999 V2000
  -12.5808  -37.8318  -16.3437 C   0  0  0  0  0  0  0  0  0  0  0  0
  -12.9472  -38.2113  -14.9472 C   0  0  0  0  0  0  0  0  0  0  0  0
  -13.9525  -37.4368  -14.3744 O   0  0  0  0  0  0  0  0  0  0  0  0
  -13.9837  -36.9697  -13.0770 C   0  0  0  0  0  0  0  0  0  0  0  0
  -13.5634  -37.8280  -12.0566 C   0  0  0  0  0  0  0  0  0  0  0  0
  -13.5624  -37.4434  -10.7421 C   0  0  0  0  0  0  0  0  0  0  0  0
  -13.0946  -38.4305   -9.7151 C   0  0  0  0  0  0  0  0  0  0  0  0
  -14.0968  -38.8746   -8.8581 N   0  0  0  0  0  0  0  0  0  0  0  0
  -15.4312  -38.5498   -8.9236 C   0  0  0  0  0  0  0  0  0  0  0  0
  -16.4847  -39.0836   -8.0697 C   0  0  1  0  0  0  0  0  0  0  0  0
  -16.2265  -38.9855   -6.7003 O   0  0  0  0  0  0  0  0  0  0  0  0
  -17.9252  -39.0461   -8.4384 C   0  0  2  0  0  0  0  0  0  0  0  0
  -18.7662  -39.6161   -7.2947 C   0  0  0  0  0  0  0  0  0  0  0  0
  -20.0792  -38.9376   -7.1926 C   0  0  2  0  0  0  0  0  0  0  0  0
  -20.3997  -38.4528   -5.7769 C   0  0  0  0  0  0  0  0  0  0  0  0
  -21.2344  -39.8363   -7.6149 C   0  0  0  0  0  0  0  0  0  0  0  0
  -21.7568  -40.6902   -6.4981 C   0  0  0  0  0  0  0  0  0  0  0  0
  -21.5390  -42.0218   -6.8145 O   0  0  0  0  0  0  0  0  0  0  0  0
  -22.6266  -42.8414   -6.6548 C   0  0  0  0  0  0  0  0  0  0  0  0
  -22.6536  -43.9724   -7.6696 C   0  0  0  0  0  0  0  0  0  0  0  0
  -21.9171  -45.1982   -7.2118 C   0  0  0  0  0  0  0  0  0  0  0  0
  -20.9363  -45.7304   -8.2270 C   0  0  0  0  0  0  0  0  0  0  0  0
  -19.5889  -45.3339   -7.8761 N   0  0  0  0  0  0  0  0  0  0  0  0
  -18.7043  -44.3821   -8.4645 C   0  0  0  0  0  0  0  0  0  0  0  0
  -18.9078  -43.1110   -8.9478 C   0  0  0  0  0  0  0  0  0  0  0  0
  -17.8345  -42.4144   -9.4616 C   0  0  0  0  0  0  0  0  0  0  0  0
  -16.5544  -43.0191   -9.4813 C   0  0  0  0  0  0  0  0  0  0  0  0
  -16.3071  -44.2825   -9.0096 C   0  0  0  0  0  0  0  0  0  0  0  0
  -17.3952  -44.9356   -8.5096 C   0  0  0  0  0  0  0  0  0  0  0  0
  -17.7451  -41.0654  -10.0482 C   0  0  0  0  0  0  0  0  0  0  0  0
  -17.0741  -40.9708  -11.2018 O   0  0  0  0  0  0  0  0  0  0  0  0
  -18.2250  -39.8069   -9.6516 N   0  0  0  0  0  0  0  0  0  0  0  0
  -13.9841  -36.1796  -10.3997 C   0  0  0  0  0  0  0  0  0  0  0  0
  -14.3975  -35.3356  -11.4041 C   0  0  0  0  0  0  0  0  0  0  0  0
  -14.4010  -35.7171  -12.7315 C   0  0  0  0  0  0  0  0  0  0  0  0
  -14.8686  -33.9517  -11.1011 C   0  0  0  0  0  0  0  0  0  0  0  0
  -16.1717  -33.7449  -11.4359 F   0  0  0  0  0  0  0  0  0  0  0  0
  -14.6600  -33.7573   -9.7474 F   0  0  0  0  0  0  0  0  0  0  0  0
  -14.0221  -33.0683  -11.7715 F   0  0  0  0  0  0  0  0  0  0  0  0
  1  2  1  0
  2  3  1  0
  3  4  1  0
  4  5  2  0
  5  6  1  0
  6  7  1  0
  7  8  1  0
  8  9  1  0
  9 10  1  0
 10 11  1  1
 10 12  1  0
 12 13  1  1
 13 14  1  0
 14 15  1  1
 14 16  1  0
 16 17  1  0
 17 18  1  0
 18 19  1  0
 19 20  1  0
 20 21  1  0
 21 22  1  0
 22 23  1  0
 23 24  1  0
 24 25  2  0
 25 26  1  0
 26 27  2  0
 27 28  1  0
 28 29  2  0
 26 30  1  0
 30 31  2  0
 30 32  1  0
  6 33  2  0
 33 34  1  0
 34 35  2  0
 34 36  1  0
 36 37  1  0
 36 38  1  0
 36 39  1  0
 29 24  1  0
 32 12  1  0
 35  4  1  0
M  END
$$$$
