
     RDKit          3D

 39 41  0  0  0  0  0  0  0  0999 V2000
  -23.6209  -44.7387   -7.1222 C   0  0  0  0  0  0  0  0  0  0  0  0
  -22.5608  -43.6877   -7.1233 C   0  0  0  0  0  0  0  0  0  0  0  0
  -23.0328  -42.3796   -7.1915 O   0  0  0  0  0  0  0  0  0  0  0  0
  -22.2655  -41.2335   -7.1819 C   0  0  0  0  0  0  0  0  0  0  0  0
  -21.0175  -41.2805   -6.5535 C   0  0  0  0  0  0  0  0  0  0  0  0
  -20.1932  -40.1880   -6.4992 C   0  0  0  0  0  0  0  0  0  0  0  0
  -18.8722  -40.3307   -5.8045 C   0  0  0  0  0  0  0  0  0  0  0  0
  -18.0179  -39.2471   -5.9833 N   0  0  0  0  0  0  0  0  0  0  0  0
  -17.8291  -38.5387   -7.1464 C   0  0  0  0  0  0  0  0  0  0  0  0
  -16.9013  -38.8824   -8.2165 C   0  0  1  0  0  0  0  0  0  0  0  0
  -17.4618  -39.6381   -9.2492 O   0  0  0  0  0  0  0  0  0  0  0  0
  -15.7735  -38.0033   -8.6263 C   0  0  2  0  0  0  0  0  0  0  0  0
  -15.7801  -37.8293  -10.1460 C   0  0  0  0  0  0  0  0  0  0  0  0
  -15.3077  -36.4824  -10.5427 C   0  0  2  0  0  0  0  0  0  0  0  0
  -16.2507  -35.7750  -11.5186 C   0  0  0  0  0  0  0  0  0  0  0  0
  -13.9393  -36.5177  -11.2112 C   0  0  0  0  0  0  0  0  0  0  0  0
  -14.0103  -36.7643  -12.6888 C   0  0  0  0  0  0  0  0  0  0  0  0
  -13.3907  -37.9715  -12.9705 O   0  0  0  0  0  0  0  0  0  0  0  0
  -12.4852  -37.9327  -13.9994 C   0  0  0  0  0  0  0  0  0  0  0  0
  -11.3291  -38.8969  -13.7902 C   0  0  0  0  0  0  0  0  0  0  0  0
  -11.5925  -40.2680  -14.3428 C   0  0  0  0  0  0  0  0  0  0  0  0
  -11.3085  -41.3805  -13.3643 C   0  0  0  0  0  0  0  0  0  0  0  0
  -12.5437  -41.8636  -12.7841 N   0  0  0  0  0  0  0  0  0  0  0  0
  -13.0909  -41.7137  -11.4754 C   0  0  0  0  0  0  0  0  0  0  0  0
  -13.1610  -40.6363  -10.6239 C   0  0  0  0  0  0  0  0  0  0  0  0
  -13.7711  -40.7955   -9.3977 C   0  0  0  0  0  0  0  0  0  0  0  0
  -14.3082  -42.0568   -9.0435 C   0  0  0  0  0  0  0  0  0  0  0  0
  -14.2608  -43.1561   -9.8616 C   0  0  0  0  0  0  0  0  0  0  0  0
  -13.6500  -42.9549  -11.0644 C   0  0  0  0  0  0  0  0  0  0  0  0
  -13.9865  -39.8462   -8.2912 C   0  0  0  0  0  0  0  0  0  0  0  0
  -13.6734  -40.2898   -7.0685 O   0  0  0  0  0  0  0  0  0  0  0  0
  -14.4665  -38.5282   -8.2302 N   0  0  0  0  0  0  0  0  0  0  0  0
  -20.5901  -39.0033   -7.0747 C   0  0  0  0  0  0  0  0  0  0  0  0
  -21.8181  -38.9578   -7.6927 C   0  0  0  0  0  0  0  0  0  0  0  0
  -22.6541  -40.0556   -7.7510 C   0  0  0  0  0  0  0  0  0  0  0  0
  -22.3100  -37.7032   -8.3354 C   0  0  0  0  0  0  0  0  0  0  0  0
  -23.4341  -37.2073   -7.7496 F   0  0  0  0  0  0  0  0  0  0  0  0
  -21.2666  -36.7972   -8.2692 F   0  0  0  0  0  0  0  0  0  0  0  0
  -22.5180  -37.9822   -9.6865 F   0  0  0  0  0  0  0  0  0  0  0  0
  1  2  1  0
  2  3  1  0
  3  4  1  0
  4  5  2  0
  5  6  1  0
  6  7  1  0
  7  8  1  0
  8  9  1  0
  9 10  1  0
 10 11  1  6
 10 12  1  0
 12 13  1  6
 13 14  1  0
 14 15  1  6
 14 16  1  0
 16 17  1  0
 17 18  1  0
 18 19  1  0
 19 20  1  0
 20 21  1  0
 21 22  1  0
 22 23  1  0
 23 24  1  0
 24 25  2  0
 25 26  1  0
 26 27  2  0
 27 28  1  0
 28 29  2  0
 26 30  1  0
 30 31  2  0
 30 32  1  0
  6 33  2  0
 33 34  1  0
 34 35  2  0
 34 36  1  0
 36 37  1  0
 36 38  1  0
 36 39  1  0
 29 24  1  0
 32 12  1  0
 35  4  1  0
M  END
$$$$
