
     RDKit          3D

 39 41  0  0  0  0  0  0  0  0999 V2000
  -23.6215  -39.8602  -12.5118 C   0  0  0  0  0  0  0  0  0  0  0  0
  -22.8251  -39.4170  -11.3295 C   0  0  0  0  0  0  0  0  0  0  0  0
  -22.9499  -40.2254  -10.2028 O   0  0  0  0  0  0  0  0  0  0  0  0
  -22.2941  -40.0575   -9.0011 C   0  0  0  0  0  0  0  0  0  0  0  0
  -21.2948  -39.0827   -8.9257 C   0  0  0  0  0  0  0  0  0  0  0  0
  -20.5956  -38.8512   -7.7709 C   0  0  0  0  0  0  0  0  0  0  0  0
  -19.5413  -37.7852   -7.7823 C   0  0  0  0  0  0  0  0  0  0  0  0
  -18.2660  -38.2528   -8.0841 N   0  0  0  0  0  0  0  0  0  0  0  0
  -17.2373  -38.4529   -7.1940 C   0  0  0  0  0  0  0  0  0  0  0  0
  -15.9247  -39.0004   -7.5124 C   0  0  1  0  0  0  0  0  0  0  0  0
  -14.9232  -38.6766   -6.5939 O   0  0  0  0  0  0  0  0  0  0  0  0
  -15.7352  -40.2993   -8.2119 C   0  0  2  0  0  0  0  0  0  0  0  0
  -14.3000  -40.7893   -8.0114 C   0  0  0  0  0  0  0  0  0  0  0  0
  -14.2341  -42.2674   -7.9355 C   0  0  2  0  0  0  0  0  0  0  0  0
  -13.4537  -42.7753   -6.7209 C   0  0  0  0  0  0  0  0  0  0  0  0
  -13.5764  -42.8856   -9.1626 C   0  0  0  0  0  0  0  0  0  0  0  0
  -12.0824  -42.9627   -9.0560 C   0  0  0  0  0  0  0  0  0  0  0  0
  -11.5225  -42.1616  -10.0386 O   0  0  0  0  0  0  0  0  0  0  0  0
  -10.5323  -42.7564  -10.7774 C   0  0  0  0  0  0  0  0  0  0  0  0
  -10.5069  -42.2638  -12.2150 C   0  0  0  0  0  0  0  0  0  0  0  0
   -9.6450  -41.0501  -12.4113 C   0  0  0  0  0  0  0  0  0  0  0  0
  -10.3318  -39.9333  -13.1577 C   0  0  0  0  0  0  0  0  0  0  0  0
  -10.7808  -38.9151  -12.2318 N   0  0  0  0  0  0  0  0  0  0  0  0
  -12.0877  -38.5608  -11.7833 C   0  0  0  0  0  0  0  0  0  0  0  0
  -13.1704  -39.3207  -11.4077 C   0  0  0  0  0  0  0  0  0  0  0  0
  -14.3238  -38.6823  -11.0037 C   0  0  0  0  0  0  0  0  0  0  0  0
  -14.3688  -37.2672  -10.9853 C   0  0  0  0  0  0  0  0  0  0  0  0
  -13.3134  -36.4718  -11.3505 C   0  0  0  0  0  0  0  0  0  0  0  0
  -12.1926  -37.1433  -11.7421 C   0  0  0  0  0  0  0  0  0  0  0  0
  -15.6238  -39.2169  -10.5609 C   0  0  0  0  0  0  0  0  0  0  0  0
  -16.7065  -38.6613  -11.1169 O   0  0  0  0  0  0  0  0  0  0  0  0
  -15.9956  -40.2180   -9.6494 N   0  0  0  0  0  0  0  0  0  0  0  0
  -20.8727  -39.5905   -6.6444 C   0  0  0  0  0  0  0  0  0  0  0  0
  -21.8560  -40.5495   -6.7194 C   0  0  0  0  0  0  0  0  0  0  0  0
  -22.5647  -40.7880   -7.8806 C   0  0  0  0  0  0  0  0  0  0  0  0
  -22.2052  -41.3877   -5.5344 C   0  0  0  0  0  0  0  0  0  0  0  0
  -23.3242  -40.9604   -4.8879 F   0  0  0  0  0  0  0  0  0  0  0  0
  -22.3579  -42.6802   -6.0035 F   0  0  0  0  0  0  0  0  0  0  0  0
  -21.0963  -41.3933   -4.6879 F   0  0  0  0  0  0  0  0  0  0  0  0
  1  2  1  0
  2  3  1  0
  3  4  1  0
  4  5  2  0
  5  6  1  0
  6  7  1  0
  7  8  1  0
  8  9  1  0
  9 10  1  0
 10 11  1  1
 10 12  1  0
 12 13  1  6
 13 14  1  0
 14 15  1  1
 14 16  1  0
 16 17  1  0
 17 18  1  0
 18 19  1  0
 19 20  1  0
 20 21  1  0
 21 22  1  0
 22 23  1  0
 23 24  1  0
 24 25  2  0
 25 26  1  0
 26 27  2  0
 27 28  1  0
 28 29  2  0
 26 30  1  0
 30 31  2  0
 30 32  1  0
  6 33  2  0
 33 34  1  0
 34 35  2  0
 34 36  1  0
 36 37  1  0
 36 38  1  0
 36 39  1  0
 29 24  1  0
 32 12  1  0
 35  4  1  0
M  END
$$$$
