
     RDKit          3D

 39 41  0  0  0  0  0  0  0  0999 V2000
  -25.5419  -42.9202   -9.0050 C   0  0  0  0  0  0  0  0  0  0  0  0
  -24.3785  -42.6813   -8.1006 C   0  0  0  0  0  0  0  0  0  0  0  0
  -24.2238  -41.3628   -7.6810 O   0  0  0  0  0  0  0  0  0  0  0  0
  -23.2620  -40.8901   -6.8127 C   0  0  0  0  0  0  0  0  0  0  0  0
  -22.4969  -39.7899   -7.2114 C   0  0  0  0  0  0  0  0  0  0  0  0
  -21.5221  -39.2579   -6.4097 C   0  0  0  0  0  0  0  0  0  0  0  0
  -20.7513  -38.0773   -6.9196 C   0  0  0  0  0  0  0  0  0  0  0  0
  -19.6498  -38.4140   -7.7003 N   0  0  0  0  0  0  0  0  0  0  0  0
  -18.6246  -39.2589   -7.3459 C   0  0  0  0  0  0  0  0  0  0  0  0
  -17.2014  -38.9961   -7.5168 C   0  0  1  0  0  0  0  0  0  0  0  0
  -16.6307  -38.2159   -6.5083 O   0  0  0  0  0  0  0  0  0  0  0  0
  -16.2706  -39.9585   -8.1648 C   0  0  2  0  0  0  0  0  0  0  0  0
  -14.9189  -39.2851   -8.4090 C   0  0  0  0  0  0  0  0  0  0  0  0
  -13.7990  -40.2455   -8.2741 C   0  0  2  0  0  0  0  0  0  0  0  0
  -12.6862  -39.7490   -7.3481 C   0  0  0  0  0  0  0  0  0  0  0  0
  -13.1406  -40.5650   -9.6101 C   0  0  0  0  0  0  0  0  0  0  0  0
  -12.0635  -39.5912   -9.9855 C   0  0  0  0  0  0  0  0  0  0  0  0
  -12.4450  -38.9262  -11.1399 O   0  0  0  0  0  0  0  0  0  0  0  0
  -11.4903  -38.8757  -12.1227 C   0  0  0  0  0  0  0  0  0  0  0  0
  -12.0929  -38.9043  -13.5177 C   0  0  0  0  0  0  0  0  0  0  0  0
  -12.4229  -37.5395  -14.0497 C   0  0  0  0  0  0  0  0  0  0  0  0
  -13.8236  -37.4252  -14.5980 C   0  0  0  0  0  0  0  0  0  0  0  0
  -14.6850  -36.7699  -13.6366 N   0  0  0  0  0  0  0  0  0  0  0  0
  -15.7331  -37.2770  -12.8126 C   0  0  0  0  0  0  0  0  0  0  0  0
  -15.8440  -38.4263  -12.0660 C   0  0  0  0  0  0  0  0  0  0  0  0
  -17.0016  -38.6458  -11.3496 C   0  0  0  0  0  0  0  0  0  0  0  0
  -18.0448  -37.6897  -11.3985 C   0  0  0  0  0  0  0  0  0  0  0  0
  -17.9757  -36.5311  -12.1285 C   0  0  0  0  0  0  0  0  0  0  0  0
  -16.8141  -36.3531  -12.8208 C   0  0  0  0  0  0  0  0  0  0  0  0
  -17.4077  -39.7660  -10.4825 C   0  0  0  0  0  0  0  0  0  0  0  0
  -18.6357  -40.2542  -10.6915 O   0  0  0  0  0  0  0  0  0  0  0  0
  -16.7694  -40.4632   -9.4443 N   0  0  0  0  0  0  0  0  0  0  0  0
  -21.2766  -39.8105   -5.1742 C   0  0  0  0  0  0  0  0  0  0  0  0
  -22.0296  -40.8930   -4.7826 C   0  0  0  0  0  0  0  0  0  0  0  0
  -23.0140  -41.4343   -5.5860 C   0  0  0  0  0  0  0  0  0  0  0  0
  -21.8133  -41.5411   -3.4552 C   0  0  0  0  0  0  0  0  0  0  0  0
  -22.2706  -42.8221   -3.4045 F   0  0  0  0  0  0  0  0  0  0  0  0
  -20.4529  -41.4825   -3.2107 F   0  0  0  0  0  0  0  0  0  0  0  0
  -22.4314  -40.7392   -2.4954 F   0  0  0  0  0  0  0  0  0  0  0  0
  1  2  1  0
  2  3  1  0
  3  4  1  0
  4  5  2  0
  5  6  1  0
  6  7  1  0
  7  8  1  0
  8  9  1  0
  9 10  1  0
 10 11  1  1
 10 12  1  0
 12 13  1  6
 13 14  1  0
 14 15  1  1
 14 16  1  0
 16 17  1  0
 17 18  1  0
 18 19  1  0
 19 20  1  0
 20 21  1  0
 21 22  1  0
 22 23  1  0
 23 24  1  0
 24 25  2  0
 25 26  1  0
 26 27  2  0
 27 28  1  0
 28 29  2  0
 26 30  1  0
 30 31  2  0
 30 32  1  0
  6 33  2  0
 33 34  1  0
 34 35  2  0
 34 36  1  0
 36 37  1  0
 36 38  1  0
 36 39  1  0
 29 24  1  0
 32 12  1  0
 35  4  1  0
M  END
$$$$
