
     RDKit          3D

 39 41  0  0  0  0  0  0  0  0999 V2000
  -18.4897  -35.0523  -11.9519 C   0  0  0  0  0  0  0  0  0  0  0  0
  -17.7343  -36.2855  -12.3219 C   0  0  0  0  0  0  0  0  0  0  0  0
  -16.5785  -36.0634  -13.0659 O   0  0  0  0  0  0  0  0  0  0  0  0
  -15.2843  -36.3054  -12.6550 C   0  0  0  0  0  0  0  0  0  0  0  0
  -15.0867  -37.1613  -11.5674 C   0  0  0  0  0  0  0  0  0  0  0  0
  -13.8347  -37.4551  -11.0960 C   0  0  0  0  0  0  0  0  0  0  0  0
  -13.7183  -38.3836   -9.9246 C   0  0  0  0  0  0  0  0  0  0  0  0
  -14.9394  -38.8503   -9.4478 N   0  0  0  0  0  0  0  0  0  0  0  0
  -15.4205  -38.7186   -8.1665 C   0  0  0  0  0  0  0  0  0  0  0  0
  -16.4324  -39.5610   -7.5417 C   0  0  1  0  0  0  0  0  0  0  0  0
  -16.0782  -40.0574   -6.2849 O   0  0  0  0  0  0  0  0  0  0  0  0
  -17.8923  -39.3633   -7.7469 C   0  0  2  0  0  0  0  0  0  0  0  0
  -18.6499  -39.7523   -6.4762 C   0  0  0  0  0  0  0  0  0  0  0  0
  -19.8508  -38.9079   -6.2772 C   0  0  2  0  0  0  0  0  0  0  0  0
  -19.9372  -38.3020   -4.8745 C   0  0  0  0  0  0  0  0  0  0  0  0
  -21.1473  -39.6766   -6.4978 C   0  0  0  0  0  0  0  0  0  0  0  0
  -21.6279  -40.3887   -5.2685 C   0  0  0  0  0  0  0  0  0  0  0  0
  -21.6099  -41.7537   -5.5072 O   0  0  0  0  0  0  0  0  0  0  0  0
  -22.7597  -42.4177   -5.1647 C   0  0  0  0  0  0  0  0  0  0  0  0
  -23.0439  -43.5952   -6.0826 C   0  0  0  0  0  0  0  0  0  0  0  0
  -22.4081  -44.8747   -5.6208 C   0  0  0  0  0  0  0  0  0  0  0  0
  -21.6281  -45.5870   -6.6978 C   0  0  0  0  0  0  0  0  0  0  0  0
  -20.2105  -45.3442   -6.5322 N   0  0  0  0  0  0  0  0  0  0  0  0
  -19.2972  -44.5493   -7.2862 C   0  0  0  0  0  0  0  0  0  0  0  0
  -19.4054  -43.2941   -7.8370 C   0  0  0  0  0  0  0  0  0  0  0  0
  -18.3274  -42.7713   -8.5194 C   0  0  0  0  0  0  0  0  0  0  0  0
  -17.1401  -43.5336   -8.6386 C   0  0  0  0  0  0  0  0  0  0  0  0
  -16.9892  -44.7874   -8.1048 C   0  0  0  0  0  0  0  0  0  0  0  0
  -18.0784  -45.2660   -7.4376 C   0  0  0  0  0  0  0  0  0  0  0  0
  -18.1502  -41.4823   -9.2115 C   0  0  0  0  0  0  0  0  0  0  0  0
  -17.6178  -41.5431  -10.4373 O   0  0  0  0  0  0  0  0  0  0  0  0
  -18.4254  -40.1516   -8.8583 N   0  0  0  0  0  0  0  0  0  0  0  0
  -12.7299  -36.9002  -11.6991 C   0  0  0  0  0  0  0  0  0  0  0  0
  -12.9251  -36.0580  -12.7691 C   0  0  0  0  0  0  0  0  0  0  0  0
  -14.1847  -35.7576  -13.2493 C   0  0  0  0  0  0  0  0  0  0  0  0
  -11.7696  -35.4212  -13.4678 C   0  0  0  0  0  0  0  0  0  0  0  0
  -10.9271  -36.3240  -14.0404 F   0  0  0  0  0  0  0  0  0  0  0  0
  -12.3092  -34.5668  -14.4127 F   0  0  0  0  0  0  0  0  0  0  0  0
  -11.1070  -34.6243  -12.5339 F   0  0  0  0  0  0  0  0  0  0  0  0
  1  2  1  0
  2  3  1  0
  3  4  1  0
  4  5  2  0
  5  6  1  0
  6  7  1  0
  7  8  1  0
  8  9  1  0
  9 10  1  0
 10 11  1  1
 10 12  1  0
 12 13  1  1
 13 14  1  0
 14 15  1  1
 14 16  1  0
 16 17  1  0
 17 18  1  0
 18 19  1  0
 19 20  1  0
 20 21  1  0
 21 22  1  0
 22 23  1  0
 23 24  1  0
 24 25  2  0
 25 26  1  0
 26 27  2  0
 27 28  1  0
 28 29  2  0
 26 30  1  0
 30 31  2  0
 30 32  1  0
  6 33  2  0
 33 34  1  0
 34 35  2  0
 34 36  1  0
 36 37  1  0
 36 38  1  0
 36 39  1  0
 29 24  1  0
 32 12  1  0
 35  4  1  0
M  END
$$$$
