
     RDKit          3D

 39 41  0  0  0  0  0  0  0  0999 V2000
  -26.1584  -42.8327   -5.9046 C   0  0  0  0  0  0  0  0  0  0  0  0
  -24.9492  -42.2333   -5.2667 C   0  0  0  0  0  0  0  0  0  0  0  0
  -24.1464  -41.4835   -6.1222 O   0  0  0  0  0  0  0  0  0  0  0  0
  -22.9512  -40.8769   -5.7972 C   0  0  0  0  0  0  0  0  0  0  0  0
  -22.3247  -40.0908   -6.7689 C   0  0  0  0  0  0  0  0  0  0  0  0
  -21.1366  -39.4533   -6.5283 C   0  0  0  0  0  0  0  0  0  0  0  0
  -20.5377  -38.6310   -7.6297 C   0  0  0  0  0  0  0  0  0  0  0  0
  -19.2649  -38.1453   -7.3464 N   0  0  0  0  0  0  0  0  0  0  0  0
  -18.0953  -38.8681   -7.3482 C   0  0  0  0  0  0  0  0  0  0  0  0
  -16.8357  -38.4560   -7.9545 C   0  0  1  0  0  0  0  0  0  0  0  0
  -16.6339  -37.0742   -7.9895 O   0  0  0  0  0  0  0  0  0  0  0  0
  -15.5919  -39.2676   -7.8726 C   0  0  2  0  0  0  0  0  0  0  0  0
  -14.6005  -38.8028   -8.9408 C   0  0  0  0  0  0  0  0  0  0  0  0
  -13.1996  -38.9242   -8.4744 C   0  0  2  0  0  0  0  0  0  0  0  0
  -12.3849  -37.6436   -8.6705 C   0  0  0  0  0  0  0  0  0  0  0  0
  -12.4409  -40.0343   -9.1903 C   0  0  0  0  0  0  0  0  0  0  0  0
  -11.8160  -39.5870  -10.4782 C   0  0  0  0  0  0  0  0  0  0  0  0
  -12.4003  -40.2837  -11.5239 O   0  0  0  0  0  0  0  0  0  0  0  0
  -11.5186  -40.8422  -12.4132 C   0  0  0  0  0  0  0  0  0  0  0  0
  -12.0337  -42.1473  -12.9975 C   0  0  0  0  0  0  0  0  0  0  0  0
  -12.8540  -41.9580  -14.2408 C   0  0  0  0  0  0  0  0  0  0  0  0
  -14.1783  -42.6800  -14.2088 C   0  0  0  0  0  0  0  0  0  0  0  0
  -15.2461  -41.7526  -13.8997 N   0  0  0  0  0  0  0  0  0  0  0  0
  -16.0341  -41.5828  -12.7228 C   0  0  0  0  0  0  0  0  0  0  0  0
  -15.7081  -41.5878  -11.3871 C   0  0  0  0  0  0  0  0  0  0  0  0
  -16.7058  -41.3837  -10.4575 C   0  0  0  0  0  0  0  0  0  0  0  0
  -18.0361  -41.1756  -10.8954 C   0  0  0  0  0  0  0  0  0  0  0  0
  -18.4046  -41.1620  -12.2159 C   0  0  0  0  0  0  0  0  0  0  0  0
  -17.3876  -41.3667  -13.1015 C   0  0  0  0  0  0  0  0  0  0  0  0
  -16.6658  -41.3439   -8.9849 C   0  0  0  0  0  0  0  0  0  0  0  0
  -17.6051  -42.0571   -8.3531 O   0  0  0  0  0  0  0  0  0  0  0  0
  -15.8298  -40.6991   -8.0593 N   0  0  0  0  0  0  0  0  0  0  0  0
  -20.5295  -39.5802   -5.3004 C   0  0  0  0  0  0  0  0  0  0  0  0
  -21.1464  -40.3538   -4.3448 C   0  0  0  0  0  0  0  0  0  0  0  0
  -22.3444  -40.9992   -4.5809 C   0  0  0  0  0  0  0  0  0  0  0  0
  -20.5405  -40.5344   -2.9924 C   0  0  0  0  0  0  0  0  0  0  0  0
  -20.6868  -39.4442   -2.1907 F   0  0  0  0  0  0  0  0  0  0  0  0
  -21.1456  -41.6495   -2.4407 F   0  0  0  0  0  0  0  0  0  0  0  0
  -19.1955  -40.8551   -3.1789 F   0  0  0  0  0  0  0  0  0  0  0  0
  1  2  1  0
  2  3  1  0
  3  4  1  0
  4  5  2  0
  5  6  1  0
  6  7  1  0
  7  8  1  0
  8  9  1  0
  9 10  1  0
 10 11  1  1
 10 12  1  0
 12 13  1  6
 13 14  1  0
 14 15  1  6
 14 16  1  0
 16 17  1  0
 17 18  1  0
 18 19  1  0
 19 20  1  0
 20 21  1  0
 21 22  1  0
 22 23  1  0
 23 24  1  0
 24 25  2  0
 25 26  1  0
 26 27  2  0
 27 28  1  0
 28 29  2  0
 26 30  1  0
 30 31  2  0
 30 32  1  0
  6 33  2  0
 33 34  1  0
 34 35  2  0
 34 36  1  0
 36 37  1  0
 36 38  1  0
 36 39  1  0
 29 24  1  0
 32 12  1  0
 35  4  1  0
M  END
$$$$
