
     RDKit          3D

 39 41  0  0  0  0  0  0  0  0999 V2000
  -10.1047  -36.5091  -14.5995 C   0  0  0  0  0  0  0  0  0  0  0  0
  -10.9706  -36.2647  -13.4083 C   0  0  0  0  0  0  0  0  0  0  0  0
  -12.3129  -36.5905  -13.5831 O   0  0  0  0  0  0  0  0  0  0  0  0
  -13.3210  -36.4217  -12.6571 C   0  0  0  0  0  0  0  0  0  0  0  0
  -13.2355  -37.1271  -11.4531 C   0  0  0  0  0  0  0  0  0  0  0  0
  -14.1931  -37.0165  -10.4801 C   0  0  0  0  0  0  0  0  0  0  0  0
  -14.0186  -37.8106   -9.2204 C   0  0  0  0  0  0  0  0  0  0  0  0
  -15.2123  -38.2585   -8.6629 N   0  0  0  0  0  0  0  0  0  0  0  0
  -15.3728  -39.3530   -7.8464 C   0  0  0  0  0  0  0  0  0  0  0  0
  -16.6299  -39.8146   -7.2715 C   0  0  1  0  0  0  0  0  0  0  0  0
  -16.6312  -39.9053   -5.8775 O   0  0  0  0  0  0  0  0  0  0  0  0
  -17.9556  -39.5243   -7.8803 C   0  0  2  0  0  0  0  0  0  0  0  0
  -19.0420  -39.5840   -6.8050 C   0  0  0  0  0  0  0  0  0  0  0  0
  -20.1246  -38.6077   -7.0688 C   0  0  2  0  0  0  0  0  0  0  0  0
  -20.4578  -37.7338   -5.8574 C   0  0  0  0  0  0  0  0  0  0  0  0
  -21.4256  -39.2791   -7.4897 C   0  0  0  0  0  0  0  0  0  0  0  0
  -22.2814  -39.6885   -6.3281 C   0  0  0  0  0  0  0  0  0  0  0  0
  -22.3991  -41.0694   -6.3247 O   0  0  0  0  0  0  0  0  0  0  0  0
  -23.6790  -41.5422   -6.1891 C   0  0  0  0  0  0  0  0  0  0  0  0
  -23.8982  -42.8444   -6.9416 C   0  0  0  0  0  0  0  0  0  0  0  0
  -23.5777  -44.0629   -6.1248 C   0  0  0  0  0  0  0  0  0  0  0  0
  -22.6709  -45.0424   -6.8278 C   0  0  0  0  0  0  0  0  0  0  0  0
  -21.3145  -44.9065   -6.3406 N   0  0  0  0  0  0  0  0  0  0  0  0
  -20.1449  -44.3641   -6.9509 C   0  0  0  0  0  0  0  0  0  0  0  0
  -19.9406  -43.2364   -7.7106 C   0  0  0  0  0  0  0  0  0  0  0  0
  -18.6682  -42.9611   -8.1649 C   0  0  0  0  0  0  0  0  0  0  0  0
  -17.6062  -43.8404   -7.8423 C   0  0  0  0  0  0  0  0  0  0  0  0
  -17.7652  -44.9741   -7.0878 C   0  0  0  0  0  0  0  0  0  0  0  0
  -19.0385  -45.2082   -6.6583 C   0  0  0  0  0  0  0  0  0  0  0  0
  -18.1512  -41.8549   -8.9900 C   0  0  0  0  0  0  0  0  0  0  0  0
  -17.3551  -42.2042  -10.0069 O   0  0  0  0  0  0  0  0  0  0  0  0
  -18.3129  -40.4610   -8.9460 N   0  0  0  0  0  0  0  0  0  0  0  0
  -15.2761  -36.1918  -10.6779 C   0  0  0  0  0  0  0  0  0  0  0  0
  -15.3597  -35.4981  -11.8628 C   0  0  0  0  0  0  0  0  0  0  0  0
  -14.3977  -35.6052  -12.8480 C   0  0  0  0  0  0  0  0  0  0  0  0
  -16.5095  -34.5877  -12.1420 C   0  0  0  0  0  0  0  0  0  0  0  0
  -16.5779  -34.1960  -13.4438 F   0  0  0  0  0  0  0  0  0  0  0  0
  -17.6496  -35.2730  -11.7621 F   0  0  0  0  0  0  0  0  0  0  0  0
  -16.3910  -33.4936  -11.2845 F   0  0  0  0  0  0  0  0  0  0  0  0
  1  2  1  0
  2  3  1  0
  3  4  1  0
  4  5  2  0
  5  6  1  0
  6  7  1  0
  7  8  1  0
  8  9  1  0
  9 10  1  0
 10 11  1  1
 10 12  1  0
 12 13  1  1
 13 14  1  0
 14 15  1  1
 14 16  1  0
 16 17  1  0
 17 18  1  0
 18 19  1  0
 19 20  1  0
 20 21  1  0
 21 22  1  0
 22 23  1  0
 23 24  1  0
 24 25  2  0
 25 26  1  0
 26 27  2  0
 27 28  1  0
 28 29  2  0
 26 30  1  0
 30 31  2  0
 30 32  1  0
  6 33  2  0
 33 34  1  0
 34 35  2  0
 34 36  1  0
 36 37  1  0
 36 38  1  0
 36 39  1  0
 29 24  1  0
 32 12  1  0
 35  4  1  0
M  END
$$$$
