
     RDKit          3D

 39 41  0  0  0  0  0  0  0  0999 V2000
  -25.0172  -43.4760   -8.2005 C   0  0  0  0  0  0  0  0  0  0  0  0
  -23.8297  -43.9429   -7.4258 C   0  0  0  0  0  0  0  0  0  0  0  0
  -22.6591  -43.2262   -7.6595 O   0  0  0  0  0  0  0  0  0  0  0  0
  -22.1821  -42.1740   -6.9060 C   0  0  0  0  0  0  0  0  0  0  0  0
  -21.8377  -40.9916   -7.5678 C   0  0  0  0  0  0  0  0  0  0  0  0
  -21.3571  -39.8996   -6.8952 C   0  0  0  0  0  0  0  0  0  0  0  0
  -21.0135  -38.6739   -7.6873 C   0  0  0  0  0  0  0  0  0  0  0  0
  -19.6505  -38.4005   -7.7457 N   0  0  0  0  0  0  0  0  0  0  0  0
  -18.6285  -39.2780   -7.4700 C   0  0  0  0  0  0  0  0  0  0  0  0
  -17.2078  -39.0303   -7.6806 C   0  0  1  0  0  0  0  0  0  0  0  0
  -16.6158  -38.2020   -6.7241 O   0  0  0  0  0  0  0  0  0  0  0  0
  -16.2925  -40.0284   -8.2958 C   0  0  2  0  0  0  0  0  0  0  0  0
  -14.8505  -39.5241   -8.2174 C   0  0  0  0  0  0  0  0  0  0  0  0
  -13.8919  -40.6391   -8.0368 C   0  0  2  0  0  0  0  0  0  0  0  0
  -12.9153  -40.4144   -6.8802 C   0  0  0  0  0  0  0  0  0  0  0  0
  -13.0440  -40.8859   -9.2781 C   0  0  0  0  0  0  0  0  0  0  0  0
  -11.8117  -40.0327   -9.3306 C   0  0  0  0  0  0  0  0  0  0  0  0
  -11.8987  -39.1893  -10.4268 O   0  0  0  0  0  0  0  0  0  0  0  0
  -10.7825  -39.1551  -11.2224 C   0  0  0  0  0  0  0  0  0  0  0  0
  -11.1219  -38.9347  -12.6874 C   0  0  0  0  0  0  0  0  0  0  0  0
  -11.1904  -37.4841  -13.0689 C   0  0  0  0  0  0  0  0  0  0  0  0
  -12.4461  -37.1132  -13.8183 C   0  0  0  0  0  0  0  0  0  0  0  0
  -13.3858  -36.4638  -12.9289 N   0  0  0  0  0  0  0  0  0  0  0  0
  -14.6171  -36.9153  -12.3679 C   0  0  0  0  0  0  0  0  0  0  0  0
  -14.9932  -38.1185  -11.8190 C   0  0  0  0  0  0  0  0  0  0  0  0
  -16.2787  -38.2593  -11.3406 C   0  0  0  0  0  0  0  0  0  0  0  0
  -17.1784  -37.1692  -11.4251 C   0  0  0  0  0  0  0  0  0  0  0  0
  -16.8452  -35.9531  -11.9634 C   0  0  0  0  0  0  0  0  0  0  0  0
  -15.5648  -35.8565  -12.4234 C   0  0  0  0  0  0  0  0  0  0  0  0
  -16.9615  -39.4074  -10.7183 C   0  0  0  0  0  0  0  0  0  0  0  0
  -18.1794  -39.6931  -11.1927 O   0  0  0  0  0  0  0  0  0  0  0  0
  -16.6065  -40.3042   -9.6980 N   0  0  0  0  0  0  0  0  0  0  0  0
  -21.2031  -39.9518   -5.5292 C   0  0  0  0  0  0  0  0  0  0  0  0
  -21.5422  -41.1154   -4.8787 C   0  0  0  0  0  0  0  0  0  0  0  0
  -22.0273  -42.2201   -5.5509 C   0  0  0  0  0  0  0  0  0  0  0  0
  -21.3979  -41.2393   -3.3979 C   0  0  0  0  0  0  0  0  0  0  0  0
  -22.5030  -41.7558   -2.7941 F   0  0  0  0  0  0  0  0  0  0  0  0
  -20.2874  -42.0351   -3.1804 F   0  0  0  0  0  0  0  0  0  0  0  0
  -21.0901  -39.9718   -2.9028 F   0  0  0  0  0  0  0  0  0  0  0  0
  1  2  1  0
  2  3  1  0
  3  4  1  0
  4  5  2  0
  5  6  1  0
  6  7  1  0
  7  8  1  0
  8  9  1  0
  9 10  1  0
 10 11  1  1
 10 12  1  0
 12 13  1  6
 13 14  1  0
 14 15  1  1
 14 16  1  0
 16 17  1  0
 17 18  1  0
 18 19  1  0
 19 20  1  0
 20 21  1  0
 21 22  1  0
 22 23  1  0
 23 24  1  0
 24 25  2  0
 25 26  1  0
 26 27  2  0
 27 28  1  0
 28 29  2  0
 26 30  1  0
 30 31  2  0
 30 32  1  0
  6 33  2  0
 33 34  1  0
 34 35  2  0
 34 36  1  0
 36 37  1  0
 36 38  1  0
 36 39  1  0
 29 24  1  0
 32 12  1  0
 35  4  1  0
M  END
$$$$
