
     RDKit          3D

 39 41  0  0  0  0  0  0  0  0999 V2000
  -25.0620  -41.4056  -10.1675 C   0  0  0  0  0  0  0  0  0  0  0  0
  -24.5111  -41.1209   -8.8096 C   0  0  0  0  0  0  0  0  0  0  0  0
  -23.3581  -40.3405   -8.7970 O   0  0  0  0  0  0  0  0  0  0  0  0
  -22.6297  -39.9787   -7.6832 C   0  0  0  0  0  0  0  0  0  0  0  0
  -21.4674  -39.2248   -7.8714 C   0  0  0  0  0  0  0  0  0  0  0  0
  -20.6868  -38.8238   -6.8198 C   0  0  0  0  0  0  0  0  0  0  0  0
  -19.4578  -38.0179   -7.1163 C   0  0  0  0  0  0  0  0  0  0  0  0
  -18.4546  -38.7318   -7.7644 N   0  0  0  0  0  0  0  0  0  0  0  0
  -17.3889  -39.3658   -7.1705 C   0  0  0  0  0  0  0  0  0  0  0  0
  -15.9895  -39.2283   -7.5538 C   0  0  1  0  0  0  0  0  0  0  0  0
  -15.5227  -37.9120   -7.5816 O   0  0  0  0  0  0  0  0  0  0  0  0
  -14.9571  -40.2511   -7.2370 C   0  0  2  0  0  0  0  0  0  0  0  0
  -14.0511  -40.4638   -8.4511 C   0  0  0  0  0  0  0  0  0  0  0  0
  -12.6596  -40.7711   -8.0460 C   0  0  2  0  0  0  0  0  0  0  0  0
  -11.6189  -39.8977   -8.7504 C   0  0  0  0  0  0  0  0  0  0  0  0
  -12.2754  -42.2175   -8.3302 C   0  0  0  0  0  0  0  0  0  0  0  0
  -11.7583  -42.4284   -9.7221 C   0  0  0  0  0  0  0  0  0  0  0  0
  -12.6257  -43.2718  -10.3979 O   0  0  0  0  0  0  0  0  0  0  0  0
  -12.0259  -44.3144  -11.0563 C   0  0  0  0  0  0  0  0  0  0  0  0
  -12.8948  -45.5611  -11.0800 C   0  0  0  0  0  0  0  0  0  0  0  0
  -13.8226  -45.6155  -12.2594 C   0  0  0  0  0  0  0  0  0  0  0  0
  -15.2550  -45.9122  -11.8905 C   0  0  0  0  0  0  0  0  0  0  0  0
  -16.0360  -44.6933  -11.8979 N   0  0  0  0  0  0  0  0  0  0  0  0
  -16.5900  -43.9237  -10.8323 C   0  0  0  0  0  0  0  0  0  0  0  0
  -16.0852  -43.5434   -9.6112 C   0  0  0  0  0  0  0  0  0  0  0  0
  -16.8694  -42.7757   -8.7764 C   0  0  0  0  0  0  0  0  0  0  0  0
  -18.1696  -42.3987   -9.1914 C   0  0  0  0  0  0  0  0  0  0  0  0
  -18.7113  -42.7549  -10.3995 C   0  0  0  0  0  0  0  0  0  0  0  0
  -17.9023  -43.5127  -11.1943 C   0  0  0  0  0  0  0  0  0  0  0  0
  -16.6110  -42.2332   -7.4309 C   0  0  0  0  0  0  0  0  0  0  0  0
  -17.5842  -42.4107   -6.5301 O   0  0  0  0  0  0  0  0  0  0  0  0
  -15.5295  -41.5437   -6.8597 N   0  0  0  0  0  0  0  0  0  0  0  0
  -21.0430  -39.1645   -5.5356 C   0  0  0  0  0  0  0  0  0  0  0  0
  -22.1867  -39.9062   -5.3511 C   0  0  0  0  0  0  0  0  0  0  0  0
  -22.9782  -40.3138   -6.4070 C   0  0  0  0  0  0  0  0  0  0  0  0
  -22.6291  -40.3109   -3.9838 C   0  0  0  0  0  0  0  0  0  0  0  0
  -23.9352  -40.0185   -3.7358 F   0  0  0  0  0  0  0  0  0  0  0  0
  -22.3900  -41.6698   -3.8838 F   0  0  0  0  0  0  0  0  0  0  0  0
  -21.7822  -39.6830   -3.0700 F   0  0  0  0  0  0  0  0  0  0  0  0
  1  2  1  0
  2  3  1  0
  3  4  1  0
  4  5  2  0
  5  6  1  0
  6  7  1  0
  7  8  1  0
  8  9  1  0
  9 10  1  0
 10 11  1  1
 10 12  1  0
 12 13  1  6
 13 14  1  0
 14 15  1  6
 14 16  1  0
 16 17  1  0
 17 18  1  0
 18 19  1  0
 19 20  1  0
 20 21  1  0
 21 22  1  0
 22 23  1  0
 23 24  1  0
 24 25  2  0
 25 26  1  0
 26 27  2  0
 27 28  1  0
 28 29  2  0
 26 30  1  0
 30 31  2  0
 30 32  1  0
  6 33  2  0
 33 34  1  0
 34 35  2  0
 34 36  1  0
 36 37  1  0
 36 38  1  0
 36 39  1  0
 29 24  1  0
 32 12  1  0
 35  4  1  0
M  END
$$$$
