
     RDKit          3D

 39 41  0  0  0  0  0  0  0  0999 V2000
  -17.3534  -31.9163  -10.4904 C   0  0  0  0  0  0  0  0  0  0  0  0
  -16.7316  -33.2532  -10.2569 C   0  0  0  0  0  0  0  0  0  0  0  0
  -16.4911  -33.9967  -11.4092 O   0  0  0  0  0  0  0  0  0  0  0  0
  -15.8765  -35.2299  -11.4714 C   0  0  0  0  0  0  0  0  0  0  0  0
  -15.5251  -35.8530  -10.2703 C   0  0  0  0  0  0  0  0  0  0  0  0
  -14.9123  -37.0776  -10.2427 C   0  0  0  0  0  0  0  0  0  0  0  0
  -14.5720  -37.6700   -8.9081 C   0  0  0  0  0  0  0  0  0  0  0  0
  -14.3776  -39.0476   -8.9325 N   0  0  0  0  0  0  0  0  0  0  0  0
  -14.7456  -39.9421   -7.9553 C   0  0  0  0  0  0  0  0  0  0  0  0
  -15.9756  -39.8987   -7.1749 C   0  0  1  0  0  0  0  0  0  0  0  0
  -15.7982  -39.5594   -5.8314 O   0  0  0  0  0  0  0  0  0  0  0  0
  -17.2888  -39.5038   -7.7512 C   0  0  2  0  0  0  0  0  0  0  0  0
  -18.3803  -39.6355   -6.6875 C   0  0  0  0  0  0  0  0  0  0  0  0
  -19.4286  -38.6016   -6.8511 C   0  0  2  0  0  0  0  0  0  0  0  0
  -19.7366  -37.8442   -5.5574 C   0  0  0  0  0  0  0  0  0  0  0  0
  -20.7499  -39.1828   -7.3380 C   0  0  0  0  0  0  0  0  0  0  0  0
  -21.6230  -39.6787   -6.2239 C   0  0  0  0  0  0  0  0  0  0  0  0
  -21.7868  -41.0480   -6.3605 O   0  0  0  0  0  0  0  0  0  0  0  0
  -23.0823  -41.4888   -6.2736 C   0  0  0  0  0  0  0  0  0  0  0  0
  -23.3423  -42.7000   -7.1542 C   0  0  0  0  0  0  0  0  0  0  0  0
  -23.0657  -44.0051   -6.4651 C   0  0  0  0  0  0  0  0  0  0  0  0
  -22.1898  -44.9383   -7.2637 C   0  0  0  0  0  0  0  0  0  0  0  0
  -20.8312  -44.8982   -6.7651 N   0  0  0  0  0  0  0  0  0  0  0  0
  -19.6420  -44.3364   -7.3173 C   0  0  0  0  0  0  0  0  0  0  0  0
  -19.3975  -43.1450   -7.9587 C   0  0  0  0  0  0  0  0  0  0  0  0
  -18.1150  -42.8682   -8.3827 C   0  0  0  0  0  0  0  0  0  0  0  0
  -17.0842  -43.8108   -8.1508 C   0  0  0  0  0  0  0  0  0  0  0  0
  -17.2837  -45.0091   -7.5152 C   0  0  0  0  0  0  0  0  0  0  0  0
  -18.5655  -45.2425   -7.1117 C   0  0  0  0  0  0  0  0  0  0  0  0
  -17.5584  -41.7021   -9.0914 C   0  0  0  0  0  0  0  0  0  0  0  0
  -16.7709  -41.9732  -10.1384 O   0  0  0  0  0  0  0  0  0  0  0  0
  -17.6735  -40.3151   -8.9063 N   0  0  0  0  0  0  0  0  0  0  0  0
  -14.6278  -37.7260  -11.4221 C   0  0  0  0  0  0  0  0  0  0  0  0
  -14.9738  -37.1123  -12.6035 C   0  0  0  0  0  0  0  0  0  0  0  0
  -15.5918  -35.8776  -12.6384 C   0  0  0  0  0  0  0  0  0  0  0  0
  -14.6921  -37.7605  -13.9186 C   0  0  0  0  0  0  0  0  0  0  0  0
  -15.0006  -39.0860  -13.9386 F   0  0  0  0  0  0  0  0  0  0  0  0
  -15.4220  -37.0597  -14.8621 F   0  0  0  0  0  0  0  0  0  0  0  0
  -13.3445  -37.5447  -14.2082 F   0  0  0  0  0  0  0  0  0  0  0  0
  1  2  1  0
  2  3  1  0
  3  4  1  0
  4  5  2  0
  5  6  1  0
  6  7  1  0
  7  8  1  0
  8  9  1  0
  9 10  1  0
 10 11  1  1
 10 12  1  0
 12 13  1  1
 13 14  1  0
 14 15  1  1
 14 16  1  0
 16 17  1  0
 17 18  1  0
 18 19  1  0
 19 20  1  0
 20 21  1  0
 21 22  1  0
 22 23  1  0
 23 24  1  0
 24 25  2  0
 25 26  1  0
 26 27  2  0
 27 28  1  0
 28 29  2  0
 26 30  1  0
 30 31  2  0
 30 32  1  0
  6 33  2  0
 33 34  1  0
 34 35  2  0
 34 36  1  0
 36 37  1  0
 36 38  1  0
 36 39  1  0
 29 24  1  0
 32 12  1  0
 35  4  1  0
M  END
$$$$
