
     RDKit          3D

 39 41  0  0  0  0  0  0  0  0999 V2000
  -18.6903  -34.5806  -12.4181 C   0  0  0  0  0  0  0  0  0  0  0  0
  -18.7949  -35.2054  -11.0665 C   0  0  0  0  0  0  0  0  0  0  0  0
  -19.8910  -36.0465  -10.8931 O   0  0  0  0  0  0  0  0  0  0  0  0
  -20.2175  -36.7351   -9.7436 C   0  0  0  0  0  0  0  0  0  0  0  0
  -19.2608  -36.8130   -8.7271 C   0  0  0  0  0  0  0  0  0  0  0  0
  -19.5040  -37.4769   -7.5540 C   0  0  0  0  0  0  0  0  0  0  0  0
  -18.4191  -37.5086   -6.5196 C   0  0  0  0  0  0  0  0  0  0  0  0
  -18.1776  -38.7726   -5.9902 N   0  0  0  0  0  0  0  0  0  0  0  0
  -16.9472  -39.3264   -5.7262 C   0  0  0  0  0  0  0  0  0  0  0  0
  -15.9030  -39.5978   -6.7059 C   0  0  1  0  0  0  0  0  0  0  0  0
  -15.0479  -38.5217   -6.9550 O   0  0  0  0  0  0  0  0  0  0  0  0
  -15.2873  -40.9400   -6.8849 C   0  0  2  0  0  0  0  0  0  0  0  0
  -14.2695  -40.8933   -8.0260 C   0  0  0  0  0  0  0  0  0  0  0  0
  -13.1273  -41.8029   -7.7755 C   0  0  2  0  0  0  0  0  0  0  0  0
  -11.7663  -41.1244   -7.9469 C   0  0  0  0  0  0  0  0  0  0  0  0
  -13.1292  -43.0108   -8.7037 C   0  0  0  0  0  0  0  0  0  0  0  0
  -12.4428  -42.7514  -10.0117 C   0  0  0  0  0  0  0  0  0  0  0  0
  -13.3731  -42.8579  -11.0333 O   0  0  0  0  0  0  0  0  0  0  0  0
  -12.9861  -43.6398  -12.0911 C   0  0  0  0  0  0  0  0  0  0  0  0
  -14.1563  -44.3673  -12.7324 C   0  0  0  0  0  0  0  0  0  0  0  0
  -14.8216  -43.5766  -13.8218 C   0  0  0  0  0  0  0  0  0  0  0  0
  -16.3215  -43.4947  -13.6816 C   0  0  0  0  0  0  0  0  0  0  0  0
  -16.7028  -42.2117  -13.1299 N   0  0  0  0  0  0  0  0  0  0  0  0
  -17.2019  -41.8511  -11.8432 C   0  0  0  0  0  0  0  0  0  0  0  0
  -16.8479  -42.2447  -10.5742 C   0  0  0  0  0  0  0  0  0  0  0  0
  -17.5203  -41.7054   -9.4980 C   0  0  0  0  0  0  0  0  0  0  0  0
  -18.5548  -40.7648   -9.7212 C   0  0  0  0  0  0  0  0  0  0  0  0
  -18.9391  -40.3443  -10.9683 C   0  0  0  0  0  0  0  0  0  0  0  0
  -18.2480  -40.9014  -12.0040 C   0  0  0  0  0  0  0  0  0  0  0  0
  -17.3743  -41.9346   -8.0496 C   0  0  0  0  0  0  0  0  0  0  0  0
  -18.5086  -42.1446   -7.3718 O   0  0  0  0  0  0  0  0  0  0  0  0
  -16.2676  -41.9832   -7.1870 N   0  0  0  0  0  0  0  0  0  0  0  0
  -20.7194  -38.0896   -7.3549 C   0  0  0  0  0  0  0  0  0  0  0  0
  -21.6602  -38.0126   -8.3555 C   0  0  0  0  0  0  0  0  0  0  0  0
  -21.4214  -37.3449   -9.5407 C   0  0  0  0  0  0  0  0  0  0  0  0
  -22.9985  -38.6567   -8.2045 C   0  0  0  0  0  0  0  0  0  0  0  0
  -23.3075  -38.9516   -6.9121 F   0  0  0  0  0  0  0  0  0  0  0  0
  -23.9166  -37.7797   -8.7538 F   0  0  0  0  0  0  0  0  0  0  0  0
  -23.0024  -39.7996   -9.0047 F   0  0  0  0  0  0  0  0  0  0  0  0
  1  2  1  0
  2  3  1  0
  3  4  1  0
  4  5  2  0
  5  6  1  0
  6  7  1  0
  7  8  1  0
  8  9  1  0
  9 10  1  0
 10 11  1  1
 10 12  1  0
 12 13  1  6
 13 14  1  0
 14 15  1  6
 14 16  1  0
 16 17  1  0
 17 18  1  0
 18 19  1  0
 19 20  1  0
 20 21  1  0
 21 22  1  0
 22 23  1  0
 23 24  1  0
 24 25  2  0
 25 26  1  0
 26 27  2  0
 27 28  1  0
 28 29  2  0
 26 30  1  0
 30 31  2  0
 30 32  1  0
  6 33  2  0
 33 34  1  0
 34 35  2  0
 34 36  1  0
 36 37  1  0
 36 38  1  0
 36 39  1  0
 29 24  1  0
 32 12  1  0
 35  4  1  0
M  END
$$$$
