
     RDKit          3D

 39 41  0  0  0  0  0  0  0  0999 V2000
  -14.2692  -37.2969  -14.6186 C   0  0  0  0  0  0  0  0  0  0  0  0
  -15.5701  -36.7433  -15.0975 C   0  0  0  0  0  0  0  0  0  0  0  0
  -16.6998  -37.3336  -14.5371 O   0  0  0  0  0  0  0  0  0  0  0  0
  -17.2295  -37.0635  -13.2926 C   0  0  0  0  0  0  0  0  0  0  0  0
  -16.3733  -37.1047  -12.1882 C   0  0  0  0  0  0  0  0  0  0  0  0
  -16.8178  -36.8489  -10.9182 C   0  0  0  0  0  0  0  0  0  0  0  0
  -15.8281  -36.9158   -9.7940 C   0  0  0  0  0  0  0  0  0  0  0  0
  -15.9452  -38.0544   -9.0028 N   0  0  0  0  0  0  0  0  0  0  0  0
  -16.8988  -38.2856   -8.0397 C   0  0  0  0  0  0  0  0  0  0  0  0
  -17.1145  -39.5420   -7.3333 C   0  0  1  0  0  0  0  0  0  0  0  0
  -16.3225  -39.7105   -6.1950 O   0  0  0  0  0  0  0  0  0  0  0  0
  -18.4323  -40.2301   -7.2853 C   0  0  2  0  0  0  0  0  0  0  0  0
  -18.3412  -41.4579   -6.3774 C   0  0  0  0  0  0  0  0  0  0  0  0
  -19.6141  -41.7010   -5.6596 C   0  0  2  0  0  0  0  0  0  0  0  0
  -19.4311  -41.8854   -4.1514 C   0  0  0  0  0  0  0  0  0  0  0  0
  -20.3397  -42.9423   -6.1630 C   0  0  0  0  0  0  0  0  0  0  0  0
  -19.8907  -44.2034   -5.4868 C   0  0  0  0  0  0  0  0  0  0  0  0
  -19.3050  -45.0321   -6.4306 O   0  0  0  0  0  0  0  0  0  0  0  0
  -19.7477  -46.3298   -6.4178 C   0  0  0  0  0  0  0  0  0  0  0  0
  -19.7538  -46.9534   -7.8038 C   0  0  0  0  0  0  0  0  0  0  0  0
  -18.4540  -47.6137   -8.1631 C   0  0  0  0  0  0  0  0  0  0  0  0
  -17.9160  -47.1996   -9.5104 C   0  0  0  0  0  0  0  0  0  0  0  0
  -16.8611  -46.2214   -9.3484 N   0  0  0  0  0  0  0  0  0  0  0  0
  -16.8270  -44.8207   -9.6156 C   0  0  0  0  0  0  0  0  0  0  0  0
  -17.7370  -43.8162   -9.3842 C   0  0  0  0  0  0  0  0  0  0  0  0
  -17.4139  -42.5273   -9.7523 C   0  0  0  0  0  0  0  0  0  0  0  0
  -16.1605  -42.2675  -10.3577 C   0  0  0  0  0  0  0  0  0  0  0  0
  -15.2244  -43.2381  -10.6058 C   0  0  0  0  0  0  0  0  0  0  0  0
  -15.5837  -44.4977  -10.2255 C   0  0  0  0  0  0  0  0  0  0  0  0
  -18.1720  -41.2684   -9.6424 C   0  0  0  0  0  0  0  0  0  0  0  0
  -18.2028  -40.5045  -10.7403 O   0  0  0  0  0  0  0  0  0  0  0  0
  -18.8977  -40.6667   -8.6019 N   0  0  0  0  0  0  0  0  0  0  0  0
  -18.1417  -36.5411  -10.7066 C   0  0  0  0  0  0  0  0  0  0  0  0
  -18.9836  -36.5008  -11.7937 C   0  0  0  0  0  0  0  0  0  0  0  0
  -18.5419  -36.7577  -13.0768 C   0  0  0  0  0  0  0  0  0  0  0  0
  -20.4317  -36.1749  -11.6338 C   0  0  0  0  0  0  0  0  0  0  0  0
  -21.1878  -36.5620  -12.6973 F   0  0  0  0  0  0  0  0  0  0  0  0
  -20.8445  -36.7980  -10.4696 F   0  0  0  0  0  0  0  0  0  0  0  0
  -20.5266  -34.8007  -11.4122 F   0  0  0  0  0  0  0  0  0  0  0  0
  1  2  1  0
  2  3  1  0
  3  4  1  0
  4  5  2  0
  5  6  1  0
  6  7  1  0
  7  8  1  0
  8  9  1  0
  9 10  1  0
 10 11  1  1
 10 12  1  0
 12 13  1  1
 13 14  1  0
 14 15  1  1
 14 16  1  0
 16 17  1  0
 17 18  1  0
 18 19  1  0
 19 20  1  0
 20 21  1  0
 21 22  1  0
 22 23  1  0
 23 24  1  0
 24 25  2  0
 25 26  1  0
 26 27  2  0
 27 28  1  0
 28 29  2  0
 26 30  1  0
 30 31  2  0
 30 32  1  0
  6 33  2  0
 33 34  1  0
 34 35  2  0
 34 36  1  0
 36 37  1  0
 36 38  1  0
 36 39  1  0
 29 24  1  0
 32 12  1  0
 35  4  1  0
M  END
$$$$
