
     RDKit          3D

 39 41  0  0  0  0  0  0  0  0999 V2000
  -13.1353  -36.6969  -16.0874 C   0  0  0  0  0  0  0  0  0  0  0  0
  -14.0880  -36.4528  -14.9644 C   0  0  0  0  0  0  0  0  0  0  0  0
  -13.7266  -37.0354  -13.7525 O   0  0  0  0  0  0  0  0  0  0  0  0
  -14.4312  -36.9614  -12.5692 C   0  0  0  0  0  0  0  0  0  0  0  0
  -13.8902  -37.5824  -11.4394 C   0  0  0  0  0  0  0  0  0  0  0  0
  -14.5246  -37.5563  -10.2258 C   0  0  0  0  0  0  0  0  0  0  0  0
  -13.8700  -38.2495   -9.0688 C   0  0  0  0  0  0  0  0  0  0  0  0
  -14.5661  -38.1314   -7.8698 N   0  0  0  0  0  0  0  0  0  0  0  0
  -15.1755  -39.1495   -7.1751 C   0  0  0  0  0  0  0  0  0  0  0  0
  -16.6108  -39.3874   -7.0894 C   0  0  1  0  0  0  0  0  0  0  0  0
  -17.2591  -38.6654   -6.0844 O   0  0  0  0  0  0  0  0  0  0  0  0
  -17.4530  -39.7045   -8.2737 C   0  0  2  0  0  0  0  0  0  0  0  0
  -18.9178  -39.3894   -7.9651 C   0  0  0  0  0  0  0  0  0  0  0  0
  -19.6377  -38.9106   -9.1681 C   0  0  2  0  0  0  0  0  0  0  0  0
  -20.4090  -37.6100   -8.9325 C   0  0  0  0  0  0  0  0  0  0  0  0
  -20.6484  -39.9261   -9.6856 C   0  0  0  0  0  0  0  0  0  0  0  0
  -21.9891  -39.8153   -9.0225 C   0  0  0  0  0  0  0  0  0  0  0  0
  -22.2394  -40.9850   -8.3227 O   0  0  0  0  0  0  0  0  0  0  0  0
  -23.4734  -41.5404   -8.5436 C   0  0  0  0  0  0  0  0  0  0  0  0
  -23.4474  -43.0581   -8.4686 C   0  0  0  0  0  0  0  0  0  0  0  0
  -23.6812  -43.5879   -7.0832 C   0  0  0  0  0  0  0  0  0  0  0  0
  -22.6590  -44.6067   -6.6435 C   0  0  0  0  0  0  0  0  0  0  0  0
  -21.6876  -43.9925   -5.7632 N   0  0  0  0  0  0  0  0  0  0  0  0
  -20.3186  -43.6474   -5.9666 C   0  0  0  0  0  0  0  0  0  0  0  0
  -19.6621  -43.0681   -7.0268 C   0  0  0  0  0  0  0  0  0  0  0  0
  -18.3050  -42.8453   -6.9282 C   0  0  0  0  0  0  0  0  0  0  0  0
  -17.6207  -43.2162   -5.7454 C   0  0  0  0  0  0  0  0  0  0  0  0
  -18.2357  -43.7950   -4.6654 C   0  0  0  0  0  0  0  0  0  0  0  0
  -19.5775  -43.9966   -4.8043 C   0  0  0  0  0  0  0  0  0  0  0  0
  -17.3463  -42.2614   -7.8830 C   0  0  0  0  0  0  0  0  0  0  0  0
  -16.2062  -42.9393   -8.0581 O   0  0  0  0  0  0  0  0  0  0  0  0
  -17.3615  -41.1066   -8.6815 N   0  0  0  0  0  0  0  0  0  0  0  0
  -15.7293  -36.9045  -10.0985 C   0  0  0  0  0  0  0  0  0  0  0  0
  -16.2610  -36.2937  -11.2104 C   0  0  0  0  0  0  0  0  0  0  0  0
  -15.6266  -36.3164  -12.4370 C   0  0  0  0  0  0  0  0  0  0  0  0
  -17.5655  -35.5708  -11.1414 C   0  0  0  0  0  0  0  0  0  0  0  0
  -18.3598  -35.7962  -12.2235 F   0  0  0  0  0  0  0  0  0  0  0  0
  -18.1784  -35.9848   -9.9723 F   0  0  0  0  0  0  0  0  0  0  0  0
  -17.2809  -34.2134  -10.9899 F   0  0  0  0  0  0  0  0  0  0  0  0
  1  2  1  0
  2  3  1  0
  3  4  1  0
  4  5  2  0
  5  6  1  0
  6  7  1  0
  7  8  1  0
  8  9  1  0
  9 10  1  0
 10 11  1  6
 10 12  1  0
 12 13  1  1
 13 14  1  0
 14 15  1  1
 14 16  1  0
 16 17  1  0
 17 18  1  0
 18 19  1  0
 19 20  1  0
 20 21  1  0
 21 22  1  0
 22 23  1  0
 23 24  1  0
 24 25  2  0
 25 26  1  0
 26 27  2  0
 27 28  1  0
 28 29  2  0
 26 30  1  0
 30 31  2  0
 30 32  1  0
  6 33  2  0
 33 34  1  0
 34 35  2  0
 34 36  1  0
 36 37  1  0
 36 38  1  0
 36 39  1  0
 29 24  1  0
 32 12  1  0
 35  4  1  0
M  END
$$$$
