
     RDKit          3D

 39 42  0  0  0  0  0  0  0  0999 V2000
  -13.6980  -41.2815  -16.2442 C   0  0  0  0  0  0  0  0  0  0  0  0
  -12.7193  -41.2885  -15.0633 C   0  0  0  0  0  0  0  0  0  0  0  0
  -11.3531  -40.9779  -15.5995 C   0  0  0  0  0  0  0  0  0  0  0  0
  -13.1458  -40.3028  -14.0310 C   0  0  0  0  0  0  0  0  0  0  0  0
  -13.8044  -39.1645  -14.4158 C   0  0  0  0  0  0  0  0  0  0  0  0
  -14.2084  -38.2398  -13.4822 C   0  0  0  0  0  0  0  0  0  0  0  0
  -13.9467  -38.4645  -12.1527 C   0  0  0  0  0  0  0  0  0  0  0  0
  -13.2855  -39.6005  -11.7302 C   0  0  0  0  0  0  0  0  0  0  0  0
  -12.8933  -40.5073  -12.6833 C   0  0  0  0  0  0  0  0  0  0  0  0
  -13.0159  -39.8098  -10.2487 C   0  0  0  0  0  0  0  0  0  0  0  0
  -12.1928  -38.6140   -9.8176 C   0  0  0  0  0  0  0  0  0  0  0  0
  -12.1200  -41.0018  -10.1645 C   0  0  0  0  0  0  0  0  0  0  0  0
  -14.2333  -39.8375   -9.6271 N   0  0  0  0  0  0  0  0  0  0  0  0
  -14.6272  -39.3771   -8.3949 C   0  0  0  0  0  0  0  0  0  0  0  0
  -16.0381  -39.4921   -7.9239 C   0  0  1  0  0  0  0  0  0  0  0  0
  -16.2916  -38.4362   -7.0853 O   0  0  0  0  0  0  0  0  0  0  0  0
  -17.0665  -39.4951   -9.0404 C   0  0  2  0  0  0  0  0  0  0  0  0
  -18.1928  -38.5565   -8.8922 C   0  0  0  0  0  0  0  0  0  0  0  0
  -19.3067  -38.7230   -7.9788 C   0  0  0  0  0  0  0  0  0  0  0  0
  -19.0711  -38.0727   -6.7487 C   0  0  0  0  0  0  0  0  0  0  0  0
  -19.9507  -38.0811   -5.6937 C   0  0  0  0  0  0  0  0  0  0  0  0
  -21.1202  -38.7557   -5.8409 C   0  0  0  0  0  0  0  0  0  0  0  0
  -21.4897  -39.4604   -7.0373 C   0  0  0  0  0  0  0  0  0  0  0  0
  -22.8199  -40.0772   -6.8103 C   0  0  0  0  0  0  0  0  0  0  0  0
  -23.8166  -40.3852   -7.8900 C   0  0  0  0  0  0  0  0  0  0  0  0
  -24.3222  -41.8187   -7.8165 C   0  0  0  0  0  0  0  0  0  0  0  0
  -23.8797  -42.7073   -8.9197 C   0  0  0  0  0  0  0  0  0  0  0  0
  -22.6901  -43.3224   -8.9166 O   0  0  0  0  0  0  0  0  0  0  0  0
  -21.3687  -43.2416   -8.4553 C   0  0  0  0  0  0  0  0  0  0  0  0
  -20.2787  -42.6490   -9.0871 C   0  0  0  0  0  0  0  0  0  0  0  0
  -19.0066  -42.6119   -8.5687 C   0  0  0  0  0  0  0  0  0  0  0  0
  -18.8544  -43.2234   -7.3262 C   0  0  0  0  0  0  0  0  0  0  0  0
  -19.9051  -43.8143   -6.6789 C   0  0  0  0  0  0  0  0  0  0  0  0
  -19.6884  -44.4709   -5.3202 C   0  0  0  0  0  0  0  0  0  0  0  0
  -21.0757  -43.7897   -7.2680 N   0  0  0  0  0  0  0  0  0  0  0  0
  -17.7287  -42.0333   -9.1121 C   0  0  0  0  0  0  0  0  0  0  0  0
  -16.7913  -42.9686   -9.0627 O   0  0  0  0  0  0  0  0  0  0  0  0
  -17.3365  -40.7877   -9.6307 N   0  0  0  0  0  0  0  0  0  0  0  0
  -20.5565  -39.4021   -8.0403 C   0  0  0  0  0  0  0  0  0  0  0  0
  1  2  1  0
  2  3  1  0
  2  4  1  0
  4  5  2  0
  5  6  1  0
  6  7  2  0
  7  8  1  0
  8  9  2  0
  8 10  1  0
 10 11  1  0
 10 12  1  0
 10 13  1  0
 13 14  1  0
 14 15  1  0
 15 16  1  1
 15 17  1  0
 17 18  1  1
 18 19  1  0
 19 20  1  0
 20 21  2  0
 21 22  1  0
 22 23  2  0
 23 24  1  0
 24 25  1  0
 25 26  1  0
 26 27  1  0
 27 28  1  0
 28 29  1  0
 29 30  1  0
 30 31  2  0
 31 32  1  0
 32 33  2  0
 33 34  1  0
 33 35  1  0
 31 36  1  0
 36 37  2  0
 36 38  1  0
 23 39  1  0
  9  4  1  0
 35 29  2  0
 38 17  1  0
 39 19  2  0
M  END
$$$$
