
     RDKit          3D

 39 42  0  0  0  0  0  0  0  0999 V2000
  -12.0215  -35.4927  -13.2652 C   0  0  0  0  0  0  0  0  0  0  0  0
  -13.0734  -35.6835  -12.1655 C   0  0  0  0  0  0  0  0  0  0  0  0
  -14.1866  -34.7114  -12.4235 C   0  0  0  0  0  0  0  0  0  0  0  0
  -13.5602  -37.0914  -12.1528 C   0  0  0  0  0  0  0  0  0  0  0  0
  -14.2418  -37.5800  -13.2365 C   0  0  0  0  0  0  0  0  0  0  0  0
  -14.7008  -38.8756  -13.2489 C   0  0  0  0  0  0  0  0  0  0  0  0
  -14.4713  -39.6834  -12.1621 C   0  0  0  0  0  0  0  0  0  0  0  0
  -13.7882  -39.2237  -11.0538 C   0  0  0  0  0  0  0  0  0  0  0  0
  -13.3408  -37.9259  -11.0677 C   0  0  0  0  0  0  0  0  0  0  0  0
  -13.5561  -40.1513   -9.8719 C   0  0  0  0  0  0  0  0  0  0  0  0
  -12.4423  -39.5102   -9.0708 C   0  0  0  0  0  0  0  0  0  0  0  0
  -13.0005  -41.4117  -10.4492 C   0  0  0  0  0  0  0  0  0  0  0  0
  -14.7275  -40.1925   -9.1679 N   0  0  0  0  0  0  0  0  0  0  0  0
  -15.0655  -39.6606   -7.9479 C   0  0  0  0  0  0  0  0  0  0  0  0
  -16.4810  -39.5928   -7.4819 C   0  0  1  0  0  0  0  0  0  0  0  0
  -16.7213  -38.3150   -7.0435 O   0  0  0  0  0  0  0  0  0  0  0  0
  -17.5023  -39.9510   -8.5461 C   0  0  2  0  0  0  0  0  0  0  0  0
  -18.6595  -39.0470   -8.6701 C   0  0  0  0  0  0  0  0  0  0  0  0
  -19.7726  -38.9798   -7.7432 C   0  0  0  0  0  0  0  0  0  0  0  0
  -19.5653  -37.9954   -6.7535 C   0  0  0  0  0  0  0  0  0  0  0  0
  -20.4502  -37.7285   -5.7373 C   0  0  0  0  0  0  0  0  0  0  0  0
  -21.5962  -38.4548   -5.6795 C   0  0  0  0  0  0  0  0  0  0  0  0
  -21.9357  -39.4860   -6.6207 C   0  0  0  0  0  0  0  0  0  0  0  0
  -23.2465  -40.0546   -6.2204 C   0  0  0  0  0  0  0  0  0  0  0  0
  -24.2264  -40.6931   -7.1617 C   0  0  0  0  0  0  0  0  0  0  0  0
  -24.6855  -42.0605   -6.6764 C   0  0  0  0  0  0  0  0  0  0  0  0
  -24.2079  -43.2142   -7.4787 C   0  0  0  0  0  0  0  0  0  0  0  0
  -22.9990  -43.7629   -7.3032 O   0  0  0  0  0  0  0  0  0  0  0  0
  -21.6835  -43.5093   -6.8899 C   0  0  0  0  0  0  0  0  0  0  0  0
  -20.6098  -43.0884   -7.6698 C   0  0  0  0  0  0  0  0  0  0  0  0
  -19.3426  -42.8617   -7.1890 C   0  0  0  0  0  0  0  0  0  0  0  0
  -19.1777  -43.0842   -5.8237 C   0  0  0  0  0  0  0  0  0  0  0  0
  -20.2122  -43.4977   -5.0295 C   0  0  0  0  0  0  0  0  0  0  0  0
  -19.9821  -43.7277   -3.5400 C   0  0  0  0  0  0  0  0  0  0  0  0
  -21.3797  -43.6823   -5.5961 N   0  0  0  0  0  0  0  0  0  0  0  0
  -18.0811  -42.4225   -7.8810 C   0  0  0  0  0  0  0  0  0  0  0  0
  -17.1141  -43.2727   -7.5680 O   0  0  0  0  0  0  0  0  0  0  0  0
  -17.7268  -41.3669   -8.7380 N   0  0  0  0  0  0  0  0  0  0  0  0
  -20.9993  -39.6885   -7.6015 C   0  0  0  0  0  0  0  0  0  0  0  0
  1  2  1  0
  2  3  1  0
  2  4  1  0
  4  5  2  0
  5  6  1  0
  6  7  2  0
  7  8  1  0
  8  9  2  0
  8 10  1  0
 10 11  1  0
 10 12  1  0
 10 13  1  0
 13 14  1  0
 14 15  1  0
 15 16  1  6
 15 17  1  0
 17 18  1  1
 18 19  1  0
 19 20  1  0
 20 21  2  0
 21 22  1  0
 22 23  2  0
 23 24  1  0
 24 25  1  0
 25 26  1  0
 26 27  1  0
 27 28  1  0
 28 29  1  0
 29 30  1  0
 30 31  2  0
 31 32  1  0
 32 33  2  0
 33 34  1  0
 33 35  1  0
 31 36  1  0
 36 37  2  0
 36 38  1  0
 23 39  1  0
  9  4  1  0
 35 29  2  0
 38 17  1  0
 39 19  2  0
M  END
$$$$
