
     RDKit          3D

 39 42  0  0  0  0  0  0  0  0999 V2000
  -20.2887  -39.6685   -9.0802 C   0  0  0  0  0  0  0  0  0  0  0  0
  -20.6296  -38.6092  -10.1356 C   0  0  0  0  0  0  0  0  0  0  0  0
  -21.2031  -37.4206   -9.4222 C   0  0  0  0  0  0  0  0  0  0  0  0
  -19.4155  -38.2505  -10.9207 C   0  0  0  0  0  0  0  0  0  0  0  0
  -19.5527  -37.7942  -12.2055 C   0  0  0  0  0  0  0  0  0  0  0  0
  -18.4477  -37.4566  -12.9503 C   0  0  0  0  0  0  0  0  0  0  0  0
  -17.1970  -37.5798  -12.3962 C   0  0  0  0  0  0  0  0  0  0  0  0
  -17.0225  -38.0362  -11.1049 C   0  0  0  0  0  0  0  0  0  0  0  0
  -18.1428  -38.3662  -10.3834 C   0  0  0  0  0  0  0  0  0  0  0  0
  -15.6202  -38.1578  -10.5305 C   0  0  0  0  0  0  0  0  0  0  0  0
  -14.8488  -36.9871  -11.1030 C   0  0  0  0  0  0  0  0  0  0  0  0
  -15.0399  -39.3932  -11.1367 C   0  0  0  0  0  0  0  0  0  0  0  0
  -15.7422  -38.0683   -9.1716 N   0  0  0  0  0  0  0  0  0  0  0  0
  -15.8301  -39.0427   -8.2081 C   0  0  0  0  0  0  0  0  0  0  0  0
  -17.0169  -39.1611   -7.3121 C   0  0  1  0  0  0  0  0  0  0  0  0
  -16.9961  -38.1019   -6.4402 O   0  0  0  0  0  0  0  0  0  0  0  0
  -18.3472  -39.1742   -8.0430 C   0  0  2  0  0  0  0  0  0  0  0  0
  -19.5301  -38.7930   -7.2512 C   0  0  0  0  0  0  0  0  0  0  0  0
  -20.1685  -39.6222   -6.2473 C   0  0  0  0  0  0  0  0  0  0  0  0
  -19.6643  -39.3555   -4.9565 C   0  0  0  0  0  0  0  0  0  0  0  0
  -20.0768  -40.0076   -3.8200 C   0  0  0  0  0  0  0  0  0  0  0  0
  -21.0288  -40.9682   -3.9433 C   0  0  0  0  0  0  0  0  0  0  0  0
  -21.6290  -41.3408   -5.1945 C   0  0  0  0  0  0  0  0  0  0  0  0
  -22.6049  -42.4259   -4.9263 C   0  0  0  0  0  0  0  0  0  0  0  0
  -23.8221  -42.7078   -5.7586 C   0  0  0  0  0  0  0  0  0  0  0  0
  -23.9179  -44.1718   -6.1631 C   0  0  0  0  0  0  0  0  0  0  0  0
  -23.7083  -44.4487   -7.6061 C   0  0  0  0  0  0  0  0  0  0  0  0
  -22.4892  -44.5707   -8.1468 O   0  0  0  0  0  0  0  0  0  0  0  0
  -21.1483  -44.1783   -8.0301 C   0  0  0  0  0  0  0  0  0  0  0  0
  -20.5296  -43.0715   -8.6050 C   0  0  0  0  0  0  0  0  0  0  0  0
  -19.2025  -42.7531   -8.4442 C   0  0  0  0  0  0  0  0  0  0  0  0
  -18.4749  -43.6306   -7.6434 C   0  0  0  0  0  0  0  0  0  0  0  0
  -19.0529  -44.7269   -7.0637 C   0  0  0  0  0  0  0  0  0  0  0  0
  -18.2146  -45.6581   -6.1951 C   0  0  0  0  0  0  0  0  0  0  0  0
  -20.3282  -44.9328   -7.2857 N   0  0  0  0  0  0  0  0  0  0  0  0
  -18.3790  -41.6201   -8.9930 C   0  0  0  0  0  0  0  0  0  0  0  0
  -17.2963  -42.1277   -9.5641 O   0  0  0  0  0  0  0  0  0  0  0  0
  -18.5022  -40.2208   -9.0291 N   0  0  0  0  0  0  0  0  0  0  0  0
  -21.1610  -40.6424   -6.2776 C   0  0  0  0  0  0  0  0  0  0  0  0
  1  2  1  0
  2  3  1  0
  2  4  1  0
  4  5  2  0
  5  6  1  0
  6  7  2  0
  7  8  1  0
  8  9  2  0
  8 10  1  0
 10 11  1  0
 10 12  1  0
 10 13  1  0
 13 14  1  0
 14 15  1  0
 15 16  1  1
 15 17  1  0
 17 18  1  1
 18 19  1  0
 19 20  1  0
 20 21  2  0
 21 22  1  0
 22 23  2  0
 23 24  1  0
 24 25  1  0
 25 26  1  0
 26 27  1  0
 27 28  1  0
 28 29  1  0
 29 30  1  0
 30 31  2  0
 31 32  1  0
 32 33  2  0
 33 34  1  0
 33 35  1  0
 31 36  1  0
 36 37  2  0
 36 38  1  0
 23 39  1  0
  9  4  1  0
 35 29  2  0
 38 17  1  0
 39 19  2  0
M  END
$$$$
