
     RDKit          3D

 39 42  0  0  0  0  0  0  0  0999 V2000
  -24.6790  -41.2382   -5.2780 C   0  0  0  0  0  0  0  0  0  0  0  0
  -24.6639  -40.0041   -6.1886 C   0  0  0  0  0  0  0  0  0  0  0  0
  -25.2045  -38.8475   -5.4007 C   0  0  0  0  0  0  0  0  0  0  0  0
  -23.2830  -39.7407   -6.6813 C   0  0  0  0  0  0  0  0  0  0  0  0
  -23.0371  -38.6240   -7.4364 C   0  0  0  0  0  0  0  0  0  0  0  0
  -21.7713  -38.3588   -7.9026 C   0  0  0  0  0  0  0  0  0  0  0  0
  -20.7475  -39.2248   -7.6054 C   0  0  0  0  0  0  0  0  0  0  0  0
  -20.9599  -40.3590   -6.8473 C   0  0  0  0  0  0  0  0  0  0  0  0
  -22.2333  -40.5997   -6.3946 C   0  0  0  0  0  0  0  0  0  0  0  0
  -19.7984  -41.2912   -6.5421 C   0  0  0  0  0  0  0  0  0  0  0  0
  -20.3599  -42.6908   -6.6796 C   0  0  0  0  0  0  0  0  0  0  0  0
  -19.4888  -41.0920   -5.0947 C   0  0  0  0  0  0  0  0  0  0  0  0
  -18.8341  -41.0379   -7.4777 N   0  0  0  0  0  0  0  0  0  0  0  0
  -18.6538  -41.5362   -8.7445 C   0  0  0  0  0  0  0  0  0  0  0  0
  -17.6357  -40.9710   -9.6769 C   0  0  1  0  0  0  0  0  0  0  0  0
  -18.1055  -41.1204  -10.9573 O   0  0  0  0  0  0  0  0  0  0  0  0
  -17.3174  -39.5068   -9.4343 C   0  0  2  0  0  0  0  0  0  0  0  0
  -17.3836  -38.6214  -10.6105 C   0  0  0  0  0  0  0  0  0  0  0  0
  -16.4027  -38.5717  -11.6774 C   0  0  0  0  0  0  0  0  0  0  0  0
  -16.7549  -39.4228  -12.7465 C   0  0  0  0  0  0  0  0  0  0  0  0
  -15.9975  -39.5862  -13.8808 C   0  0  0  0  0  0  0  0  0  0  0  0
  -14.8381  -38.8864  -13.9824 C   0  0  0  0  0  0  0  0  0  0  0  0
  -14.3591  -37.9848  -12.9713 C   0  0  0  0  0  0  0  0  0  0  0  0
  -13.0646  -37.4270  -13.4347 C   0  0  0  0  0  0  0  0  0  0  0  0
  -12.5150  -36.0894  -13.0313 C   0  0  0  0  0  0  0  0  0  0  0  0
  -11.0806  -36.1820  -12.5314 C   0  0  0  0  0  0  0  0  0  0  0  0
  -10.8946  -35.9305  -11.0806 C   0  0  0  0  0  0  0  0  0  0  0  0
  -11.0830  -36.8795  -10.1546 O   0  0  0  0  0  0  0  0  0  0  0  0
  -11.7854  -38.0560   -9.8579 C   0  0  0  0  0  0  0  0  0  0  0  0
  -13.0214  -38.1766   -9.2285 C   0  0  0  0  0  0  0  0  0  0  0  0
  -13.6477  -39.3721   -8.9698 C   0  0  0  0  0  0  0  0  0  0  0  0
  -12.9547  -40.5069   -9.3859 C   0  0  0  0  0  0  0  0  0  0  0  0
  -11.7387  -40.4227  -10.0073 C   0  0  0  0  0  0  0  0  0  0  0  0
  -11.0189  -41.6936  -10.4442 C   0  0  0  0  0  0  0  0  0  0  0  0
  -11.2354  -39.2283  -10.2030 N   0  0  0  0  0  0  0  0  0  0  0  0
  -14.9580  -39.6827   -8.2994 C   0  0  0  0  0  0  0  0  0  0  0  0
  -14.7400  -40.5814   -7.3502 O   0  0  0  0  0  0  0  0  0  0  0  0
  -16.2864  -39.2511   -8.4527 N   0  0  0  0  0  0  0  0  0  0  0  0
  -15.1737  -37.8804  -11.8733 C   0  0  0  0  0  0  0  0  0  0  0  0
  1  2  1  0
  2  3  1  0
  2  4  1  0
  4  5  2  0
  5  6  1  0
  6  7  2  0
  7  8  1  0
  8  9  2  0
  8 10  1  0
 10 11  1  0
 10 12  1  0
 10 13  1  0
 13 14  1  0
 14 15  1  0
 15 16  1  6
 15 17  1  0
 17 18  1  6
 18 19  1  0
 19 20  1  0
 20 21  2  0
 21 22  1  0
 22 23  2  0
 23 24  1  0
 24 25  1  0
 25 26  1  0
 26 27  1  0
 27 28  1  0
 28 29  1  0
 29 30  1  0
 30 31  2  0
 31 32  1  0
 32 33  2  0
 33 34  1  0
 33 35  1  0
 31 36  1  0
 36 37  2  0
 36 38  1  0
 23 39  1  0
  9  4  1  0
 35 29  2  0
 38 17  1  0
 39 19  2  0
M  END
$$$$
