
     RDKit          3D

 39 42  0  0  0  0  0  0  0  0999 V2000
  -14.7445  -35.4891  -12.9286 C   0  0  0  0  0  0  0  0  0  0  0  0
  -13.8575  -36.6755  -13.3265 C   0  0  0  0  0  0  0  0  0  0  0  0
  -12.4311  -36.2851  -13.0744 C   0  0  0  0  0  0  0  0  0  0  0  0
  -14.2427  -37.8914  -12.5568 C   0  0  0  0  0  0  0  0  0  0  0  0
  -15.2805  -38.6695  -12.9986 C   0  0  0  0  0  0  0  0  0  0  0  0
  -15.6549  -39.7964  -12.3061 C   0  0  0  0  0  0  0  0  0  0  0  0
  -14.9786  -40.1407  -11.1613 C   0  0  0  0  0  0  0  0  0  0  0  0
  -13.9285  -39.3796  -10.6879 C   0  0  0  0  0  0  0  0  0  0  0  0
  -13.5755  -38.2595  -11.3987 C   0  0  0  0  0  0  0  0  0  0  0  0
  -13.2073  -39.7966   -9.4162 C   0  0  0  0  0  0  0  0  0  0  0  0
  -12.4868  -38.5538   -8.9371 C   0  0  0  0  0  0  0  0  0  0  0  0
  -12.1550  -40.7651   -9.8464 C   0  0  0  0  0  0  0  0  0  0  0  0
  -14.1695  -40.1973   -8.5313 N   0  0  0  0  0  0  0  0  0  0  0  0
  -14.7842  -39.5265   -7.5028 C   0  0  0  0  0  0  0  0  0  0  0  0
  -16.2632  -39.5607   -7.3113 C   0  0  1  0  0  0  0  0  0  0  0  0
  -16.6079  -38.5164   -6.4909 O   0  0  0  0  0  0  0  0  0  0  0  0
  -17.0581  -39.4602   -8.6006 C   0  0  2  0  0  0  0  0  0  0  0  0
  -18.1988  -38.5272   -8.5925 C   0  0  0  0  0  0  0  0  0  0  0  0
  -19.4661  -38.7598   -7.9271 C   0  0  0  0  0  0  0  0  0  0  0  0
  -19.4756  -38.2176   -6.6243 C   0  0  0  0  0  0  0  0  0  0  0  0
  -20.5413  -38.3069   -5.7622 C   0  0  0  0  0  0  0  0  0  0  0  0
  -21.6558  -38.9559   -6.1875 C   0  0  0  0  0  0  0  0  0  0  0  0
  -21.7837  -39.5539   -7.4877 C   0  0  0  0  0  0  0  0  0  0  0  0
  -23.1283  -40.1754   -7.5729 C   0  0  0  0  0  0  0  0  0  0  0  0
  -23.8970  -40.3822   -8.8459 C   0  0  0  0  0  0  0  0  0  0  0  0
  -24.3969  -41.8122   -8.9920 C   0  0  0  0  0  0  0  0  0  0  0  0
  -23.7445  -42.6087  -10.0609 C   0  0  0  0  0  0  0  0  0  0  0  0
  -22.5732  -43.2328   -9.8816 O   0  0  0  0  0  0  0  0  0  0  0  0
  -21.3655  -43.2031   -9.1702 C   0  0  0  0  0  0  0  0  0  0  0  0
  -20.1788  -42.5695   -9.5288 C   0  0  0  0  0  0  0  0  0  0  0  0
  -19.0302  -42.5878   -8.7747 C   0  0  0  0  0  0  0  0  0  0  0  0
  -19.1149  -43.3032   -7.5823 C   0  0  0  0  0  0  0  0  0  0  0  0
  -20.2660  -43.9368   -7.2008 C   0  0  0  0  0  0  0  0  0  0  0  0
  -20.3094  -44.7076   -5.8861 C   0  0  0  0  0  0  0  0  0  0  0  0
  -21.3020  -43.8520   -7.9993 N   0  0  0  0  0  0  0  0  0  0  0  0
  -17.6760  -41.9771   -9.0120 C   0  0  0  0  0  0  0  0  0  0  0  0
  -16.7588  -42.9219   -8.8628 O   0  0  0  0  0  0  0  0  0  0  0  0
  -17.2005  -40.6959   -9.3387 N   0  0  0  0  0  0  0  0  0  0  0  0
  -20.6759  -39.4199   -8.2844 C   0  0  0  0  0  0  0  0  0  0  0  0
  1  2  1  0
  2  3  1  0
  2  4  1  0
  4  5  2  0
  5  6  1  0
  6  7  2  0
  7  8  1  0
  8  9  2  0
  8 10  1  0
 10 11  1  0
 10 12  1  0
 10 13  1  0
 13 14  1  0
 14 15  1  0
 15 16  1  1
 15 17  1  0
 17 18  1  1
 18 19  1  0
 19 20  1  0
 20 21  2  0
 21 22  1  0
 22 23  2  0
 23 24  1  0
 24 25  1  0
 25 26  1  0
 26 27  1  0
 27 28  1  0
 28 29  1  0
 29 30  1  0
 30 31  2  0
 31 32  1  0
 32 33  2  0
 33 34  1  0
 33 35  1  0
 31 36  1  0
 36 37  2  0
 36 38  1  0
 23 39  1  0
  9  4  1  0
 35 29  2  0
 38 17  1  0
 39 19  2  0
M  END
$$$$
