
     RDKit          3D

 39 42  0  0  0  0  0  0  0  0999 V2000
  -11.3406  -35.5937  -12.2478 C   0  0  0  0  0  0  0  0  0  0  0  0
  -12.8124  -35.9595  -12.0192 C   0  0  0  0  0  0  0  0  0  0  0  0
  -13.6314  -35.2162  -13.0327 C   0  0  0  0  0  0  0  0  0  0  0  0
  -13.0027  -37.4331  -12.1271 C   0  0  0  0  0  0  0  0  0  0  0  0
  -12.8437  -38.0472  -13.3416 C   0  0  0  0  0  0  0  0  0  0  0  0
  -13.0137  -39.4056  -13.4669 C   0  0  0  0  0  0  0  0  0  0  0  0
  -13.3460  -40.1490  -12.3609 C   0  0  0  0  0  0  0  0  0  0  0  0
  -13.5140  -39.5627  -11.1222 C   0  0  0  0  0  0  0  0  0  0  0  0
  -13.3383  -38.2047  -11.0253 C   0  0  0  0  0  0  0  0  0  0  0  0
  -13.8824  -40.4227   -9.9239 C   0  0  0  0  0  0  0  0  0  0  0  0
  -12.7540  -40.2335   -8.9318 C   0  0  0  0  0  0  0  0  0  0  0  0
  -13.8039  -41.8360  -10.4003 C   0  0  0  0  0  0  0  0  0  0  0  0
  -15.0672  -39.9397   -9.4420 N   0  0  0  0  0  0  0  0  0  0  0  0
  -15.3992  -39.4305   -8.2107 C   0  0  0  0  0  0  0  0  0  0  0  0
  -16.6956  -39.7537   -7.5470 C   0  0  1  0  0  0  0  0  0  0  0  0
  -16.8468  -38.9062   -6.4787 O   0  0  0  0  0  0  0  0  0  0  0  0
  -17.9057  -39.6267   -8.4545 C   0  0  2  0  0  0  0  0  0  0  0  0
  -19.0413  -38.8525   -7.9227 C   0  0  0  0  0  0  0  0  0  0  0  0
  -19.9610  -39.3105   -6.8994 C   0  0  0  0  0  0  0  0  0  0  0  0
  -19.5475  -38.9074   -5.6117 C   0  0  0  0  0  0  0  0  0  0  0  0
  -20.2212  -39.2180   -4.4556 C   0  0  0  0  0  0  0  0  0  0  0  0
  -21.3556  -39.9580   -4.5551 C   0  0  0  0  0  0  0  0  0  0  0  0
  -21.8911  -40.4340   -5.8005 C   0  0  0  0  0  0  0  0  0  0  0  0
  -23.1196  -41.2103   -5.5011 C   0  0  0  0  0  0  0  0  0  0  0  0
  -24.2738  -41.3848   -6.4452 C   0  0  0  0  0  0  0  0  0  0  0  0
  -24.6713  -42.8449   -6.6068 C   0  0  0  0  0  0  0  0  0  0  0  0
  -24.3818  -43.4404   -7.9351 C   0  0  0  0  0  0  0  0  0  0  0  0
  -23.1764  -43.9246   -8.2605 O   0  0  0  0  0  0  0  0  0  0  0  0
  -21.8008  -43.8126   -8.0139 C   0  0  0  0  0  0  0  0  0  0  0  0
  -20.8795  -42.9999   -8.6689 C   0  0  0  0  0  0  0  0  0  0  0  0
  -19.5395  -42.9471   -8.3690 C   0  0  0  0  0  0  0  0  0  0  0  0
  -19.1302  -43.7834   -7.3327 C   0  0  0  0  0  0  0  0  0  0  0  0
  -20.0103  -44.5938   -6.6687 C   0  0  0  0  0  0  0  0  0  0  0  0
  -19.5141  -45.4917   -5.5410 C   0  0  0  0  0  0  0  0  0  0  0  0
  -21.2670  -44.5623   -7.0397 N   0  0  0  0  0  0  0  0  0  0  0  0
  -18.4170  -42.1479   -8.9726 C   0  0  0  0  0  0  0  0  0  0  0  0
  -17.4317  -42.9780   -9.2828 O   0  0  0  0  0  0  0  0  0  0  0  0
  -18.1996  -40.7902   -9.2620 N   0  0  0  0  0  0  0  0  0  0  0  0
  -21.1586  -40.0804   -6.9043 C   0  0  0  0  0  0  0  0  0  0  0  0
  1  2  1  0
  2  3  1  0
  2  4  1  0
  4  5  2  0
  5  6  1  0
  6  7  2  0
  7  8  1  0
  8  9  2  0
  8 10  1  0
 10 11  1  0
 10 12  1  0
 10 13  1  0
 13 14  1  0
 14 15  1  0
 15 16  1  1
 15 17  1  0
 17 18  1  1
 18 19  1  0
 19 20  1  0
 20 21  2  0
 21 22  1  0
 22 23  2  0
 23 24  1  0
 24 25  1  0
 25 26  1  0
 26 27  1  0
 27 28  1  0
 28 29  1  0
 29 30  1  0
 30 31  2  0
 31 32  1  0
 32 33  2  0
 33 34  1  0
 33 35  1  0
 31 36  1  0
 36 37  2  0
 36 38  1  0
 23 39  1  0
  9  4  1  0
 35 29  2  0
 38 17  1  0
 39 19  2  0
M  END
$$$$
