
     RDKit          3D

 39 42  0  0  0  0  0  0  0  0999 V2000
  -10.8691  -36.6293  -13.9645 C   0  0  0  0  0  0  0  0  0  0  0  0
  -11.2378  -35.6365  -12.8551 C   0  0  0  0  0  0  0  0  0  0  0  0
  -11.0667  -34.2514  -13.4052 C   0  0  0  0  0  0  0  0  0  0  0  0
  -12.6312  -35.8774  -12.3864 C   0  0  0  0  0  0  0  0  0  0  0  0
  -13.5983  -34.9385  -12.6330 C   0  0  0  0  0  0  0  0  0  0  0  0
  -14.8913  -35.1377  -12.2109 C   0  0  0  0  0  0  0  0  0  0  0  0
  -15.2110  -36.2905  -11.5361 C   0  0  0  0  0  0  0  0  0  0  0  0
  -14.2615  -37.2572  -11.2708 C   0  0  0  0  0  0  0  0  0  0  0  0
  -12.9782  -37.0329  -11.7035 C   0  0  0  0  0  0  0  0  0  0  0  0
  -14.6581  -38.5185  -10.5204 C   0  0  0  0  0  0  0  0  0  0  0  0
  -13.3855  -39.0129   -9.8652 C   0  0  0  0  0  0  0  0  0  0  0  0
  -15.0179  -39.5180  -11.5702 C   0  0  0  0  0  0  0  0  0  0  0  0
  -15.5938  -38.1482   -9.5948 N   0  0  0  0  0  0  0  0  0  0  0  0
  -15.7264  -38.4728   -8.2671 C   0  0  0  0  0  0  0  0  0  0  0  0
  -16.8891  -39.2574   -7.7593 C   0  0  1  0  0  0  0  0  0  0  0  0
  -17.2543  -38.7344   -6.5446 O   0  0  0  0  0  0  0  0  0  0  0  0
  -18.0933  -39.2504   -8.6833 C   0  0  2  0  0  0  0  0  0  0  0  0
  -19.3227  -38.6392   -8.1478 C   0  0  0  0  0  0  0  0  0  0  0  0
  -20.1926  -39.2398   -7.1552 C   0  0  0  0  0  0  0  0  0  0  0  0
  -19.8494  -38.8313   -5.8487 C   0  0  0  0  0  0  0  0  0  0  0  0
  -20.4951  -39.2599   -4.7146 C   0  0  0  0  0  0  0  0  0  0  0  0
  -21.5282  -40.1299   -4.8565 C   0  0  0  0  0  0  0  0  0  0  0  0
  -21.9842  -40.6270   -6.1251 C   0  0  0  0  0  0  0  0  0  0  0  0
  -23.1116  -41.5577   -5.8711 C   0  0  0  0  0  0  0  0  0  0  0  0
  -24.2226  -41.8416   -6.8400 C   0  0  0  0  0  0  0  0  0  0  0  0
  -24.4349  -43.3334   -7.0533 C   0  0  0  0  0  0  0  0  0  0  0  0
  -24.0564  -43.8451   -8.3941 C   0  0  0  0  0  0  0  0  0  0  0  0
  -22.7962  -44.1668   -8.7133 O   0  0  0  0  0  0  0  0  0  0  0  0
  -21.4484  -43.8949   -8.4395 C   0  0  0  0  0  0  0  0  0  0  0  0
  -20.6255  -42.9543   -9.0531 C   0  0  0  0  0  0  0  0  0  0  0  0
  -19.3064  -42.7471   -8.7284 C   0  0  0  0  0  0  0  0  0  0  0  0
  -18.8112  -43.5603   -7.7114 C   0  0  0  0  0  0  0  0  0  0  0  0
  -19.5934  -44.4939   -7.0881 C   0  0  0  0  0  0  0  0  0  0  0  0
  -19.0056  -45.3605   -5.9800 C   0  0  0  0  0  0  0  0  0  0  0  0
  -20.8394  -44.6048   -7.4796 N   0  0  0  0  0  0  0  0  0  0  0  0
  -18.2829  -41.7969   -9.2875 C   0  0  0  0  0  0  0  0  0  0  0  0
  -17.1988  -42.4892   -9.6060 O   0  0  0  0  0  0  0  0  0  0  0  0
  -18.2307  -40.4141   -9.5312 N   0  0  0  0  0  0  0  0  0  0  0  0
  -21.2860  -40.1503   -7.2046 C   0  0  0  0  0  0  0  0  0  0  0  0
  1  2  1  0
  2  3  1  0
  2  4  1  0
  4  5  2  0
  5  6  1  0
  6  7  2  0
  7  8  1  0
  8  9  2  0
  8 10  1  0
 10 11  1  0
 10 12  1  0
 10 13  1  0
 13 14  1  0
 14 15  1  0
 15 16  1  1
 15 17  1  0
 17 18  1  1
 18 19  1  0
 19 20  1  0
 20 21  2  0
 21 22  1  0
 22 23  2  0
 23 24  1  0
 24 25  1  0
 25 26  1  0
 26 27  1  0
 27 28  1  0
 28 29  1  0
 29 30  1  0
 30 31  2  0
 31 32  1  0
 32 33  2  0
 33 34  1  0
 33 35  1  0
 31 36  1  0
 36 37  2  0
 36 38  1  0
 23 39  1  0
  9  4  1  0
 35 29  2  0
 38 17  1  0
 39 19  2  0
M  END
$$$$
