
     RDKit          3D

 39 42  0  0  0  0  0  0  0  0999 V2000
  -15.4926  -34.8843  -12.8347 C   0  0  0  0  0  0  0  0  0  0  0  0
  -14.1159  -35.2521  -12.2674 C   0  0  0  0  0  0  0  0  0  0  0  0
  -13.9723  -34.5717  -10.9380 C   0  0  0  0  0  0  0  0  0  0  0  0
  -13.9825  -36.7310  -12.1492 C   0  0  0  0  0  0  0  0  0  0  0  0
  -13.9800  -37.5014  -13.2825 C   0  0  0  0  0  0  0  0  0  0  0  0
  -13.8580  -38.8681  -13.1997 C   0  0  0  0  0  0  0  0  0  0  0  0
  -13.7378  -39.4615  -11.9669 C   0  0  0  0  0  0  0  0  0  0  0  0
  -13.7366  -38.7157  -10.8050 C   0  0  0  0  0  0  0  0  0  0  0  0
  -13.8598  -37.3530  -10.9164 C   0  0  0  0  0  0  0  0  0  0  0  0
  -13.6016  -39.4130   -9.4608 C   0  0  0  0  0  0  0  0  0  0  0  0
  -12.2077  -39.0781   -8.9729 C   0  0  0  0  0  0  0  0  0  0  0  0
  -13.6127  -40.8760   -9.7605 C   0  0  0  0  0  0  0  0  0  0  0  0
  -14.5642  -38.8857   -8.6454 N   0  0  0  0  0  0  0  0  0  0  0  0
  -15.7499  -38.2584   -8.9389 C   0  0  0  0  0  0  0  0  0  0  0  0
  -17.0200  -38.6041   -8.2368 C   0  0  1  0  0  0  0  0  0  0  0  0
  -17.4453  -37.4898   -7.5586 O   0  0  0  0  0  0  0  0  0  0  0  0
  -18.1298  -39.0758   -9.1586 C   0  0  2  0  0  0  0  0  0  0  0  0
  -19.4587  -38.4781   -8.9384 C   0  0  0  0  0  0  0  0  0  0  0  0
  -20.3491  -38.7981   -7.8395 C   0  0  0  0  0  0  0  0  0  0  0  0
  -20.1694  -37.9167   -6.7521 C   0  0  0  0  0  0  0  0  0  0  0  0
  -20.8681  -37.9987   -5.5724 C   0  0  0  0  0  0  0  0  0  0  0  0
  -21.7897  -38.9876   -5.4419 C   0  0  0  0  0  0  0  0  0  0  0  0
  -22.0755  -39.9524   -6.4676 C   0  0  0  0  0  0  0  0  0  0  0  0
  -23.1203  -40.8706   -5.9509 C   0  0  0  0  0  0  0  0  0  0  0  0
  -24.1040  -41.6161   -6.8056 C   0  0  0  0  0  0  0  0  0  0  0  0
  -24.1424  -43.1019   -6.4786 C   0  0  0  0  0  0  0  0  0  0  0  0
  -23.5936  -43.9988   -7.5260 C   0  0  0  0  0  0  0  0  0  0  0  0
  -22.2833  -44.2482   -7.6471 O   0  0  0  0  0  0  0  0  0  0  0  0
  -21.0008  -43.7275   -7.4246 C   0  0  0  0  0  0  0  0  0  0  0  0
  -20.2261  -42.9651   -8.2947 C   0  0  0  0  0  0  0  0  0  0  0  0
  -18.9700  -42.4904   -8.0028 C   0  0  0  0  0  0  0  0  0  0  0  0
  -18.4886  -42.8244   -6.7389 C   0  0  0  0  0  0  0  0  0  0  0  0
  -19.2246  -43.5717   -5.8603 C   0  0  0  0  0  0  0  0  0  0  0  0
  -18.6543  -43.9115   -4.4879 C   0  0  0  0  0  0  0  0  0  0  0  0
  -20.4121  -43.9712   -6.2456 N   0  0  0  0  0  0  0  0  0  0  0  0
  -18.0025  -41.6743   -8.8159 C   0  0  0  0  0  0  0  0  0  0  0  0
  -16.8289  -42.2897   -8.8116 O   0  0  0  0  0  0  0  0  0  0  0  0
  -18.0700  -40.4705   -9.5373 N   0  0  0  0  0  0  0  0  0  0  0  0
  -21.3347  -39.7998   -7.6112 C   0  0  0  0  0  0  0  0  0  0  0  0
  1  2  1  0
  2  3  1  0
  2  4  1  0
  4  5  2  0
  5  6  1  0
  6  7  2  0
  7  8  1  0
  8  9  2  0
  8 10  1  0
 10 11  1  0
 10 12  1  0
 10 13  1  0
 13 14  1  0
 14 15  1  0
 15 16  1  6
 15 17  1  0
 17 18  1  1
 18 19  1  0
 19 20  1  0
 20 21  2  0
 21 22  1  0
 22 23  2  0
 23 24  1  0
 24 25  1  0
 25 26  1  0
 26 27  1  0
 27 28  1  0
 28 29  1  0
 29 30  1  0
 30 31  2  0
 31 32  1  0
 32 33  2  0
 33 34  1  0
 33 35  1  0
 31 36  1  0
 36 37  2  0
 36 38  1  0
 23 39  1  0
  9  4  1  0
 35 29  2  0
 38 17  1  0
 39 19  2  0
M  END
$$$$
