
     RDKit          3D

 39 42  0  0  0  0  0  0  0  0999 V2000
  -23.5170  -39.7287   -3.0675 C   0  0  0  0  0  0  0  0  0  0  0  0
  -22.6893  -40.8471   -3.7128 C   0  0  0  0  0  0  0  0  0  0  0  0
  -23.4204  -42.1394   -3.4985 C   0  0  0  0  0  0  0  0  0  0  0  0
  -22.4766  -40.5652   -5.1600 C   0  0  0  0  0  0  0  0  0  0  0  0
  -23.3237  -41.1144   -6.0865 C   0  0  0  0  0  0  0  0  0  0  0  0
  -23.1484  -40.8691   -7.4277 C   0  0  0  0  0  0  0  0  0  0  0  0
  -22.1128  -40.0651   -7.8370 C   0  0  0  0  0  0  0  0  0  0  0  0
  -21.2407  -39.4956   -6.9307 C   0  0  0  0  0  0  0  0  0  0  0  0
  -21.4386  -39.7570   -5.5977 C   0  0  0  0  0  0  0  0  0  0  0  0
  -20.1074  -38.6121   -7.4267 C   0  0  0  0  0  0  0  0  0  0  0  0
  -19.2308  -38.3662   -6.2167 C   0  0  0  0  0  0  0  0  0  0  0  0
  -20.7368  -37.3034   -7.7753 C   0  0  0  0  0  0  0  0  0  0  0  0
  -19.4496  -39.3212   -8.3932 N   0  0  0  0  0  0  0  0  0  0  0  0
  -19.7613  -40.5075   -9.0105 C   0  0  0  0  0  0  0  0  0  0  0  0
  -18.7124  -41.4972   -9.3926 C   0  0  1  0  0  0  0  0  0  0  0  0
  -17.8075  -40.8621  -10.2052 O   0  0  0  0  0  0  0  0  0  0  0  0
  -17.9759  -42.1069   -8.2136 C   0  0  2  0  0  0  0  0  0  0  0  0
  -16.6293  -42.6379   -8.4897 C   0  0  0  0  0  0  0  0  0  0  0  0
  -16.3444  -43.8707   -9.1982 C   0  0  0  0  0  0  0  0  0  0  0  0
  -16.1458  -43.6433  -10.5767 C   0  0  0  0  0  0  0  0  0  0  0  0
  -15.8779  -44.6348  -11.4888 C   0  0  0  0  0  0  0  0  0  0  0  0
  -15.7980  -45.9137  -11.0387 C   0  0  0  0  0  0  0  0  0  0  0  0
  -15.9775  -46.2882   -9.6632 C   0  0  0  0  0  0  0  0  0  0  0  0
  -15.8316  -47.7618   -9.5696 C   0  0  0  0  0  0  0  0  0  0  0  0
  -15.3721  -48.5008   -8.3462 C   0  0  0  0  0  0  0  0  0  0  0  0
  -16.3119  -49.6379   -7.9721 C   0  0  0  0  0  0  0  0  0  0  0  0
  -17.0878  -49.4378   -6.7229 C   0  0  0  0  0  0  0  0  0  0  0  0
  -18.2254  -48.7322   -6.6863 O   0  0  0  0  0  0  0  0  0  0  0  0
  -18.9348  -47.6852   -7.2914 C   0  0  0  0  0  0  0  0  0  0  0  0
  -18.9027  -46.3320   -6.9656 C   0  0  0  0  0  0  0  0  0  0  0  0
  -19.6326  -45.3611   -7.6082 C   0  0  0  0  0  0  0  0  0  0  0  0
  -20.4421  -45.8172   -8.6462 C   0  0  0  0  0  0  0  0  0  0  0  0
  -20.4962  -47.1400   -8.9915 C   0  0  0  0  0  0  0  0  0  0  0  0
  -21.3978  -47.5906  -10.1354 C   0  0  0  0  0  0  0  0  0  0  0  0
  -19.7558  -47.9791   -8.3091 N   0  0  0  0  0  0  0  0  0  0  0  0
  -19.7265  -43.8766   -7.3833 C   0  0  0  0  0  0  0  0  0  0  0  0
  -21.0063  -43.5494   -7.2767 O   0  0  0  0  0  0  0  0  0  0  0  0
  -18.8044  -42.8227   -7.2684 N   0  0  0  0  0  0  0  0  0  0  0  0
  -16.2414  -45.2395   -8.8203 C   0  0  0  0  0  0  0  0  0  0  0  0
  1  2  1  0
  2  3  1  0
  2  4  1  0
  4  5  2  0
  5  6  1  0
  6  7  2  0
  7  8  1  0
  8  9  2  0
  8 10  1  0
 10 11  1  0
 10 12  1  0
 10 13  1  0
 13 14  1  0
 14 15  1  0
 15 16  1  6
 15 17  1  0
 17 18  1  6
 18 19  1  0
 19 20  1  0
 20 21  2  0
 21 22  1  0
 22 23  2  0
 23 24  1  0
 24 25  1  0
 25 26  1  0
 26 27  1  0
 27 28  1  0
 28 29  1  0
 29 30  1  0
 30 31  2  0
 31 32  1  0
 32 33  2  0
 33 34  1  0
 33 35  1  0
 31 36  1  0
 36 37  2  0
 36 38  1  0
 23 39  1  0
  9  4  1  0
 35 29  2  0
 38 17  1  0
 39 19  2  0
M  END
$$$$
