
     RDKit          3D

 39 42  0  0  0  0  0  0  0  0999 V2000
  -14.4297  -35.6251  -12.1475 C   0  0  0  0  0  0  0  0  0  0  0  0
  -13.2534  -36.2415  -12.9148 C   0  0  0  0  0  0  0  0  0  0  0  0
  -11.9969  -35.5742  -12.4392 C   0  0  0  0  0  0  0  0  0  0  0  0
  -13.2116  -37.7154  -12.7022 C   0  0  0  0  0  0  0  0  0  0  0  0
  -13.1967  -38.5537  -13.7861 C   0  0  0  0  0  0  0  0  0  0  0  0
  -13.1580  -39.9172  -13.6161 C   0  0  0  0  0  0  0  0  0  0  0  0
  -13.1342  -40.4385  -12.3456 C   0  0  0  0  0  0  0  0  0  0  0  0
  -13.1483  -39.6231  -11.2315 C   0  0  0  0  0  0  0  0  0  0  0  0
  -13.1870  -38.2653  -11.4299 C   0  0  0  0  0  0  0  0  0  0  0  0
  -13.1213  -40.2418   -9.8431 C   0  0  0  0  0  0  0  0  0  0  0  0
  -12.1958  -39.3619   -9.0293 C   0  0  0  0  0  0  0  0  0  0  0  0
  -12.4352  -41.5590   -9.9999 C   0  0  0  0  0  0  0  0  0  0  0  0
  -14.4035  -40.2029   -9.3698 N   0  0  0  0  0  0  0  0  0  0  0  0
  -14.8962  -40.3012   -8.0918 C   0  0  0  0  0  0  0  0  0  0  0  0
  -16.2090  -39.7076   -7.7049 C   0  0  1  0  0  0  0  0  0  0  0  0
  -15.9659  -38.4985   -7.1038 O   0  0  0  0  0  0  0  0  0  0  0  0
  -17.1625  -39.4993   -8.8675 C   0  0  2  0  0  0  0  0  0  0  0  0
  -18.2590  -38.5397   -8.6479 C   0  0  0  0  0  0  0  0  0  0  0  0
  -19.4352  -38.7839   -7.8356 C   0  0  0  0  0  0  0  0  0  0  0  0
  -19.2547  -38.3313   -6.5112 C   0  0  0  0  0  0  0  0  0  0  0  0
  -20.2003  -38.4512   -5.5221 C   0  0  0  0  0  0  0  0  0  0  0  0
  -21.3829  -39.0406   -5.8355 C   0  0  0  0  0  0  0  0  0  0  0  0
  -21.7012  -39.5455   -7.1425 C   0  0  0  0  0  0  0  0  0  0  0  0
  -23.0662  -40.1247   -7.0871 C   0  0  0  0  0  0  0  0  0  0  0  0
  -24.0021  -40.2247   -8.2567 C   0  0  0  0  0  0  0  0  0  0  0  0
  -24.5663  -41.6279   -8.4258 C   0  0  0  0  0  0  0  0  0  0  0  0
  -24.0880  -42.3668   -9.6208 C   0  0  0  0  0  0  0  0  0  0  0  0
  -22.9257  -43.0318   -9.6395 O   0  0  0  0  0  0  0  0  0  0  0  0
  -21.6347  -43.0818   -9.0952 C   0  0  0  0  0  0  0  0  0  0  0  0
  -20.4841  -42.4563   -9.5676 C   0  0  0  0  0  0  0  0  0  0  0  0
  -19.2477  -42.5556   -8.9762 C   0  0  0  0  0  0  0  0  0  0  0  0
  -19.1998  -43.3478   -7.8312 C   0  0  0  0  0  0  0  0  0  0  0  0
  -20.3121  -43.9757   -7.3409 C   0  0  0  0  0  0  0  0  0  0  0  0
  -20.2092  -44.8325   -6.0840 C   0  0  0  0  0  0  0  0  0  0  0  0
  -21.4405  -43.8101   -7.9870 N   0  0  0  0  0  0  0  0  0  0  0  0
  -17.9160  -41.9656   -9.3526 C   0  0  0  0  0  0  0  0  0  0  0  0
  -17.0206  -42.9418   -9.3877 O   0  0  0  0  0  0  0  0  0  0  0  0
  -17.4434  -40.6780   -9.6574 N   0  0  0  0  0  0  0  0  0  0  0  0
  -20.7037  -39.3866   -8.0697 C   0  0  0  0  0  0  0  0  0  0  0  0
  1  2  1  0
  2  3  1  0
  2  4  1  0
  4  5  2  0
  5  6  1  0
  6  7  2  0
  7  8  1  0
  8  9  2  0
  8 10  1  0
 10 11  1  0
 10 12  1  0
 10 13  1  0
 13 14  1  0
 14 15  1  0
 15 16  1  6
 15 17  1  0
 17 18  1  1
 18 19  1  0
 19 20  1  0
 20 21  2  0
 21 22  1  0
 22 23  2  0
 23 24  1  0
 24 25  1  0
 25 26  1  0
 26 27  1  0
 27 28  1  0
 28 29  1  0
 29 30  1  0
 30 31  2  0
 31 32  1  0
 32 33  2  0
 33 34  1  0
 33 35  1  0
 31 36  1  0
 36 37  2  0
 36 38  1  0
 23 39  1  0
  9  4  1  0
 35 29  2  0
 38 17  1  0
 39 19  2  0
M  END
$$$$
