
     RDKit          3D

 39 42  0  0  0  0  0  0  0  0999 V2000
  -11.5183  -35.8671  -13.0280 C   0  0  0  0  0  0  0  0  0  0  0  0
  -12.9251  -36.2973  -13.4621 C   0  0  0  0  0  0  0  0  0  0  0  0
  -13.0291  -36.0922  -14.9445 C   0  0  0  0  0  0  0  0  0  0  0  0
  -13.1739  -37.7157  -13.0809 C   0  0  0  0  0  0  0  0  0  0  0  0
  -13.3315  -38.6604  -14.0608 C   0  0  0  0  0  0  0  0  0  0  0  0
  -13.5619  -39.9758  -13.7346 C   0  0  0  0  0  0  0  0  0  0  0  0
  -13.6336  -40.3406  -12.4124 C   0  0  0  0  0  0  0  0  0  0  0  0
  -13.4794  -39.4148  -11.3998 C   0  0  0  0  0  0  0  0  0  0  0  0
  -13.2504  -38.1083  -11.7535 C   0  0  0  0  0  0  0  0  0  0  0  0
  -13.5666  -39.8613   -9.9492 C   0  0  0  0  0  0  0  0  0  0  0  0
  -12.5644  -39.0046   -9.2044 C   0  0  0  0  0  0  0  0  0  0  0  0
  -13.0410  -41.2591   -9.9235 C   0  0  0  0  0  0  0  0  0  0  0  0
  -14.8473  -39.6162   -9.5381 N   0  0  0  0  0  0  0  0  0  0  0  0
  -15.3307  -39.0376   -8.3904 C   0  0  0  0  0  0  0  0  0  0  0  0
  -16.6795  -39.3706   -7.8470 C   0  0  1  0  0  0  0  0  0  0  0  0
  -17.1119  -38.3015   -7.1037 O   0  0  0  0  0  0  0  0  0  0  0  0
  -17.7162  -39.6855   -8.9102 C   0  0  2  0  0  0  0  0  0  0  0  0
  -18.9755  -38.9234   -8.8392 C   0  0  0  0  0  0  0  0  0  0  0  0
  -20.0298  -39.1371   -7.8666 C   0  0  0  0  0  0  0  0  0  0  0  0
  -19.8771  -38.2976   -6.7426 C   0  0  0  0  0  0  0  0  0  0  0  0
  -20.7226  -38.3008   -5.6601 C   0  0  0  0  0  0  0  0  0  0  0  0
  -21.7713  -39.1637   -5.6697 C   0  0  0  0  0  0  0  0  0  0  0  0
  -22.0466  -40.0728   -6.7478 C   0  0  0  0  0  0  0  0  0  0  0  0
  -23.2557  -40.8537   -6.3875 C   0  0  0  0  0  0  0  0  0  0  0  0
  -24.2113  -41.4571   -7.3758 C   0  0  0  0  0  0  0  0  0  0  0  0
  -24.4786  -42.9288   -7.0952 C   0  0  0  0  0  0  0  0  0  0  0  0
  -23.9212  -43.8782   -8.0906 C   0  0  0  0  0  0  0  0  0  0  0  0
  -22.6485  -44.2934   -8.0565 O   0  0  0  0  0  0  0  0  0  0  0  0
  -21.3482  -43.9451   -7.6646 C   0  0  0  0  0  0  0  0  0  0  0  0
  -20.3804  -43.2802   -8.4127 C   0  0  0  0  0  0  0  0  0  0  0  0
  -19.1207  -42.9747   -7.9565 C   0  0  0  0  0  0  0  0  0  0  0  0
  -18.8474  -43.3811   -6.6523 C   0  0  0  0  0  0  0  0  0  0  0  0
  -19.7764  -44.0360   -5.8907 C   0  0  0  0  0  0  0  0  0  0  0  0
  -19.4299  -44.4608   -4.4680 C   0  0  0  0  0  0  0  0  0  0  0  0
  -20.9473  -44.2750   -6.4291 N   0  0  0  0  0  0  0  0  0  0  0  0
  -17.9635  -42.2821   -8.6230 C   0  0  0  0  0  0  0  0  0  0  0  0
  -16.8872  -43.0438   -8.4909 O   0  0  0  0  0  0  0  0  0  0  0  0
  -17.7869  -41.0722   -9.3153 N   0  0  0  0  0  0  0  0  0  0  0  0
  -21.1552  -40.0054   -7.7874 C   0  0  0  0  0  0  0  0  0  0  0  0
  1  2  1  0
  2  3  1  0
  2  4  1  0
  4  5  2  0
  5  6  1  0
  6  7  2  0
  7  8  1  0
  8  9  2  0
  8 10  1  0
 10 11  1  0
 10 12  1  0
 10 13  1  0
 13 14  1  0
 14 15  1  0
 15 16  1  6
 15 17  1  0
 17 18  1  1
 18 19  1  0
 19 20  1  0
 20 21  2  0
 21 22  1  0
 22 23  2  0
 23 24  1  0
 24 25  1  0
 25 26  1  0
 26 27  1  0
 27 28  1  0
 28 29  1  0
 29 30  1  0
 30 31  2  0
 31 32  1  0
 32 33  2  0
 33 34  1  0
 33 35  1  0
 31 36  1  0
 36 37  2  0
 36 38  1  0
 23 39  1  0
  9  4  1  0
 35 29  2  0
 38 17  1  0
 39 19  2  0
M  END
$$$$
