
     RDKit          3D

 39 42  0  0  0  0  0  0  0  0999 V2000
  -11.5719  -34.7746  -12.5757 C   0  0  0  0  0  0  0  0  0  0  0  0
  -11.6328  -36.0928  -13.3574 C   0  0  0  0  0  0  0  0  0  0  0  0
  -10.2862  -36.7465  -13.2577 C   0  0  0  0  0  0  0  0  0  0  0  0
  -12.7128  -36.9656  -12.8179 C   0  0  0  0  0  0  0  0  0  0  0  0
  -13.7663  -37.3120  -13.6229 C   0  0  0  0  0  0  0  0  0  0  0  0
  -14.7750  -38.1163  -13.1485 C   0  0  0  0  0  0  0  0  0  0  0  0
  -14.7212  -38.5741  -11.8547 C   0  0  0  0  0  0  0  0  0  0  0  0
  -13.6747  -38.2447  -11.0165 C   0  0  0  0  0  0  0  0  0  0  0  0
  -12.6808  -37.4401  -11.5157 C   0  0  0  0  0  0  0  0  0  0  0  0
  -13.6545  -38.7728   -9.5910 C   0  0  0  0  0  0  0  0  0  0  0  0
  -12.5800  -37.9750   -8.8824 C   0  0  0  0  0  0  0  0  0  0  0  0
  -13.1553  -40.1771   -9.6864 C   0  0  0  0  0  0  0  0  0  0  0  0
  -14.8935  -38.5332   -9.0649 N   0  0  0  0  0  0  0  0  0  0  0  0
  -15.3649  -38.6469   -7.7801 C   0  0  0  0  0  0  0  0  0  0  0  0
  -16.6718  -39.2980   -7.4743 C   0  0  1  0  0  0  0  0  0  0  0  0
  -17.3318  -38.5140   -6.5620 O   0  0  0  0  0  0  0  0  0  0  0  0
  -17.5619  -39.5022   -8.6868 C   0  0  2  0  0  0  0  0  0  0  0  0
  -18.8333  -38.7570   -8.6955 C   0  0  0  0  0  0  0  0  0  0  0  0
  -19.9969  -39.0770   -7.8915 C   0  0  0  0  0  0  0  0  0  0  0  0
  -20.0004  -38.3612   -6.6753 C   0  0  0  0  0  0  0  0  0  0  0  0
  -20.9744  -38.4829   -5.7144 C   0  0  0  0  0  0  0  0  0  0  0  0
  -21.9985  -39.3440   -5.9467 C   0  0  0  0  0  0  0  0  0  0  0  0
  -22.1212  -40.1344   -7.1403 C   0  0  0  0  0  0  0  0  0  0  0  0
  -23.3522  -40.9540   -7.0194 C   0  0  0  0  0  0  0  0  0  0  0  0
  -24.1662  -41.4526   -8.1781 C   0  0  0  0  0  0  0  0  0  0  0  0
  -24.4409  -42.9469   -8.0895 C   0  0  0  0  0  0  0  0  0  0  0  0
  -23.7472  -43.7828   -9.1008 C   0  0  0  0  0  0  0  0  0  0  0  0
  -22.4817  -44.1943   -8.9503 O   0  0  0  0  0  0  0  0  0  0  0  0
  -21.2468  -43.8844   -8.3633 C   0  0  0  0  0  0  0  0  0  0  0  0
  -20.2048  -43.1399   -8.9094 C   0  0  0  0  0  0  0  0  0  0  0  0
  -19.0174  -42.8797   -8.2685 C   0  0  0  0  0  0  0  0  0  0  0  0
  -18.9022  -43.4214   -6.9902 C   0  0  0  0  0  0  0  0  0  0  0  0
  -19.9076  -44.1573   -6.4247 C   0  0  0  0  0  0  0  0  0  0  0  0
  -19.7343  -44.7296   -5.0223 C   0  0  0  0  0  0  0  0  0  0  0  0
  -20.9978  -44.3422   -7.1286 N   0  0  0  0  0  0  0  0  0  0  0  0
  -17.7982  -42.1155   -8.7073 C   0  0  0  0  0  0  0  0  0  0  0  0
  -16.7338  -42.8828   -8.5213 O   0  0  0  0  0  0  0  0  0  0  0  0
  -17.5574  -40.8382   -9.2409 N   0  0  0  0  0  0  0  0  0  0  0  0
  -21.1082  -39.9533   -8.0464 C   0  0  0  0  0  0  0  0  0  0  0  0
  1  2  1  0
  2  3  1  0
  2  4  1  0
  4  5  2  0
  5  6  1  0
  6  7  2  0
  7  8  1  0
  8  9  2  0
  8 10  1  0
 10 11  1  0
 10 12  1  0
 10 13  1  0
 13 14  1  0
 14 15  1  0
 15 16  1  1
 15 17  1  0
 17 18  1  1
 18 19  1  0
 19 20  1  0
 20 21  2  0
 21 22  1  0
 22 23  2  0
 23 24  1  0
 24 25  1  0
 25 26  1  0
 26 27  1  0
 27 28  1  0
 28 29  1  0
 29 30  1  0
 30 31  2  0
 31 32  1  0
 32 33  2  0
 33 34  1  0
 33 35  1  0
 31 36  1  0
 36 37  2  0
 36 38  1  0
 23 39  1  0
  9  4  1  0
 35 29  2  0
 38 17  1  0
 39 19  2  0
M  END
$$$$
