
     RDKit          3D

 39 42  0  0  0  0  0  0  0  0999 V2000
  -12.9163  -34.7429  -12.9810 C   0  0  0  0  0  0  0  0  0  0  0  0
  -12.6090  -35.5143  -11.6914 C   0  0  0  0  0  0  0  0  0  0  0  0
  -13.2340  -34.7664  -10.5510 C   0  0  0  0  0  0  0  0  0  0  0  0
  -13.1239  -36.9089  -11.7867 C   0  0  0  0  0  0  0  0  0  0  0  0
  -13.6365  -37.3596  -12.9748 C   0  0  0  0  0  0  0  0  0  0  0  0
  -14.1175  -38.6424  -13.0881 C   0  0  0  0  0  0  0  0  0  0  0  0
  -14.0813  -39.4756  -11.9969 C   0  0  0  0  0  0  0  0  0  0  0  0
  -13.5717  -39.0542  -10.7848 C   0  0  0  0  0  0  0  0  0  0  0  0
  -13.0980  -37.7686  -10.6994 C   0  0  0  0  0  0  0  0  0  0  0  0
  -13.5508  -40.0089   -9.6019 C   0  0  0  0  0  0  0  0  0  0  0  0
  -12.1027  -40.4235   -9.4460 C   0  0  0  0  0  0  0  0  0  0  0  0
  -14.3001  -41.2218  -10.0471 C   0  0  0  0  0  0  0  0  0  0  0  0
  -13.9953  -39.3032   -8.5186 N   0  0  0  0  0  0  0  0  0  0  0  0
  -15.1499  -38.5865   -8.3212 C   0  0  0  0  0  0  0  0  0  0  0  0
  -16.4059  -39.2313   -7.8394 C   0  0  1  0  0  0  0  0  0  0  0  0
  -17.1959  -38.2565   -7.2843 O   0  0  0  0  0  0  0  0  0  0  0  0
  -17.1912  -39.9469   -8.9235 C   0  0  2  0  0  0  0  0  0  0  0  0
  -18.3607  -39.2303   -9.4624 C   0  0  0  0  0  0  0  0  0  0  0  0
  -19.6264  -39.0577   -8.7758 C   0  0  0  0  0  0  0  0  0  0  0  0
  -19.6654  -37.8443   -8.0563 C   0  0  0  0  0  0  0  0  0  0  0  0
  -20.7359  -37.4330   -7.3002 C   0  0  0  0  0  0  0  0  0  0  0  0
  -21.8253  -38.2416   -7.2401 C   0  0  0  0  0  0  0  0  0  0  0  0
  -21.9219  -39.5023   -7.9226 C   0  0  0  0  0  0  0  0  0  0  0  0
  -23.2454  -40.0926   -7.6039 C   0  0  0  0  0  0  0  0  0  0  0  0
  -23.9950  -41.0436   -8.4914 C   0  0  0  0  0  0  0  0  0  0  0  0
  -24.4482  -42.2914   -7.7474 C   0  0  0  0  0  0  0  0  0  0  0  0
  -23.7608  -43.5485   -8.1345 C   0  0  0  0  0  0  0  0  0  0  0  0
  -22.5722  -43.9046   -7.6307 O   0  0  0  0  0  0  0  0  0  0  0  0
  -21.3728  -43.4178   -7.0920 C   0  0  0  0  0  0  0  0  0  0  0  0
  -20.2034  -43.0883   -7.7718 C   0  0  0  0  0  0  0  0  0  0  0  0
  -19.0619  -42.6162   -7.1696 C   0  0  0  0  0  0  0  0  0  0  0  0
  -19.1354  -42.4782   -5.7852 C   0  0  0  0  0  0  0  0  0  0  0  0
  -20.2695  -42.7929   -5.0875 C   0  0  0  0  0  0  0  0  0  0  0  0
  -20.3011  -42.6247   -3.5726 C   0  0  0  0  0  0  0  0  0  0  0  0
  -21.3000  -43.2348   -5.7664 N   0  0  0  0  0  0  0  0  0  0  0  0
  -17.7255  -42.2274   -7.7402 C   0  0  0  0  0  0  0  0  0  0  0  0
  -16.7804  -42.8661   -7.0658 O   0  0  0  0  0  0  0  0  0  0  0  0
  -17.2876  -41.3823   -8.7739 N   0  0  0  0  0  0  0  0  0  0  0  0
  -20.8113  -39.8374   -8.6536 C   0  0  0  0  0  0  0  0  0  0  0  0
  1  2  1  0
  2  3  1  0
  2  4  1  0
  4  5  2  0
  5  6  1  0
  6  7  2  0
  7  8  1  0
  8  9  2  0
  8 10  1  0
 10 11  1  0
 10 12  1  0
 10 13  1  0
 13 14  1  0
 14 15  1  0
 15 16  1  6
 15 17  1  0
 17 18  1  1
 18 19  1  0
 19 20  1  0
 20 21  2  0
 21 22  1  0
 22 23  2  0
 23 24  1  0
 24 25  1  0
 25 26  1  0
 26 27  1  0
 27 28  1  0
 28 29  1  0
 29 30  1  0
 30 31  2  0
 31 32  1  0
 32 33  2  0
 33 34  1  0
 33 35  1  0
 31 36  1  0
 36 37  2  0
 36 38  1  0
 23 39  1  0
  9  4  1  0
 35 29  2  0
 38 17  1  0
 39 19  2  0
M  END
$$$$
