
     RDKit          3D

 39 42  0  0  0  0  0  0  0  0999 V2000
  -19.6724  -40.1017   -2.0922 C   0  0  0  0  0  0  0  0  0  0  0  0
  -19.6496  -41.1027   -3.2541 C   0  0  0  0  0  0  0  0  0  0  0  0
  -19.6424  -42.4837   -2.6681 C   0  0  0  0  0  0  0  0  0  0  0  0
  -20.8223  -40.8867   -4.1471 C   0  0  0  0  0  0  0  0  0  0  0  0
  -22.0401  -41.4108   -3.8009 C   0  0  0  0  0  0  0  0  0  0  0  0
  -23.1372  -41.2251   -4.6081 C   0  0  0  0  0  0  0  0  0  0  0  0
  -23.0055  -40.5066   -5.7712 C   0  0  0  0  0  0  0  0  0  0  0  0
  -21.7935  -39.9647   -6.1503 C   0  0  0  0  0  0  0  0  0  0  0  0
  -20.7143  -40.1652   -5.3259 C   0  0  0  0  0  0  0  0  0  0  0  0
  -21.6916  -39.1765   -7.4463 C   0  0  0  0  0  0  0  0  0  0  0  0
  -21.2282  -37.7933   -7.0397 C   0  0  0  0  0  0  0  0  0  0  0  0
  -23.0924  -39.0320   -7.9437 C   0  0  0  0  0  0  0  0  0  0  0  0
  -20.7641  -39.8138   -8.2228 N   0  0  0  0  0  0  0  0  0  0  0  0
  -19.7277  -39.3209   -8.9769 C   0  0  0  0  0  0  0  0  0  0  0  0
  -18.3653  -39.1139   -8.4055 C   0  0  1  0  0  0  0  0  0  0  0  0
  -18.4457  -38.1111   -7.4726 O   0  0  0  0  0  0  0  0  0  0  0  0
  -17.7716  -40.3495   -7.7537 C   0  0  2  0  0  0  0  0  0  0  0  0
  -16.4516  -40.1824   -7.1203 C   0  0  0  0  0  0  0  0  0  0  0  0
  -15.1931  -40.0539   -7.8292 C   0  0  0  0  0  0  0  0  0  0  0  0
  -14.8582  -38.7011   -8.0514 C   0  0  0  0  0  0  0  0  0  0  0  0
  -13.7290  -38.2876   -8.7153 C   0  0  0  0  0  0  0  0  0  0  0  0
  -12.8805  -39.2370   -9.1875 C   0  0  0  0  0  0  0  0  0  0  0  0
  -13.0967  -40.6490   -9.0317 C   0  0  0  0  0  0  0  0  0  0  0  0
  -11.9701  -41.3573   -9.6879 C   0  0  0  0  0  0  0  0  0  0  0  0
  -11.4734  -42.7201   -9.3004 C   0  0  0  0  0  0  0  0  0  0  0  0
  -11.3609  -43.6547  -10.4961 C   0  0  0  0  0  0  0  0  0  0  0  0
  -12.3385  -44.7709  -10.5260 C   0  0  0  0  0  0  0  0  0  0  0  0
  -13.5854  -44.6246  -10.9923 O   0  0  0  0  0  0  0  0  0  0  0  0
  -14.6299  -43.7083  -11.1794 C   0  0  0  0  0  0  0  0  0  0  0  0
  -15.6684  -43.4069  -10.3025 C   0  0  0  0  0  0  0  0  0  0  0  0
  -16.6615  -42.4926  -10.5600 C   0  0  0  0  0  0  0  0  0  0  0  0
  -16.5746  -41.8548  -11.7956 C   0  0  0  0  0  0  0  0  0  0  0  0
  -15.5667  -42.1280  -12.6796 C   0  0  0  0  0  0  0  0  0  0  0  0
  -15.5145  -41.4035  -14.0201 C   0  0  0  0  0  0  0  0  0  0  0  0
  -14.6723  -43.0194  -12.3282 N   0  0  0  0  0  0  0  0  0  0  0  0
  -17.8481  -42.0582   -9.7438 C   0  0  0  0  0  0  0  0  0  0  0  0
  -18.9333  -42.1550  -10.4982 O   0  0  0  0  0  0  0  0  0  0  0  0
  -18.0437  -41.5985   -8.4305 N   0  0  0  0  0  0  0  0  0  0  0  0
  -14.2457  -40.9754   -8.3586 C   0  0  0  0  0  0  0  0  0  0  0  0
  1  2  1  0
  2  3  1  0
  2  4  1  0
  4  5  2  0
  5  6  1  0
  6  7  2  0
  7  8  1  0
  8  9  2  0
  8 10  1  0
 10 11  1  0
 10 12  1  0
 10 13  1  0
 13 14  1  0
 14 15  1  0
 15 16  1  1
 15 17  1  0
 17 18  1  6
 18 19  1  0
 19 20  1  0
 20 21  2  0
 21 22  1  0
 22 23  2  0
 23 24  1  0
 24 25  1  0
 25 26  1  0
 26 27  1  0
 27 28  1  0
 28 29  1  0
 29 30  1  0
 30 31  2  0
 31 32  1  0
 32 33  2  0
 33 34  1  0
 33 35  1  0
 31 36  1  0
 36 37  2  0
 36 38  1  0
 23 39  1  0
  9  4  1  0
 35 29  2  0
 38 17  1  0
 39 19  2  0
M  END
$$$$
