
     RDKit          3D

 39 42  0  0  0  0  0  0  0  0999 V2000
  -19.2491  -38.6909  -12.8263 C   0  0  0  0  0  0  0  0  0  0  0  0
  -19.1456  -37.2799  -12.2341 C   0  0  0  0  0  0  0  0  0  0  0  0
  -20.1304  -37.1835  -11.1066 C   0  0  0  0  0  0  0  0  0  0  0  0
  -17.7535  -37.0106  -11.7773 C   0  0  0  0  0  0  0  0  0  0  0  0
  -17.2491  -35.7393  -11.8621 C   0  0  0  0  0  0  0  0  0  0  0  0
  -15.9676  -35.4654  -11.4469 C   0  0  0  0  0  0  0  0  0  0  0  0
  -15.1901  -36.4794  -10.9432 C   0  0  0  0  0  0  0  0  0  0  0  0
  -15.6665  -37.7715  -10.8436 C   0  0  0  0  0  0  0  0  0  0  0  0
  -16.9495  -38.0173  -11.2653 C   0  0  0  0  0  0  0  0  0  0  0  0
  -14.7721  -38.8643  -10.2803 C   0  0  0  0  0  0  0  0  0  0  0  0
  -13.3664  -38.3047  -10.3429 C   0  0  0  0  0  0  0  0  0  0  0  0
  -14.8333  -39.9854  -11.2651 C   0  0  0  0  0  0  0  0  0  0  0  0
  -15.1756  -39.0778   -8.9915 N   0  0  0  0  0  0  0  0  0  0  0  0
  -15.9669  -38.3261   -8.1582 C   0  0  0  0  0  0  0  0  0  0  0  0
  -17.1045  -38.9233   -7.4001 C   0  0  1  0  0  0  0  0  0  0  0  0
  -17.2184  -38.2515   -6.2092 O   0  0  0  0  0  0  0  0  0  0  0  0
  -18.4344  -38.8659   -8.1297 C   0  0  2  0  0  0  0  0  0  0  0  0
  -19.5948  -38.4234   -7.3365 C   0  0  0  0  0  0  0  0  0  0  0  0
  -20.2750  -39.2185   -6.3324 C   0  0  0  0  0  0  0  0  0  0  0  0
  -19.7562  -38.9794   -5.0420 C   0  0  0  0  0  0  0  0  0  0  0  0
  -20.2014  -39.6095   -3.9055 C   0  0  0  0  0  0  0  0  0  0  0  0
  -21.2027  -40.5186   -4.0284 C   0  0  0  0  0  0  0  0  0  0  0  0
  -21.8230  -40.8584   -5.2791 C   0  0  0  0  0  0  0  0  0  0  0  0
  -22.8544  -41.8907   -5.0105 C   0  0  0  0  0  0  0  0  0  0  0  0
  -24.0856  -42.1077   -5.8418 C   0  0  0  0  0  0  0  0  0  0  0  0
  -24.2587  -43.5644   -6.2470 C   0  0  0  0  0  0  0  0  0  0  0  0
  -24.0653  -43.8511   -7.6903 C   0  0  0  0  0  0  0  0  0  0  0  0
  -22.8549  -44.0368   -8.2323 O   0  0  0  0  0  0  0  0  0  0  0  0
  -21.4951  -43.7155   -8.1167 C   0  0  0  0  0  0  0  0  0  0  0  0
  -20.8195  -42.6426   -8.6916 C   0  0  0  0  0  0  0  0  0  0  0  0
  -19.4773  -42.3946   -8.5320 C   0  0  0  0  0  0  0  0  0  0  0  0
  -18.7961  -43.3097   -7.7323 C   0  0  0  0  0  0  0  0  0  0  0  0
  -19.4305  -44.3743   -7.1526 C   0  0  0  0  0  0  0  0  0  0  0  0
  -18.6416  -45.3489   -6.2854 C   0  0  0  0  0  0  0  0  0  0  0  0
  -20.7151  -44.5127   -7.3735 N   0  0  0  0  0  0  0  0  0  0  0  0
  -18.5958  -41.3062   -9.0810 C   0  0  0  0  0  0  0  0  0  0  0  0
  -17.5419  -41.8698   -9.6534 O   0  0  0  0  0  0  0  0  0  0  0  0
  -18.6452  -39.9024   -9.1163 N   0  0  0  0  0  0  0  0  0  0  0  0
  -21.3199  -40.1850   -6.3624 C   0  0  0  0  0  0  0  0  0  0  0  0
  1  2  1  0
  2  3  1  0
  2  4  1  0
  4  5  2  0
  5  6  1  0
  6  7  2  0
  7  8  1  0
  8  9  2  0
  8 10  1  0
 10 11  1  0
 10 12  1  0
 10 13  1  0
 13 14  1  0
 14 15  1  0
 15 16  1  1
 15 17  1  0
 17 18  1  1
 18 19  1  0
 19 20  1  0
 20 21  2  0
 21 22  1  0
 22 23  2  0
 23 24  1  0
 24 25  1  0
 25 26  1  0
 26 27  1  0
 27 28  1  0
 28 29  1  0
 29 30  1  0
 30 31  2  0
 31 32  1  0
 32 33  2  0
 33 34  1  0
 33 35  1  0
 31 36  1  0
 36 37  2  0
 36 38  1  0
 23 39  1  0
  9  4  1  0
 35 29  2  0
 38 17  1  0
 39 19  2  0
M  END
$$$$
