
     RDKit          3D

 39 42  0  0  0  0  0  0  0  0999 V2000
  -18.4071  -35.5047  -11.0906 C   0  0  0  0  0  0  0  0  0  0  0  0
  -18.9708  -36.7492  -11.7877 C   0  0  0  0  0  0  0  0  0  0  0  0
  -19.1536  -36.4173  -13.2392 C   0  0  0  0  0  0  0  0  0  0  0  0
  -18.0561  -37.9092  -11.5963 C   0  0  0  0  0  0  0  0  0  0  0  0
  -18.3769  -39.1207  -12.1505 C   0  0  0  0  0  0  0  0  0  0  0  0
  -17.5490  -40.2061  -11.9883 C   0  0  0  0  0  0  0  0  0  0  0  0
  -16.3908  -40.0690  -11.2629 C   0  0  0  0  0  0  0  0  0  0  0  0
  -16.0370  -38.8632  -10.6908 C   0  0  0  0  0  0  0  0  0  0  0  0
  -16.8816  -37.7957  -10.8684 C   0  0  0  0  0  0  0  0  0  0  0  0
  -14.7460  -38.7553   -9.8953 C   0  0  0  0  0  0  0  0  0  0  0  0
  -13.9952  -37.5898  -10.5043 C   0  0  0  0  0  0  0  0  0  0  0  0
  -13.9659  -39.9867  -10.2203 C   0  0  0  0  0  0  0  0  0  0  0  0
  -15.1021  -38.5068   -8.5989 N   0  0  0  0  0  0  0  0  0  0  0  0
  -15.5126  -39.3532   -7.5985 C   0  0  0  0  0  0  0  0  0  0  0  0
  -16.8447  -39.2112   -6.9422 C   0  0  1  0  0  0  0  0  0  0  0  0
  -16.8075  -38.0937   -6.1470 O   0  0  0  0  0  0  0  0  0  0  0  0
  -18.0048  -39.0889   -7.9133 C   0  0  2  0  0  0  0  0  0  0  0  0
  -19.2302  -38.4597   -7.3897 C   0  0  0  0  0  0  0  0  0  0  0  0
  -20.1684  -39.0848   -6.4776 C   0  0  0  0  0  0  0  0  0  0  0  0
  -19.8673  -38.7793   -5.1332 C   0  0  0  0  0  0  0  0  0  0  0  0
  -20.5808  -39.2523   -4.0589 C   0  0  0  0  0  0  0  0  0  0  0  0
  -21.6422  -40.0636   -4.3029 C   0  0  0  0  0  0  0  0  0  0  0  0
  -22.0613  -40.4550   -5.6204 C   0  0  0  0  0  0  0  0  0  0  0  0
  -23.2371  -41.3487   -5.4777 C   0  0  0  0  0  0  0  0  0  0  0  0
  -24.3144  -41.5177   -6.5096 C   0  0  0  0  0  0  0  0  0  0  0  0
  -24.5795  -42.9811   -6.8324 C   0  0  0  0  0  0  0  0  0  0  0  0
  -24.1629  -43.4197   -8.1877 C   0  0  0  0  0  0  0  0  0  0  0  0
  -22.9043  -43.7761   -8.4748 O   0  0  0  0  0  0  0  0  0  0  0  0
  -21.5599  -43.5837   -8.1268 C   0  0  0  0  0  0  0  0  0  0  0  0
  -20.6714  -42.6426   -8.6399 C   0  0  0  0  0  0  0  0  0  0  0  0
  -19.3607  -42.5169   -8.2468 C   0  0  0  0  0  0  0  0  0  0  0  0
  -18.9464  -43.4170   -7.2674 C   0  0  0  0  0  0  0  0  0  0  0  0
  -19.7945  -44.3535   -6.7424 C   0  0  0  0  0  0  0  0  0  0  0  0
  -19.2940  -45.3169   -5.6720 C   0  0  0  0  0  0  0  0  0  0  0  0
  -21.0252  -44.3821   -7.1926 N   0  0  0  0  0  0  0  0  0  0  0  0
  -18.2741  -41.5789   -8.6966 C   0  0  0  0  0  0  0  0  0  0  0  0
  -17.2068  -42.2968   -9.0154 O   0  0  0  0  0  0  0  0  0  0  0  0
  -18.1527  -40.1868   -8.8434 N   0  0  0  0  0  0  0  0  0  0  0  0
  -21.2958  -39.9399   -6.6347 C   0  0  0  0  0  0  0  0  0  0  0  0
  1  2  1  0
  2  3  1  0
  2  4  1  0
  4  5  2  0
  5  6  1  0
  6  7  2  0
  7  8  1  0
  8  9  2  0
  8 10  1  0
 10 11  1  0
 10 12  1  0
 10 13  1  0
 13 14  1  0
 14 15  1  0
 15 16  1  6
 15 17  1  0
 17 18  1  1
 18 19  1  0
 19 20  1  0
 20 21  2  0
 21 22  1  0
 22 23  2  0
 23 24  1  0
 24 25  1  0
 25 26  1  0
 26 27  1  0
 27 28  1  0
 28 29  1  0
 29 30  1  0
 30 31  2  0
 31 32  1  0
 32 33  2  0
 33 34  1  0
 33 35  1  0
 31 36  1  0
 36 37  2  0
 36 38  1  0
 23 39  1  0
  9  4  1  0
 35 29  2  0
 38 17  1  0
 39 19  2  0
M  END
$$$$
