
     RDKit          3D

 39 42  0  0  0  0  0  0  0  0999 V2000
  -17.0936  -35.9799  -12.6515 C   0  0  0  0  0  0  0  0  0  0  0  0
  -16.9451  -37.3683  -12.0168 C   0  0  0  0  0  0  0  0  0  0  0  0
  -17.2361  -38.3894  -13.0766 C   0  0  0  0  0  0  0  0  0  0  0  0
  -15.5781  -37.5347  -11.4486 C   0  0  0  0  0  0  0  0  0  0  0  0
  -14.6127  -36.6034  -11.7283 C   0  0  0  0  0  0  0  0  0  0  0  0
  -13.3439  -36.7346  -11.2159 C   0  0  0  0  0  0  0  0  0  0  0  0
  -13.0469  -37.8113  -10.4165 C   0  0  0  0  0  0  0  0  0  0  0  0
  -13.9953  -38.7681  -10.1145 C   0  0  0  0  0  0  0  0  0  0  0  0
  -15.2542  -38.6127  -10.6393 C   0  0  0  0  0  0  0  0  0  0  0  0
  -13.6241  -39.9445   -9.2259 C   0  0  0  0  0  0  0  0  0  0  0  0
  -12.4292  -39.4783   -8.4208 C   0  0  0  0  0  0  0  0  0  0  0  0
  -13.1317  -41.0100  -10.1493 C   0  0  0  0  0  0  0  0  0  0  0  0
  -14.7067  -40.1925   -8.4285 N   0  0  0  0  0  0  0  0  0  0  0  0
  -15.2537  -39.4665   -7.3993 C   0  0  0  0  0  0  0  0  0  0  0  0
  -16.7174  -39.4852   -7.1116 C   0  0  1  0  0  0  0  0  0  0  0  0
  -16.9868  -38.4756   -6.2224 O   0  0  0  0  0  0  0  0  0  0  0  0
  -17.5931  -39.3101   -8.3391 C   0  0  2  0  0  0  0  0  0  0  0  0
  -18.7733  -38.4420   -8.1798 C   0  0  0  0  0  0  0  0  0  0  0  0
  -19.9855  -38.7991   -7.4687 C   0  0  0  0  0  0  0  0  0  0  0  0
  -19.9409  -38.3780   -6.1225 C   0  0  0  0  0  0  0  0  0  0  0  0
  -20.9468  -38.5998   -5.2138 C   0  0  0  0  0  0  0  0  0  0  0  0
  -22.0539  -39.2646   -5.6342 C   0  0  0  0  0  0  0  0  0  0  0  0
  -22.2327  -39.7487   -6.9752 C   0  0  0  0  0  0  0  0  0  0  0  0
  -23.5498  -40.4288   -7.0421 C   0  0  0  0  0  0  0  0  0  0  0  0
  -24.3840  -40.5595   -8.2834 C   0  0  0  0  0  0  0  0  0  0  0  0
  -24.8250  -41.9944   -8.5337 C   0  0  0  0  0  0  0  0  0  0  0  0
  -24.2026  -42.6563   -9.7072 C   0  0  0  0  0  0  0  0  0  0  0  0
  -22.9948  -43.2325   -9.6530 O   0  0  0  0  0  0  0  0  0  0  0  0
  -21.7487  -43.2046   -9.0112 C   0  0  0  0  0  0  0  0  0  0  0  0
  -20.6168  -42.4805   -9.3755 C   0  0  0  0  0  0  0  0  0  0  0  0
  -19.4248  -42.5072   -8.6923 C   0  0  0  0  0  0  0  0  0  0  0  0
  -19.4034  -43.3308   -7.5688 C   0  0  0  0  0  0  0  0  0  0  0  0
  -20.4985  -44.0550   -7.1837 C   0  0  0  0  0  0  0  0  0  0  0  0
  -20.4259  -44.9425   -5.9462 C   0  0  0  0  0  0  0  0  0  0  0  0
  -21.5840  -43.9523   -7.9113 N   0  0  0  0  0  0  0  0  0  0  0  0
  -18.1173  -41.8083   -8.9476 C   0  0  0  0  0  0  0  0  0  0  0  0
  -17.1499  -42.7138   -8.9390 O   0  0  0  0  0  0  0  0  0  0  0  0
  -17.7227  -40.4799   -9.1798 N   0  0  0  0  0  0  0  0  0  0  0  0
  -21.1829  -39.4861   -7.8171 C   0  0  0  0  0  0  0  0  0  0  0  0
  1  2  1  0
  2  3  1  0
  2  4  1  0
  4  5  2  0
  5  6  1  0
  6  7  2  0
  7  8  1  0
  8  9  2  0
  8 10  1  0
 10 11  1  0
 10 12  1  0
 10 13  1  0
 13 14  1  0
 14 15  1  0
 15 16  1  1
 15 17  1  0
 17 18  1  1
 18 19  1  0
 19 20  1  0
 20 21  2  0
 21 22  1  0
 22 23  2  0
 23 24  1  0
 24 25  1  0
 25 26  1  0
 26 27  1  0
 27 28  1  0
 28 29  1  0
 29 30  1  0
 30 31  2  0
 31 32  1  0
 32 33  2  0
 33 34  1  0
 33 35  1  0
 31 36  1  0
 36 37  2  0
 36 38  1  0
 23 39  1  0
  9  4  1  0
 35 29  2  0
 38 17  1  0
 39 19  2  0
M  END
$$$$
