
     RDKit          3D

 39 42  0  0  0  0  0  0  0  0999 V2000
  -25.3621  -41.0502   -8.0142 C   0  0  0  0  0  0  0  0  0  0  0  0
  -24.2731  -41.6549   -8.9091 C   0  0  0  0  0  0  0  0  0  0  0  0
  -24.8898  -41.9496  -10.2445 C   0  0  0  0  0  0  0  0  0  0  0  0
  -23.1202  -40.7188   -9.0266 C   0  0  0  0  0  0  0  0  0  0  0  0
  -22.7383  -40.2700  -10.2637 C   0  0  0  0  0  0  0  0  0  0  0  0
  -21.6779  -39.4057  -10.3983 C   0  0  0  0  0  0  0  0  0  0  0  0
  -20.9986  -38.9915   -9.2788 C   0  0  0  0  0  0  0  0  0  0  0  0
  -21.3565  -39.4238   -8.0173 C   0  0  0  0  0  0  0  0  0  0  0  0
  -22.4191  -40.2865   -7.9116 C   0  0  0  0  0  0  0  0  0  0  0  0
  -20.5772  -38.9408   -6.8046 C   0  0  0  0  0  0  0  0  0  0  0  0
  -21.0673  -39.7877   -5.6489 C   0  0  0  0  0  0  0  0  0  0  0  0
  -21.0500  -37.5475   -6.5480 C   0  0  0  0  0  0  0  0  0  0  0  0
  -19.2551  -39.1644   -7.0717 N   0  0  0  0  0  0  0  0  0  0  0  0
  -18.2085  -38.2910   -7.2380 C   0  0  0  0  0  0  0  0  0  0  0  0
  -16.9589  -38.6842   -7.9515 C   0  0  1  0  0  0  0  0  0  0  0  0
  -16.2735  -37.5383   -8.2673 O   0  0  0  0  0  0  0  0  0  0  0  0
  -16.0499  -39.5998   -7.1519 C   0  0  2  0  0  0  0  0  0  0  0  0
  -14.6012  -39.4131   -7.3467 C   0  0  0  0  0  0  0  0  0  0  0  0
  -13.8531  -39.8302   -8.5168 C   0  0  0  0  0  0  0  0  0  0  0  0
  -13.7507  -38.7903   -9.4654 C   0  0  0  0  0  0  0  0  0  0  0  0
  -13.1112  -38.9132  -10.6749 C   0  0  0  0  0  0  0  0  0  0  0  0
  -12.5409  -40.1076  -10.9788 C   0  0  0  0  0  0  0  0  0  0  0  0
  -12.5681  -41.2496  -10.1072 C   0  0  0  0  0  0  0  0  0  0  0  0
  -11.8587  -42.3601  -10.7891 C   0  0  0  0  0  0  0  0  0  0  0  0
  -11.1544  -43.4852  -10.0876 C   0  0  0  0  0  0  0  0  0  0  0  0
  -11.5776  -44.8486  -10.6148 C   0  0  0  0  0  0  0  0  0  0  0  0
  -12.3776  -45.6741   -9.6760 C   0  0  0  0  0  0  0  0  0  0  0  0
  -13.7007  -45.5246   -9.5326 O   0  0  0  0  0  0  0  0  0  0  0  0
  -14.7590  -44.6098   -9.6259 C   0  0  0  0  0  0  0  0  0  0  0  0
  -15.2600  -43.7792   -8.6273 C   0  0  0  0  0  0  0  0  0  0  0  0
  -16.3073  -42.9058   -8.7966 C   0  0  0  0  0  0  0  0  0  0  0  0
  -16.8680  -42.8923  -10.0719 C   0  0  0  0  0  0  0  0  0  0  0  0
  -16.3990  -43.6956  -11.0752 C   0  0  0  0  0  0  0  0  0  0  0  0
  -17.0460  -43.6447  -12.4548 C   0  0  0  0  0  0  0  0  0  0  0  0
  -15.3937  -44.4905  -10.8002 N   0  0  0  0  0  0  0  0  0  0  0  0
  -16.9751  -41.9575   -7.8386 C   0  0  0  0  0  0  0  0  0  0  0  0
  -18.2815  -42.1764   -7.8750 O   0  0  0  0  0  0  0  0  0  0  0  0
  -16.5386  -40.9481   -6.9639 N   0  0  0  0  0  0  0  0  0  0  0  0
  -13.2258  -41.0423   -8.9221 C   0  0  0  0  0  0  0  0  0  0  0  0
  1  2  1  0
  2  3  1  0
  2  4  1  0
  4  5  2  0
  5  6  1  0
  6  7  2  0
  7  8  1  0
  8  9  2  0
  8 10  1  0
 10 11  1  0
 10 12  1  0
 10 13  1  0
 13 14  1  0
 14 15  1  0
 15 16  1  1
 15 17  1  0
 17 18  1  6
 18 19  1  0
 19 20  1  0
 20 21  2  0
 21 22  1  0
 22 23  2  0
 23 24  1  0
 24 25  1  0
 25 26  1  0
 26 27  1  0
 27 28  1  0
 28 29  1  0
 29 30  1  0
 30 31  2  0
 31 32  1  0
 32 33  2  0
 33 34  1  0
 33 35  1  0
 31 36  1  0
 36 37  2  0
 36 38  1  0
 23 39  1  0
  9  4  1  0
 35 29  2  0
 38 17  1  0
 39 19  2  0
M  END
$$$$
