
     RDKit          3D

 37 40  0  0  0  0  0  0  0  0999 V2000
  -14.3992  -39.2318  -11.5151 C   0  0  0  0  0  0  0  0  0  0  0  0
  -14.4134  -40.3106  -10.4835 C   0  0  0  0  0  0  0  0  0  0  0  0
  -15.3240  -41.4011  -11.0014 C   0  0  0  0  0  0  0  0  0  0  0  0
  -14.6123  -39.8952   -9.1958 N   0  0  0  0  0  0  0  0  0  0  0  0
  -15.0669  -38.7179   -8.6528 C   0  0  0  0  0  0  0  0  0  0  0  0
  -16.0494  -38.7673   -7.5681 C   0  0  1  0  0  0  0  0  0  0  0  0
  -16.3181  -37.6278   -6.8392 O   0  0  0  0  0  0  0  0  0  0  0  0
  -17.3793  -39.4485   -7.9388 C   0  0  2  0  0  0  0  0  0  0  0  0
  -18.2913  -39.4338   -6.7768 C   0  0  0  0  0  0  0  0  0  0  0  0
  -19.5762  -38.6947   -6.8910 C   0  0  0  0  0  0  0  0  0  0  0  0
  -19.8784  -38.0858   -5.6316 C   0  0  0  0  0  0  0  0  0  0  0  0
  -21.0142  -37.3938   -5.3666 C   0  0  0  0  0  0  0  0  0  0  0  0
  -21.9069  -37.2993   -6.4106 C   0  0  0  0  0  0  0  0  0  0  0  0
  -21.6720  -37.8742   -7.6719 C   0  0  0  0  0  0  0  0  0  0  0  0
  -20.4857  -38.5747   -7.9005 C   0  0  0  0  0  0  0  0  0  0  0  0
  -22.7218  -37.6379   -8.5216 O   0  0  0  0  0  0  0  0  0  0  0  0
  -23.6636  -38.2447   -9.2873 C   0  0  0  0  0  0  0  0  0  0  0  0
  -23.3902  -39.6980   -9.5170 C   0  0  0  0  0  0  0  0  0  0  0  0
  -24.3213  -40.6248   -8.7518 C   0  0  0  0  0  0  0  0  0  0  0  0
  -23.6333  -41.1797   -7.5550 C   0  0  0  0  0  0  0  0  0  0  0  0
  -22.7996  -42.2673   -7.7249 O   0  0  0  0  0  0  0  0  0  0  0  0
  -21.4454  -42.5377   -7.5219 C   0  0  0  0  0  0  0  0  0  0  0  0
  -21.2584  -43.4879   -6.5099 C   0  0  0  0  0  0  0  0  0  0  0  0
  -20.0465  -43.9035   -6.1254 N   0  0  0  0  0  0  0  0  0  0  0  0
  -19.0149  -43.3610   -6.7616 C   0  0  0  0  0  0  0  0  0  0  0  0
  -19.1143  -42.3947   -7.7977 C   0  0  0  0  0  0  0  0  0  0  0  0
  -20.3645  -41.9819   -8.1834 C   0  0  0  0  0  0  0  0  0  0  0  0
  -17.7763  -41.9790   -8.2342 C   0  0  0  0  0  0  0  0  0  0  0  0
  -16.9069  -42.9399   -8.3347 O   0  0  0  0  0  0  0  0  0  0  0  0
  -17.2210  -40.7244   -8.5755 N   0  0  0  0  0  0  0  0  0  0  0  0
  -13.0271  -40.9451  -10.4970 C   0  0  0  0  0  0  0  0  0  0  0  0
  -12.1139  -40.5948  -11.4593 C   0  0  0  0  0  0  0  0  0  0  0  0
  -10.8856  -41.2269  -11.4246 C   0  0  0  0  0  0  0  0  0  0  0  0
  -10.5848  -42.1736  -10.4634 C   0  0  0  0  0  0  0  0  0  0  0  0
  -11.5071  -42.5200   -9.5017 C   0  0  0  0  0  0  0  0  0  0  0  0
  -11.1412  -43.8172   -8.1579 Br  0  0  0  0  0  0  0  0  0  0  0  0
  -12.7410  -41.8794   -9.5434 C   0  0  0  0  0  0  0  0  0  0  0  0
  1  2  1  0
  2  3  1  0
  2  4  1  0
  4  5  1  0
  5  6  1  0
  6  7  1  6
  6  8  1  0
  8  9  1  1
  9 10  1  0
 10 11  2  0
 11 12  1  0
 12 13  2  0
 13 14  1  0
 14 15  2  0
 14 16  1  0
 16 17  1  0
 17 18  1  0
 18 19  1  0
 19 20  1  0
 20 21  1  0
 21 22  1  0
 22 23  2  0
 23 24  1  0
 24 25  2  0
 25 26  1  0
 26 27  2  0
 26 28  1  0
 28 29  2  0
 28 30  1  0
  2 31  1  0
 31 32  2  0
 32 33  1  0
 33 34  2  0
 34 35  1  0
 35 36  1  0
 35 37  2  0
 15 10  1  0
 27 22  1  0
 30  8  1  0
 37 31  1  0
M  END
$$$$
