
     RDKit          3D

 37 40  0  0  0  0  0  0  0  0999 V2000
  -14.1828  -41.0287   -9.6867 C   0  0  0  0  0  0  0  0  0  0  0  0
  -13.8646  -39.6088   -9.3539 C   0  0  0  0  0  0  0  0  0  0  0  0
  -12.4962  -39.6049   -8.7102 C   0  0  0  0  0  0  0  0  0  0  0  0
  -14.8539  -38.9153   -8.7133 N   0  0  0  0  0  0  0  0  0  0  0  0
  -16.1737  -38.6781   -9.0122 C   0  0  0  0  0  0  0  0  0  0  0  0
  -17.1320  -38.5097   -7.9177 C   0  0  1  0  0  0  0  0  0  0  0  0
  -17.7076  -37.2757   -7.6995 O   0  0  0  0  0  0  0  0  0  0  0  0
  -18.2265  -39.5902   -7.8527 C   0  0  2  0  0  0  0  0  0  0  0  0
  -19.0880  -39.3611   -6.6747 C   0  0  0  0  0  0  0  0  0  0  0  0
  -20.5292  -39.0691   -6.8941 C   0  0  0  0  0  0  0  0  0  0  0  0
  -20.9681  -38.1216   -5.9155 C   0  0  0  0  0  0  0  0  0  0  0  0
  -22.2468  -37.6890   -5.7853 C   0  0  0  0  0  0  0  0  0  0  0  0
  -23.1473  -38.2276   -6.6768 C   0  0  0  0  0  0  0  0  0  0  0  0
  -22.7826  -39.1624   -7.6615 C   0  0  0  0  0  0  0  0  0  0  0  0
  -21.4524  -39.5759   -7.7609 C   0  0  0  0  0  0  0  0  0  0  0  0
  -23.8703  -39.5399   -8.4060 O   0  0  0  0  0  0  0  0  0  0  0  0
  -24.6191  -40.6082   -8.7796 C   0  0  0  0  0  0  0  0  0  0  0  0
  -23.9572  -41.9202   -8.4968 C   0  0  0  0  0  0  0  0  0  0  0  0
  -24.5823  -42.6851   -7.3410 C   0  0  0  0  0  0  0  0  0  0  0  0
  -23.7483  -42.5488   -6.1166 C   0  0  0  0  0  0  0  0  0  0  0  0
  -22.6486  -43.3724   -5.9788 O   0  0  0  0  0  0  0  0  0  0  0  0
  -21.2694  -43.1963   -5.8560 C   0  0  0  0  0  0  0  0  0  0  0  0
  -20.8100  -43.6077   -4.5983 C   0  0  0  0  0  0  0  0  0  0  0  0
  -19.5244  -43.5270   -4.2380 N   0  0  0  0  0  0  0  0  0  0  0  0
  -18.6940  -43.0295   -5.1469 C   0  0  0  0  0  0  0  0  0  0  0  0
  -19.0741  -42.5911   -6.4432 C   0  0  0  0  0  0  0  0  0  0  0  0
  -20.3958  -42.6843   -6.7991 C   0  0  0  0  0  0  0  0  0  0  0  0
  -17.9110  -42.0534   -7.1586 C   0  0  0  0  0  0  0  0  0  0  0  0
  -16.8111  -42.7288   -7.0070 O   0  0  0  0  0  0  0  0  0  0  0  0
  -17.7310  -40.9290   -7.9965 N   0  0  0  0  0  0  0  0  0  0  0  0
  -13.6544  -38.8868  -10.6802 C   0  0  0  0  0  0  0  0  0  0  0  0
  -13.5930  -39.5959  -11.8532 C   0  0  0  0  0  0  0  0  0  0  0  0
  -13.3773  -38.8786  -13.0145 C   0  0  0  0  0  0  0  0  0  0  0  0
  -13.2284  -37.5044  -13.0003 C   0  0  0  0  0  0  0  0  0  0  0  0
  -13.2907  -36.8004  -11.8188 C   0  0  0  0  0  0  0  0  0  0  0  0
  -13.0914  -34.9089  -11.7468 Br  0  0  0  0  0  0  0  0  0  0  0  0
  -13.5079  -37.5295  -10.6544 C   0  0  0  0  0  0  0  0  0  0  0  0
  1  2  1  0
  2  3  1  0
  2  4  1  0
  4  5  1  0
  5  6  1  0
  6  7  1  6
  6  8  1  0
  8  9  1  1
  9 10  1  0
 10 11  2  0
 11 12  1  0
 12 13  2  0
 13 14  1  0
 14 15  2  0
 14 16  1  0
 16 17  1  0
 17 18  1  0
 18 19  1  0
 19 20  1  0
 20 21  1  0
 21 22  1  0
 22 23  2  0
 23 24  1  0
 24 25  2  0
 25 26  1  0
 26 27  2  0
 26 28  1  0
 28 29  2  0
 28 30  1  0
  2 31  1  0
 31 32  2  0
 32 33  1  0
 33 34  2  0
 34 35  1  0
 35 36  1  0
 35 37  2  0
 15 10  1  0
 27 22  1  0
 30  8  1  0
 37 31  1  0
M  END
$$$$
