
     RDKit          3D

 37 40  0  0  0  0  0  0  0  0999 V2000
  -12.8903  -40.5457   -8.8182 C   0  0  0  0  0  0  0  0  0  0  0  0
  -13.6707  -39.2734   -8.8429 C   0  0  0  0  0  0  0  0  0  0  0  0
  -12.7177  -38.1664   -8.4516 C   0  0  0  0  0  0  0  0  0  0  0  0
  -14.8785  -39.3078   -8.2025 N   0  0  0  0  0  0  0  0  0  0  0  0
  -15.9156  -38.4110   -8.1136 C   0  0  0  0  0  0  0  0  0  0  0  0
  -17.0155  -38.6849   -7.1865 C   0  0  1  0  0  0  0  0  0  0  0  0
  -17.6043  -37.6433   -6.5006 O   0  0  0  0  0  0  0  0  0  0  0  0
  -18.1186  -39.5972   -7.7528 C   0  0  2  0  0  0  0  0  0  0  0  0
  -19.0363  -40.0062   -6.6698 C   0  0  0  0  0  0  0  0  0  0  0  0
  -20.4629  -39.5963   -6.7543 C   0  0  0  0  0  0  0  0  0  0  0  0
  -20.9441  -39.3056   -5.4382 C   0  0  0  0  0  0  0  0  0  0  0  0
  -22.2251  -38.9691   -5.1463 C   0  0  0  0  0  0  0  0  0  0  0  0
  -23.0834  -38.9186   -6.2217 C   0  0  0  0  0  0  0  0  0  0  0  0
  -22.6758  -39.1931   -7.5389 C   0  0  0  0  0  0  0  0  0  0  0  0
  -21.3449  -39.5314   -7.7927 C   0  0  0  0  0  0  0  0  0  0  0  0
  -23.7274  -39.0791   -8.4113 O   0  0  0  0  0  0  0  0  0  0  0  0
  -24.4633  -39.7575   -9.3276 C   0  0  0  0  0  0  0  0  0  0  0  0
  -23.8244  -41.0377   -9.7662 C   0  0  0  0  0  0  0  0  0  0  0  0
  -24.5109  -42.2817   -9.2252 C   0  0  0  0  0  0  0  0  0  0  0  0
  -23.7381  -42.8479   -8.0870 C   0  0  0  0  0  0  0  0  0  0  0  0
  -22.6517  -43.6521   -8.3693 O   0  0  0  0  0  0  0  0  0  0  0  0
  -21.2793  -43.6130   -8.1179 C   0  0  0  0  0  0  0  0  0  0  0  0
  -20.8856  -44.6476   -7.2595 C   0  0  0  0  0  0  0  0  0  0  0  0
  -19.6191  -44.8131   -6.8625 N   0  0  0  0  0  0  0  0  0  0  0  0
  -18.7414  -43.9334   -7.3306 C   0  0  0  0  0  0  0  0  0  0  0  0
  -19.0538  -42.8579   -8.2040 C   0  0  0  0  0  0  0  0  0  0  0  0
  -20.3567  -42.7042   -8.6054 C   0  0  0  0  0  0  0  0  0  0  0  0
  -17.8532  -42.0584   -8.4744 C   0  0  0  0  0  0  0  0  0  0  0  0
  -16.7663  -42.7449   -8.6656 O   0  0  0  0  0  0  0  0  0  0  0  0
  -17.6248  -40.6666   -8.5720 N   0  0  0  0  0  0  0  0  0  0  0  0
  -13.9931  -38.9880  -10.3054 C   0  0  0  0  0  0  0  0  0  0  0  0
  -13.9745  -40.0017  -11.2298 C   0  0  0  0  0  0  0  0  0  0  0  0
  -14.2540  -39.6663  -12.5409 C   0  0  0  0  0  0  0  0  0  0  0  0
  -14.5403  -38.3656  -12.9109 C   0  0  0  0  0  0  0  0  0  0  0  0
  -14.5561  -37.3539  -11.9771 C   0  0  0  0  0  0  0  0  0  0  0  0
  -14.9438  -35.5480  -12.4363 Br  0  0  0  0  0  0  0  0  0  0  0  0
  -14.2738  -37.6996  -10.6597 C   0  0  0  0  0  0  0  0  0  0  0  0
  1  2  1  0
  2  3  1  0
  2  4  1  0
  4  5  1  0
  5  6  1  0
  6  7  1  6
  6  8  1  0
  8  9  1  1
  9 10  1  0
 10 11  2  0
 11 12  1  0
 12 13  2  0
 13 14  1  0
 14 15  2  0
 14 16  1  0
 16 17  1  0
 17 18  1  0
 18 19  1  0
 19 20  1  0
 20 21  1  0
 21 22  1  0
 22 23  2  0
 23 24  1  0
 24 25  2  0
 25 26  1  0
 26 27  2  0
 26 28  1  0
 28 29  2  0
 28 30  1  0
  2 31  1  0
 31 32  2  0
 32 33  1  0
 33 34  2  0
 34 35  1  0
 35 36  1  0
 35 37  2  0
 15 10  1  0
 27 22  1  0
 30  8  1  0
 37 31  1  0
M  END
$$$$
