
     RDKit          3D

 37 40  0  0  0  0  0  0  0  0999 V2000
  -21.8336  -39.1524   -5.4458 C   0  0  0  0  0  0  0  0  0  0  0  0
  -20.6141  -39.5401   -6.2144 C   0  0  0  0  0  0  0  0  0  0  0  0
  -20.3108  -40.9785   -5.8600 C   0  0  0  0  0  0  0  0  0  0  0  0
  -19.5735  -38.6545   -6.1588 N   0  0  0  0  0  0  0  0  0  0  0  0
  -18.2300  -38.8046   -5.9137 C   0  0  0  0  0  0  0  0  0  0  0  0
  -17.2719  -38.0232   -6.6986 C   0  0  1  0  0  0  0  0  0  0  0  0
  -16.3787  -37.1935   -6.0541 O   0  0  0  0  0  0  0  0  0  0  0  0
  -16.5203  -38.8263   -7.7757 C   0  0  2  0  0  0  0  0  0  0  0  0
  -17.1315  -38.5852   -9.0988 C   0  0  0  0  0  0  0  0  0  0  0  0
  -16.3059  -37.9462  -10.1573 C   0  0  0  0  0  0  0  0  0  0  0  0
  -17.1356  -37.0793  -10.9372 C   0  0  0  0  0  0  0  0  0  0  0  0
  -16.7161  -36.3933  -12.0294 C   0  0  0  0  0  0  0  0  0  0  0  0
  -15.3954  -36.5771  -12.3724 C   0  0  0  0  0  0  0  0  0  0  0  0
  -14.5271  -37.4142  -11.6500 C   0  0  0  0  0  0  0  0  0  0  0  0
  -15.0023  -38.0979  -10.5288 C   0  0  0  0  0  0  0  0  0  0  0  0
  -13.2754  -37.4223  -12.2097 O   0  0  0  0  0  0  0  0  0  0  0  0
  -12.3324  -38.2267  -12.7620 C   0  0  0  0  0  0  0  0  0  0  0  0
  -12.5760  -39.6813  -12.5082 C   0  0  0  0  0  0  0  0  0  0  0  0
  -13.0433  -40.4474  -13.7354 C   0  0  0  0  0  0  0  0  0  0  0  0
  -14.5105  -40.6852  -13.6717 C   0  0  0  0  0  0  0  0  0  0  0  0
  -14.9693  -41.7469  -12.9173 O   0  0  0  0  0  0  0  0  0  0  0  0
  -15.7978  -41.9067  -11.8054 C   0  0  0  0  0  0  0  0  0  0  0  0
  -16.9736  -42.5923  -12.1366 C   0  0  0  0  0  0  0  0  0  0  0  0
  -17.9306  -42.8579  -11.2406 N   0  0  0  0  0  0  0  0  0  0  0  0
  -17.7055  -42.4321  -10.0032 C   0  0  0  0  0  0  0  0  0  0  0  0
  -16.5435  -41.7327   -9.5818 C   0  0  0  0  0  0  0  0  0  0  0  0
  -15.5692  -41.4716  -10.5119 C   0  0  0  0  0  0  0  0  0  0  0  0
  -16.6544  -41.3718   -8.1637 C   0  0  0  0  0  0  0  0  0  0  0  0
  -17.1610  -42.2929   -7.3994 O   0  0  0  0  0  0  0  0  0  0  0  0
  -16.3193  -40.2060   -7.4375 N   0  0  0  0  0  0  0  0  0  0  0  0
  -21.0231  -39.5961   -7.6820 C   0  0  0  0  0  0  0  0  0  0  0  0
  -21.0551  -38.4508   -8.4368 C   0  0  0  0  0  0  0  0  0  0  0  0
  -21.4576  -38.5727   -9.7532 C   0  0  0  0  0  0  0  0  0  0  0  0
  -21.8147  -39.7948  -10.2915 C   0  0  0  0  0  0  0  0  0  0  0  0
  -21.7807  -40.9393   -9.5269 C   0  0  0  0  0  0  0  0  0  0  0  0
  -22.2631  -42.6444  -10.2213 Br  0  0  0  0  0  0  0  0  0  0  0  0
  -21.3745  -40.8082   -8.2031 C   0  0  0  0  0  0  0  0  0  0  0  0
  1  2  1  0
  2  3  1  0
  2  4  1  0
  4  5  1  0
  5  6  1  0
  6  7  1  1
  6  8  1  0
  8  9  1  6
  9 10  1  0
 10 11  2  0
 11 12  1  0
 12 13  2  0
 13 14  1  0
 14 15  2  0
 14 16  1  0
 16 17  1  0
 17 18  1  0
 18 19  1  0
 19 20  1  0
 20 21  1  0
 21 22  1  0
 22 23  2  0
 23 24  1  0
 24 25  2  0
 25 26  1  0
 26 27  2  0
 26 28  1  0
 28 29  2  0
 28 30  1  0
  2 31  1  0
 31 32  2  0
 32 33  1  0
 33 34  2  0
 34 35  1  0
 35 36  1  0
 35 37  2  0
 15 10  1  0
 27 22  1  0
 30  8  1  0
 37 31  1  0
M  END
$$$$
