
     RDKit          3D

 37 40  0  0  0  0  0  0  0  0999 V2000
  -13.0354  -40.7433   -9.4697 C   0  0  0  0  0  0  0  0  0  0  0  0
  -13.5469  -39.3603   -9.7022 C   0  0  0  0  0  0  0  0  0  0  0  0
  -12.3763  -38.4219   -9.5131 C   0  0  0  0  0  0  0  0  0  0  0  0
  -14.7083  -39.0424   -9.0541 N   0  0  0  0  0  0  0  0  0  0  0  0
  -14.9787  -38.6071   -7.7793 C   0  0  0  0  0  0  0  0  0  0  0  0
  -16.0449  -39.2591   -7.0160 C   0  0  1  0  0  0  0  0  0  0  0  0
  -16.5360  -38.6547   -5.8779 O   0  0  0  0  0  0  0  0  0  0  0  0
  -17.2270  -39.7596   -7.8658 C   0  0  2  0  0  0  0  0  0  0  0  0
  -18.2282  -40.4121   -6.9974 C   0  0  0  0  0  0  0  0  0  0  0  0
  -19.5909  -39.8231   -6.9168 C   0  0  0  0  0  0  0  0  0  0  0  0
  -20.0841  -39.9676   -5.5811 C   0  0  0  0  0  0  0  0  0  0  0  0
  -21.3256  -39.6004   -5.1774 C   0  0  0  0  0  0  0  0  0  0  0  0
  -22.1295  -39.0584   -6.1550 C   0  0  0  0  0  0  0  0  0  0  0  0
  -21.7075  -38.8891   -7.4853 C   0  0  0  0  0  0  0  0  0  0  0  0
  -20.4180  -39.2781   -7.8546 C   0  0  0  0  0  0  0  0  0  0  0  0
  -22.7034  -38.3372   -8.2492 O   0  0  0  0  0  0  0  0  0  0  0  0
  -23.4796  -38.5417   -9.3433 C   0  0  0  0  0  0  0  0  0  0  0  0
  -22.9827  -39.6477  -10.2205 C   0  0  0  0  0  0  0  0  0  0  0  0
  -23.8340  -40.9060  -10.1614 C   0  0  0  0  0  0  0  0  0  0  0  0
  -23.1792  -41.9366   -9.3113 C   0  0  0  0  0  0  0  0  0  0  0  0
  -22.1872  -42.7151   -9.8739 O   0  0  0  0  0  0  0  0  0  0  0  0
  -20.8308  -42.9423   -9.6359 C   0  0  0  0  0  0  0  0  0  0  0  0
  -20.5976  -44.2573   -9.2134 C   0  0  0  0  0  0  0  0  0  0  0  0
  -19.3763  -44.7127   -8.9129 N   0  0  0  0  0  0  0  0  0  0  0  0
  -18.3820  -43.8415   -9.0375 C   0  0  0  0  0  0  0  0  0  0  0  0
  -18.5290  -42.4935   -9.4598 C   0  0  0  0  0  0  0  0  0  0  0  0
  -19.7876  -42.0428   -9.7684 C   0  0  0  0  0  0  0  0  0  0  0  0
  -17.2316  -41.8082   -9.4315 C   0  0  0  0  0  0  0  0  0  0  0  0
  -16.2285  -42.5108   -9.8666 O   0  0  0  0  0  0  0  0  0  0  0  0
  -16.8340  -40.5153   -9.0203 N   0  0  0  0  0  0  0  0  0  0  0  0
  -13.8693  -39.2590  -11.1889 C   0  0  0  0  0  0  0  0  0  0  0  0
  -13.8868  -40.3851  -11.9726 C   0  0  0  0  0  0  0  0  0  0  0  0
  -14.1639  -40.2157  -13.3158 C   0  0  0  0  0  0  0  0  0  0  0  0
  -14.4130  -38.9664  -13.8524 C   0  0  0  0  0  0  0  0  0  0  0  0
  -14.3929  -37.8413  -13.0591 C   0  0  0  0  0  0  0  0  0  0  0  0
  -14.7287  -36.1000  -13.7501 Br  0  0  0  0  0  0  0  0  0  0  0  0
  -14.1132  -38.0201  -11.7084 C   0  0  0  0  0  0  0  0  0  0  0  0
  1  2  1  0
  2  3  1  0
  2  4  1  0
  4  5  1  0
  5  6  1  0
  6  7  1  1
  6  8  1  0
  8  9  1  1
  9 10  1  0
 10 11  2  0
 11 12  1  0
 12 13  2  0
 13 14  1  0
 14 15  2  0
 14 16  1  0
 16 17  1  0
 17 18  1  0
 18 19  1  0
 19 20  1  0
 20 21  1  0
 21 22  1  0
 22 23  2  0
 23 24  1  0
 24 25  2  0
 25 26  1  0
 26 27  2  0
 26 28  1  0
 28 29  2  0
 28 30  1  0
  2 31  1  0
 31 32  2  0
 32 33  1  0
 33 34  2  0
 34 35  1  0
 35 36  1  0
 35 37  2  0
 15 10  1  0
 27 22  1  0
 30  8  1  0
 37 31  1  0
M  END
$$$$
