
     RDKit          3D

 37 40  0  0  0  0  0  0  0  0999 V2000
  -21.6626  -38.4037   -6.7623 C   0  0  0  0  0  0  0  0  0  0  0  0
  -20.5585  -39.2537   -7.2978 C   0  0  0  0  0  0  0  0  0  0  0  0
  -20.6043  -40.5613   -6.5397 C   0  0  0  0  0  0  0  0  0  0  0  0
  -19.3405  -38.6417   -7.4069 N   0  0  0  0  0  0  0  0  0  0  0  0
  -18.0773  -38.9935   -6.9968 C   0  0  0  0  0  0  0  0  0  0  0  0
  -16.9214  -38.3348   -7.6088 C   0  0  1  0  0  0  0  0  0  0  0  0
  -16.0576  -37.6032   -6.8210 O   0  0  0  0  0  0  0  0  0  0  0  0
  -16.0994  -39.2305   -8.5532 C   0  0  2  0  0  0  0  0  0  0  0  0
  -16.0237  -38.6111   -9.8922 C   0  0  0  0  0  0  0  0  0  0  0  0
  -14.6898  -38.2221  -10.4211 C   0  0  0  0  0  0  0  0  0  0  0  0
  -14.8206  -37.0123  -11.1743 C   0  0  0  0  0  0  0  0  0  0  0  0
  -13.8083  -36.4177  -11.8533 C   0  0  0  0  0  0  0  0  0  0  0  0
  -12.5923  -37.0597  -11.7846 C   0  0  0  0  0  0  0  0  0  0  0  0
  -12.3959  -38.2505  -11.0634 C   0  0  0  0  0  0  0  0  0  0  0  0
  -13.4670  -38.8248  -10.3755 C   0  0  0  0  0  0  0  0  0  0  0  0
  -11.0977  -38.6789  -11.1685 O   0  0  0  0  0  0  0  0  0  0  0  0
  -10.3199  -39.7144  -11.5739 C   0  0  0  0  0  0  0  0  0  0  0  0
  -11.0902  -40.9773  -11.8000 C   0  0  0  0  0  0  0  0  0  0  0  0
  -11.2469  -41.3449  -13.2669 C   0  0  0  0  0  0  0  0  0  0  0  0
  -12.6114  -40.9964  -13.7468 C   0  0  0  0  0  0  0  0  0  0  0  0
  -13.6419  -41.8775  -13.4853 O   0  0  0  0  0  0  0  0  0  0  0  0
  -14.8482  -41.8346  -12.7844 C   0  0  0  0  0  0  0  0  0  0  0  0
  -15.9461  -41.9606  -13.6453 C   0  0  0  0  0  0  0  0  0  0  0  0
  -17.2106  -41.9379  -13.2098 N   0  0  0  0  0  0  0  0  0  0  0  0
  -17.3741  -41.7874  -11.9007 C   0  0  0  0  0  0  0  0  0  0  0  0
  -16.3196  -41.6543  -10.9587 C   0  0  0  0  0  0  0  0  0  0  0  0
  -15.0281  -41.6839  -11.4207 C   0  0  0  0  0  0  0  0  0  0  0  0
  -16.8649  -41.4538   -9.6111 C   0  0  0  0  0  0  0  0  0  0  0  0
  -17.8962  -42.1891   -9.3196 O   0  0  0  0  0  0  0  0  0  0  0  0
  -16.4966  -40.6090   -8.5390 N   0  0  0  0  0  0  0  0  0  0  0  0
  -20.9520  -39.6340   -8.7208 C   0  0  0  0  0  0  0  0  0  0  0  0
  -21.5677  -40.8342   -8.9723 C   0  0  0  0  0  0  0  0  0  0  0  0
  -21.8749  -41.1231  -10.2883 C   0  0  0  0  0  0  0  0  0  0  0  0
  -21.5760  -40.2436  -11.3120 C   0  0  0  0  0  0  0  0  0  0  0  0
  -20.9574  -39.0416  -11.0512 C   0  0  0  0  0  0  0  0  0  0  0  0
  -20.5247  -37.7978  -12.4253 Br  0  0  0  0  0  0  0  0  0  0  0  0
  -20.6514  -38.7583   -9.7242 C   0  0  0  0  0  0  0  0  0  0  0  0
  1  2  1  0
  2  3  1  0
  2  4  1  0
  4  5  1  0
  5  6  1  0
  6  7  1  1
  6  8  1  0
  8  9  1  6
  9 10  1  0
 10 11  2  0
 11 12  1  0
 12 13  2  0
 13 14  1  0
 14 15  2  0
 14 16  1  0
 16 17  1  0
 17 18  1  0
 18 19  1  0
 19 20  1  0
 20 21  1  0
 21 22  1  0
 22 23  2  0
 23 24  1  0
 24 25  2  0
 25 26  1  0
 26 27  2  0
 26 28  1  0
 28 29  2  0
 28 30  1  0
  2 31  1  0
 31 32  2  0
 32 33  1  0
 33 34  2  0
 34 35  1  0
 35 36  1  0
 35 37  2  0
 15 10  1  0
 27 22  1  0
 30  8  1  0
 37 31  1  0
M  END
$$$$
