
     RDKit          3D

 37 40  0  0  0  0  0  0  0  0999 V2000
  -14.7036  -40.9042   -9.9041 C   0  0  0  0  0  0  0  0  0  0  0  0
  -14.1075  -39.5486   -9.7157 C   0  0  0  0  0  0  0  0  0  0  0  0
  -13.0843  -39.6692   -8.6088 C   0  0  0  0  0  0  0  0  0  0  0  0
  -15.0006  -38.5169   -9.6256 N   0  0  0  0  0  0  0  0  0  0  0  0
  -15.7697  -38.0332   -8.5950 C   0  0  0  0  0  0  0  0  0  0  0  0
  -16.3319  -38.9745   -7.6243 C   0  0  1  0  0  0  0  0  0  0  0  0
  -16.4095  -38.6174   -6.2945 O   0  0  0  0  0  0  0  0  0  0  0  0
  -17.6672  -39.6119   -8.0493 C   0  0  2  0  0  0  0  0  0  0  0  0
  -18.3369  -40.2042   -6.8733 C   0  0  0  0  0  0  0  0  0  0  0  0
  -19.6598  -39.6644   -6.4620 C   0  0  0  0  0  0  0  0  0  0  0  0
  -19.7473  -39.6808   -5.0336 C   0  0  0  0  0  0  0  0  0  0  0  0
  -20.8481  -39.3210   -4.3280 C   0  0  0  0  0  0  0  0  0  0  0  0
  -21.9295  -38.9220   -5.0811 C   0  0  0  0  0  0  0  0  0  0  0  0
  -21.9102  -38.8833   -6.4863 C   0  0  0  0  0  0  0  0  0  0  0  0
  -20.7524  -39.2590   -7.1708 C   0  0  0  0  0  0  0  0  0  0  0  0
  -23.1161  -38.4585   -6.9817 O   0  0  0  0  0  0  0  0  0  0  0  0
  -24.1519  -38.8127   -7.7837 C   0  0  0  0  0  0  0  0  0  0  0  0
  -23.8456  -39.9877   -8.6583 C   0  0  0  0  0  0  0  0  0  0  0  0
  -24.5569  -41.2646   -8.2399 C   0  0  0  0  0  0  0  0  0  0  0  0
  -23.6203  -42.1688   -7.5198 C   0  0  0  0  0  0  0  0  0  0  0  0
  -22.7744  -42.9645   -8.2668 O   0  0  0  0  0  0  0  0  0  0  0  0
  -21.3933  -43.1102   -8.4067 C   0  0  0  0  0  0  0  0  0  0  0  0
  -20.9605  -44.3605   -7.9467 C   0  0  0  0  0  0  0  0  0  0  0  0
  -19.6755  -44.7314   -7.9668 N   0  0  0  0  0  0  0  0  0  0  0  0
  -18.8188  -43.8404   -8.4521 C   0  0  0  0  0  0  0  0  0  0  0  0
  -19.1714  -42.5538   -8.9395 C   0  0  0  0  0  0  0  0  0  0  0  0
  -20.4940  -42.1901   -8.9160 C   0  0  0  0  0  0  0  0  0  0  0  0
  -17.9688  -41.8187   -9.3483 C   0  0  0  0  0  0  0  0  0  0  0  0
  -17.0818  -42.5245   -9.9841 O   0  0  0  0  0  0  0  0  0  0  0  0
  -17.5624  -40.4737   -9.1915 N   0  0  0  0  0  0  0  0  0  0  0  0
  -13.2769  -39.2606  -10.9612 C   0  0  0  0  0  0  0  0  0  0  0  0
  -12.9191  -40.2803  -11.8067 C   0  0  0  0  0  0  0  0  0  0  0  0
  -12.1464  -39.9498  -12.9037 C   0  0  0  0  0  0  0  0  0  0  0  0
  -11.7475  -38.6482  -13.1433 C   0  0  0  0  0  0  0  0  0  0  0  0
  -12.1102  -37.6308  -12.2895 C   0  0  0  0  0  0  0  0  0  0  0  0
  -11.5859  -35.8237  -12.5754 Br  0  0  0  0  0  0  0  0  0  0  0  0
  -12.8878  -37.9717  -11.1877 C   0  0  0  0  0  0  0  0  0  0  0  0
  1  2  1  0
  2  3  1  0
  2  4  1  0
  4  5  1  0
  5  6  1  0
  6  7  1  1
  6  8  1  0
  8  9  1  1
  9 10  1  0
 10 11  2  0
 11 12  1  0
 12 13  2  0
 13 14  1  0
 14 15  2  0
 14 16  1  0
 16 17  1  0
 17 18  1  0
 18 19  1  0
 19 20  1  0
 20 21  1  0
 21 22  1  0
 22 23  2  0
 23 24  1  0
 24 25  2  0
 25 26  1  0
 26 27  2  0
 26 28  1  0
 28 29  2  0
 28 30  1  0
  2 31  1  0
 31 32  2  0
 32 33  1  0
 33 34  2  0
 34 35  1  0
 35 36  1  0
 35 37  2  0
 15 10  1  0
 27 22  1  0
 30  8  1  0
 37 31  1  0
M  END
$$$$
