
     RDKit          3D

 37 40  0  0  0  0  0  0  0  0999 V2000
  -13.6962  -41.9748   -9.1610 C   0  0  0  0  0  0  0  0  0  0  0  0
  -14.0658  -40.5494   -9.4060 C   0  0  0  0  0  0  0  0  0  0  0  0
  -12.9301  -39.7041   -8.8749 C   0  0  0  0  0  0  0  0  0  0  0  0
  -15.3321  -40.1938   -9.0315 N   0  0  0  0  0  0  0  0  0  0  0  0
  -16.0937  -39.0728   -9.2569 C   0  0  0  0  0  0  0  0  0  0  0  0
  -17.0407  -38.6374   -8.2281 C   0  0  1  0  0  0  0  0  0  0  0  0
  -17.4525  -37.3217   -8.1937 O   0  0  0  0  0  0  0  0  0  0  0  0
  -18.2690  -39.5501   -8.0606 C   0  0  2  0  0  0  0  0  0  0  0  0
  -19.1894  -38.9735   -7.0593 C   0  0  0  0  0  0  0  0  0  0  0  0
  -20.5561  -38.5806   -7.4931 C   0  0  0  0  0  0  0  0  0  0  0  0
  -20.9480  -37.3982   -6.7886 C   0  0  0  0  0  0  0  0  0  0  0  0
  -22.1654  -36.8098   -6.8942 C   0  0  0  0  0  0  0  0  0  0  0  0
  -23.0502  -37.4297   -7.7477 C   0  0  0  0  0  0  0  0  0  0  0  0
  -22.7294  -38.5931   -8.4689 C   0  0  0  0  0  0  0  0  0  0  0  0
  -21.4613  -39.1618   -8.3318 C   0  0  0  0  0  0  0  0  0  0  0  0
  -23.7904  -39.0039   -9.2340 O   0  0  0  0  0  0  0  0  0  0  0  0
  -24.6386  -40.0394   -9.4569 C   0  0  0  0  0  0  0  0  0  0  0  0
  -24.1808  -41.3212   -8.8349 C   0  0  0  0  0  0  0  0  0  0  0  0
  -24.9961  -41.7387   -7.6215 C   0  0  0  0  0  0  0  0  0  0  0  0
  -24.2578  -41.4279   -6.3678 C   0  0  0  0  0  0  0  0  0  0  0  0
  -23.2912  -42.3164   -5.9401 O   0  0  0  0  0  0  0  0  0  0  0  0
  -21.9162  -42.2701   -5.7048 C   0  0  0  0  0  0  0  0  0  0  0  0
  -21.6226  -42.4415   -4.3459 C   0  0  0  0  0  0  0  0  0  0  0  0
  -20.3725  -42.4249   -3.8702 N   0  0  0  0  0  0  0  0  0  0  0  0
  -19.4103  -42.2346   -4.7653 C   0  0  0  0  0  0  0  0  0  0  0  0
  -19.6188  -42.0541   -6.1585 C   0  0  0  0  0  0  0  0  0  0  0  0
  -20.9065  -42.0780   -6.6313 C   0  0  0  0  0  0  0  0  0  0  0  0
  -18.3390  -41.8186   -6.8370 C   0  0  0  0  0  0  0  0  0  0  0  0
  -17.3539  -42.5605   -6.4268 O   0  0  0  0  0  0  0  0  0  0  0  0
  -17.9430  -40.9336   -7.8660 N   0  0  0  0  0  0  0  0  0  0  0  0
  -14.0132  -40.3386  -10.9150 C   0  0  0  0  0  0  0  0  0  0  0  0
  -14.2588  -41.3834  -11.7698 C   0  0  0  0  0  0  0  0  0  0  0  0
  -14.1710  -41.1254  -13.1246 C   0  0  0  0  0  0  0  0  0  0  0  0
  -13.8492  -39.8694  -13.6036 C   0  0  0  0  0  0  0  0  0  0  0  0
  -13.6035  -38.8264  -12.7391 C   0  0  0  0  0  0  0  0  0  0  0  0
  -13.1563  -37.0798  -13.3489 Br  0  0  0  0  0  0  0  0  0  0  0  0
  -13.6937  -39.0942  -11.3772 C   0  0  0  0  0  0  0  0  0  0  0  0
  1  2  1  0
  2  3  1  0
  2  4  1  0
  4  5  1  0
  5  6  1  0
  6  7  1  6
  6  8  1  0
  8  9  1  1
  9 10  1  0
 10 11  2  0
 11 12  1  0
 12 13  2  0
 13 14  1  0
 14 15  2  0
 14 16  1  0
 16 17  1  0
 17 18  1  0
 18 19  1  0
 19 20  1  0
 20 21  1  0
 21 22  1  0
 22 23  2  0
 23 24  1  0
 24 25  2  0
 25 26  1  0
 26 27  2  0
 26 28  1  0
 28 29  2  0
 28 30  1  0
  2 31  1  0
 31 32  2  0
 32 33  1  0
 33 34  2  0
 34 35  1  0
 35 36  1  0
 35 37  2  0
 15 10  1  0
 27 22  1  0
 30  8  1  0
 37 31  1  0
M  END
$$$$
