
     RDKit          3D

 37 40  0  0  0  0  0  0  0  0999 V2000
  -20.5822  -36.9048   -8.1440 C   0  0  0  0  0  0  0  0  0  0  0  0
  -19.6557  -38.0528   -8.3723 C   0  0  0  0  0  0  0  0  0  0  0  0
  -20.2292  -39.2350   -7.6239 C   0  0  0  0  0  0  0  0  0  0  0  0
  -18.3271  -37.7865   -8.1877 N   0  0  0  0  0  0  0  0  0  0  0  0
  -17.4321  -38.1318   -7.2041 C   0  0  0  0  0  0  0  0  0  0  0  0
  -16.1045  -38.6159   -7.5883 C   0  0  1  0  0  0  0  0  0  0  0  0
  -15.0183  -38.3357   -6.7862 O   0  0  0  0  0  0  0  0  0  0  0  0
  -16.0565  -40.1001   -7.9940 C   0  0  2  0  0  0  0  0  0  0  0  0
  -15.6990  -40.2183   -9.4225 C   0  0  0  0  0  0  0  0  0  0  0  0
  -14.4387  -40.9192   -9.7842 C   0  0  0  0  0  0  0  0  0  0  0  0
  -13.8499  -40.2680  -10.9144 C   0  0  0  0  0  0  0  0  0  0  0  0
  -12.7276  -40.6927  -11.5463 C   0  0  0  0  0  0  0  0  0  0  0  0
  -12.1531  -41.8325  -11.0299 C   0  0  0  0  0  0  0  0  0  0  0  0
  -12.6804  -42.5205   -9.9230 C   0  0  0  0  0  0  0  0  0  0  0  0
  -13.8363  -42.0436   -9.3012 C   0  0  0  0  0  0  0  0  0  0  0  0
  -11.9211  -43.6222   -9.6234 O   0  0  0  0  0  0  0  0  0  0  0  0
  -11.9611  -44.9724   -9.4940 C   0  0  0  0  0  0  0  0  0  0  0  0
  -13.3532  -45.5168   -9.4209 C   0  0  0  0  0  0  0  0  0  0  0  0
  -13.7883  -46.2563  -10.6760 C   0  0  0  0  0  0  0  0  0  0  0  0
  -14.6835  -45.3996  -11.4995 C   0  0  0  0  0  0  0  0  0  0  0  0
  -16.0196  -45.3308  -11.1579 O   0  0  0  0  0  0  0  0  0  0  0  0
  -16.9056  -44.3283  -10.7602 C   0  0  0  0  0  0  0  0  0  0  0  0
  -17.9017  -44.1136  -11.7214 C   0  0  0  0  0  0  0  0  0  0  0  0
  -18.8619  -43.1943  -11.5724 N   0  0  0  0  0  0  0  0  0  0  0  0
  -18.8216  -42.4853  -10.4504 C   0  0  0  0  0  0  0  0  0  0  0  0
  -17.8506  -42.6384   -9.4253 C   0  0  0  0  0  0  0  0  0  0  0  0
  -16.8748  -43.5885   -9.5912 C   0  0  0  0  0  0  0  0  0  0  0  0
  -18.0794  -41.6569   -8.3586 C   0  0  0  0  0  0  0  0  0  0  0  0
  -19.3255  -41.4717   -8.0391 O   0  0  0  0  0  0  0  0  0  0  0  0
  -17.2096  -40.8512   -7.5884 N   0  0  0  0  0  0  0  0  0  0  0  0
  -19.7934  -38.4389   -9.8407 C   0  0  0  0  0  0  0  0  0  0  0  0
  -18.8045  -38.1202  -10.7369 C   0  0  0  0  0  0  0  0  0  0  0  0
  -19.0068  -38.4805  -12.0555 C   0  0  0  0  0  0  0  0  0  0  0  0
  -20.1557  -39.1341  -12.4601 C   0  0  0  0  0  0  0  0  0  0  0  0
  -21.1436  -39.4496  -11.5545 C   0  0  0  0  0  0  0  0  0  0  0  0
  -22.7430  -40.3479  -12.0618 Br  0  0  0  0  0  0  0  0  0  0  0  0
  -20.9325  -39.0835  -10.2294 C   0  0  0  0  0  0  0  0  0  0  0  0
  1  2  1  0
  2  3  1  0
  2  4  1  0
  4  5  1  0
  5  6  1  0
  6  7  1  1
  6  8  1  0
  8  9  1  6
  9 10  1  0
 10 11  2  0
 11 12  1  0
 12 13  2  0
 13 14  1  0
 14 15  2  0
 14 16  1  0
 16 17  1  0
 17 18  1  0
 18 19  1  0
 19 20  1  0
 20 21  1  0
 21 22  1  0
 22 23  2  0
 23 24  1  0
 24 25  2  0
 25 26  1  0
 26 27  2  0
 26 28  1  0
 28 29  2  0
 28 30  1  0
  2 31  1  0
 31 32  2  0
 32 33  1  0
 33 34  2  0
 34 35  1  0
 35 36  1  0
 35 37  2  0
 15 10  1  0
 27 22  1  0
 30  8  1  0
 37 31  1  0
M  END
$$$$
