
     RDKit          3D

 37 40  0  0  0  0  0  0  0  0999 V2000
  -13.9507  -41.4170  -10.1111 C   0  0  0  0  0  0  0  0  0  0  0  0
  -14.0439  -39.9508   -9.8467 C   0  0  0  0  0  0  0  0  0  0  0  0
  -12.6327  -39.4541   -9.6261 C   0  0  0  0  0  0  0  0  0  0  0  0
  -14.9852  -39.5737   -8.9292 N   0  0  0  0  0  0  0  0  0  0  0  0
  -14.9079  -38.9071   -7.7303 C   0  0  0  0  0  0  0  0  0  0  0  0
  -16.0427  -38.9701   -6.8068 C   0  0  1  0  0  0  0  0  0  0  0  0
  -16.4802  -37.8196   -6.1849 O   0  0  0  0  0  0  0  0  0  0  0  0
  -17.2616  -39.7436   -7.3416 C   0  0  2  0  0  0  0  0  0  0  0  0
  -18.1980  -40.0306   -6.2357 C   0  0  0  0  0  0  0  0  0  0  0  0
  -19.5652  -39.4493   -6.2931 C   0  0  0  0  0  0  0  0  0  0  0  0
  -19.9777  -39.0940   -4.9695 C   0  0  0  0  0  0  0  0  0  0  0  0
  -21.2010  -38.6013   -4.6531 C   0  0  0  0  0  0  0  0  0  0  0  0
  -22.0704  -38.4522   -5.7102 C   0  0  0  0  0  0  0  0  0  0  0  0
  -21.7291  -38.7823   -7.0335 C   0  0  0  0  0  0  0  0  0  0  0  0
  -20.4556  -39.2828   -7.3129 C   0  0  0  0  0  0  0  0  0  0  0  0
  -22.7780  -38.5453   -7.8841 O   0  0  0  0  0  0  0  0  0  0  0  0
  -23.6117  -39.1337   -8.7786 C   0  0  0  0  0  0  0  0  0  0  0  0
  -23.1444  -40.4852   -9.2198 C   0  0  0  0  0  0  0  0  0  0  0  0
  -23.9659  -41.6324   -8.6536 C   0  0  0  0  0  0  0  0  0  0  0  0
  -23.2430  -42.2824   -7.5274 C   0  0  0  0  0  0  0  0  0  0  0  0
  -22.2699  -43.2154   -7.8260 O   0  0  0  0  0  0  0  0  0  0  0  0
  -20.8977  -43.3435   -7.6045 C   0  0  0  0  0  0  0  0  0  0  0  0
  -20.6147  -44.4135   -6.7459 C   0  0  0  0  0  0  0  0  0  0  0  0
  -19.3694  -44.7307   -6.3748 N   0  0  0  0  0  0  0  0  0  0  0  0
  -18.4013  -43.9681   -6.8691 C   0  0  0  0  0  0  0  0  0  0  0  0
  -18.5989  -42.8675   -7.7448 C   0  0  0  0  0  0  0  0  0  0  0  0
  -19.8819  -42.5576   -8.1194 C   0  0  0  0  0  0  0  0  0  0  0  0
  -17.3159  -42.2229   -8.0476 C   0  0  0  0  0  0  0  0  0  0  0  0
  -16.3258  -43.0385   -8.2562 O   0  0  0  0  0  0  0  0  0  0  0  0
  -16.9209  -40.8702   -8.1620 N   0  0  0  0  0  0  0  0  0  0  0  0
  -14.4681  -39.2975  -11.1573 C   0  0  0  0  0  0  0  0  0  0  0  0
  -13.9933  -39.7722  -12.3539 C   0  0  0  0  0  0  0  0  0  0  0  0
  -14.4014  -39.1171  -13.5002 C   0  0  0  0  0  0  0  0  0  0  0  0
  -15.2517  -38.0285  -13.4488 C   0  0  0  0  0  0  0  0  0  0  0  0
  -15.7231  -37.5579  -12.2439 C   0  0  0  0  0  0  0  0  0  0  0  0
  -16.8947  -36.0631  -12.1206 Br  0  0  0  0  0  0  0  0  0  0  0  0
  -15.3077  -38.2226  -11.0948 C   0  0  0  0  0  0  0  0  0  0  0  0
  1  2  1  0
  2  3  1  0
  2  4  1  0
  4  5  1  0
  5  6  1  0
  6  7  1  6
  6  8  1  0
  8  9  1  1
  9 10  1  0
 10 11  2  0
 11 12  1  0
 12 13  2  0
 13 14  1  0
 14 15  2  0
 14 16  1  0
 16 17  1  0
 17 18  1  0
 18 19  1  0
 19 20  1  0
 20 21  1  0
 21 22  1  0
 22 23  2  0
 23 24  1  0
 24 25  2  0
 25 26  1  0
 26 27  2  0
 26 28  1  0
 28 29  2  0
 28 30  1  0
  2 31  1  0
 31 32  2  0
 32 33  1  0
 33 34  2  0
 34 35  1  0
 35 36  1  0
 35 37  2  0
 15 10  1  0
 27 22  1  0
 30  8  1  0
 37 31  1  0
M  END
$$$$
