
     RDKit          3D

 37 40  0  0  0  0  0  0  0  0999 V2000
  -12.4215  -38.7583   -8.9345 C   0  0  0  0  0  0  0  0  0  0  0  0
  -13.5944  -38.8262   -9.8553 C   0  0  0  0  0  0  0  0  0  0  0  0
  -13.3165  -37.8679  -10.9916 C   0  0  0  0  0  0  0  0  0  0  0  0
  -14.8215  -38.7411   -9.2576 N   0  0  0  0  0  0  0  0  0  0  0  0
  -16.0100  -38.1678   -9.6400 C   0  0  0  0  0  0  0  0  0  0  0  0
  -17.0535  -37.9556   -8.6346 C   0  0  1  0  0  0  0  0  0  0  0  0
  -17.7398  -36.7597   -8.6064 O   0  0  0  0  0  0  0  0  0  0  0  0
  -18.0602  -39.1127   -8.5021 C   0  0  2  0  0  0  0  0  0  0  0  0
  -18.6859  -39.0823   -7.1643 C   0  0  0  0  0  0  0  0  0  0  0  0
  -20.1547  -38.8720   -7.0711 C   0  0  0  0  0  0  0  0  0  0  0  0
  -20.4404  -38.0766   -5.9162 C   0  0  0  0  0  0  0  0  0  0  0  0
  -21.6889  -37.7551   -5.4953 C   0  0  0  0  0  0  0  0  0  0  0  0
  -22.7183  -38.2522   -6.2627 C   0  0  0  0  0  0  0  0  0  0  0  0
  -22.5071  -39.0397   -7.4080 C   0  0  0  0  0  0  0  0  0  0  0  0
  -21.2031  -39.3420   -7.8063 C   0  0  0  0  0  0  0  0  0  0  0  0
  -23.6992  -39.4073   -7.9770 O   0  0  0  0  0  0  0  0  0  0  0  0
  -24.4532  -40.4772   -8.3350 C   0  0  0  0  0  0  0  0  0  0  0  0
  -23.6855  -41.7617   -8.3487 C   0  0  0  0  0  0  0  0  0  0  0  0
  -24.0352  -42.6966   -7.2019 C   0  0  0  0  0  0  0  0  0  0  0  0
  -22.9864  -42.6411   -6.1482 C   0  0  0  0  0  0  0  0  0  0  0  0
  -21.8419  -43.3935   -6.3237 O   0  0  0  0  0  0  0  0  0  0  0  0
  -20.4755  -43.1334   -6.4405 C   0  0  0  0  0  0  0  0  0  0  0  0
  -19.7603  -43.6513   -5.3531 C   0  0  0  0  0  0  0  0  0  0  0  0
  -18.4346  -43.5196   -5.2329 N   0  0  0  0  0  0  0  0  0  0  0  0
  -17.8226  -42.8630   -6.2114 C   0  0  0  0  0  0  0  0  0  0  0  0
  -18.4689  -42.3081   -7.3478 C   0  0  0  0  0  0  0  0  0  0  0  0
  -19.8285  -42.4554   -7.4585 C   0  0  0  0  0  0  0  0  0  0  0  0
  -17.4953  -41.6097   -8.1951 C   0  0  0  0  0  0  0  0  0  0  0  0
  -16.3551  -42.2168   -8.3385 O   0  0  0  0  0  0  0  0  0  0  0  0
  -17.5372  -40.3870   -8.9036 N   0  0  0  0  0  0  0  0  0  0  0  0
  -13.5553  -40.2023  -10.5104 C   0  0  0  0  0  0  0  0  0  0  0  0
  -13.9109  -40.3536  -11.8270 C   0  0  0  0  0  0  0  0  0  0  0  0
  -13.8741  -41.6328  -12.3484 C   0  0  0  0  0  0  0  0  0  0  0  0
  -13.4962  -42.7179  -11.5800 C   0  0  0  0  0  0  0  0  0  0  0  0
  -13.1415  -42.5576  -10.2594 C   0  0  0  0  0  0  0  0  0  0  0  0
  -12.6147  -44.0194   -9.1602 Br  0  0  0  0  0  0  0  0  0  0  0  0
  -13.1812  -41.2671   -9.7420 C   0  0  0  0  0  0  0  0  0  0  0  0
  1  2  1  0
  2  3  1  0
  2  4  1  0
  4  5  1  0
  5  6  1  0
  6  7  1  6
  6  8  1  0
  8  9  1  1
  9 10  1  0
 10 11  2  0
 11 12  1  0
 12 13  2  0
 13 14  1  0
 14 15  2  0
 14 16  1  0
 16 17  1  0
 17 18  1  0
 18 19  1  0
 19 20  1  0
 20 21  1  0
 21 22  1  0
 22 23  2  0
 23 24  1  0
 24 25  2  0
 25 26  1  0
 26 27  2  0
 26 28  1  0
 28 29  2  0
 28 30  1  0
  2 31  1  0
 31 32  2  0
 32 33  1  0
 33 34  2  0
 34 35  1  0
 35 36  1  0
 35 37  2  0
 15 10  1  0
 27 22  1  0
 30  8  1  0
 37 31  1  0
M  END
$$$$
