
     RDKit          3D

 37 40  0  0  0  0  0  0  0  0999 V2000
  -16.5080  -35.8365   -8.5585 C   0  0  0  0  0  0  0  0  0  0  0  0
  -16.7817  -37.0054   -9.4457 C   0  0  0  0  0  0  0  0  0  0  0  0
  -18.2804  -37.0700   -9.6367 C   0  0  0  0  0  0  0  0  0  0  0  0
  -16.1488  -38.1685   -9.1040 N   0  0  0  0  0  0  0  0  0  0  0  0
  -15.9663  -38.8167   -7.9064 C   0  0  0  0  0  0  0  0  0  0  0  0
  -15.9797  -40.2808   -7.8806 C   0  0  1  0  0  0  0  0  0  0  0  0
  -15.0191  -40.9587   -7.1599 O   0  0  0  0  0  0  0  0  0  0  0  0
  -17.3566  -40.9038   -7.5875 C   0  0  2  0  0  0  0  0  0  0  0  0
  -17.6976  -41.8841   -8.6387 C   0  0  0  0  0  0  0  0  0  0  0  0
  -17.8768  -43.3082   -8.2514 C   0  0  0  0  0  0  0  0  0  0  0  0
  -17.3731  -44.1440   -9.2982 C   0  0  0  0  0  0  0  0  0  0  0  0
  -17.4440  -45.4983   -9.3004 C   0  0  0  0  0  0  0  0  0  0  0  0
  -18.0518  -46.0608   -8.2004 C   0  0  0  0  0  0  0  0  0  0  0  0
  -18.5681  -45.2979   -7.1383 C   0  0  0  0  0  0  0  0  0  0  0  0
  -18.4688  -43.9054   -7.1774 C   0  0  0  0  0  0  0  0  0  0  0  0
  -19.1246  -46.1051   -6.1799 O   0  0  0  0  0  0  0  0  0  0  0  0
  -20.2768  -46.3758   -5.5161 C   0  0  0  0  0  0  0  0  0  0  0  0
  -21.3106  -45.3046   -5.6682 C   0  0  0  0  0  0  0  0  0  0  0  0
  -22.4744  -45.6992   -6.5635 C   0  0  0  0  0  0  0  0  0  0  0  0
  -22.3293  -45.0784   -7.9077 C   0  0  0  0  0  0  0  0  0  0  0  0
  -22.7352  -43.7687   -8.0710 O   0  0  0  0  0  0  0  0  0  0  0  0
  -22.1283  -42.5658   -8.4354 C   0  0  0  0  0  0  0  0  0  0  0  0
  -22.6194  -42.0938   -9.6594 C   0  0  0  0  0  0  0  0  0  0  0  0
  -22.1832  -40.9623  -10.2238 N   0  0  0  0  0  0  0  0  0  0  0  0
  -21.2470  -40.2999   -9.5545 C   0  0  0  0  0  0  0  0  0  0  0  0
  -20.6956  -40.7050   -8.3099 C   0  0  0  0  0  0  0  0  0  0  0  0
  -21.1566  -41.8658   -7.7421 C   0  0  0  0  0  0  0  0  0  0  0  0
  -19.6506  -39.7653   -7.8876 C   0  0  0  0  0  0  0  0  0  0  0  0
  -19.9239  -38.5109   -8.0900 O   0  0  0  0  0  0  0  0  0  0  0  0
  -18.3795  -39.9414   -7.2942 N   0  0  0  0  0  0  0  0  0  0  0  0
  -16.2457  -36.6404  -10.8255 C   0  0  0  0  0  0  0  0  0  0  0  0
  -17.0842  -36.6186  -11.9113 C   0  0  0  0  0  0  0  0  0  0  0  0
  -16.5255  -36.3019  -13.1349 C   0  0  0  0  0  0  0  0  0  0  0  0
  -15.1787  -36.0188  -13.2650 C   0  0  0  0  0  0  0  0  0  0  0  0
  -14.3439  -36.0437  -12.1704 C   0  0  0  0  0  0  0  0  0  0  0  0
  -12.4836  -35.6622  -12.2977 Br  0  0  0  0  0  0  0  0  0  0  0  0
  -14.9139  -36.3634  -10.9426 C   0  0  0  0  0  0  0  0  0  0  0  0
  1  2  1  0
  2  3  1  0
  2  4  1  0
  4  5  1  0
  5  6  1  0
  6  7  1  1
  6  8  1  0
  8  9  1  6
  9 10  1  0
 10 11  2  0
 11 12  1  0
 12 13  2  0
 13 14  1  0
 14 15  2  0
 14 16  1  0
 16 17  1  0
 17 18  1  0
 18 19  1  0
 19 20  1  0
 20 21  1  0
 21 22  1  0
 22 23  2  0
 23 24  1  0
 24 25  2  0
 25 26  1  0
 26 27  2  0
 26 28  1  0
 28 29  2  0
 28 30  1  0
  2 31  1  0
 31 32  2  0
 32 33  1  0
 33 34  2  0
 34 35  1  0
 35 36  1  0
 35 37  2  0
 15 10  1  0
 27 22  1  0
 30  8  1  0
 37 31  1  0
M  END
$$$$
