
     RDKit          3D

 37 40  0  0  0  0  0  0  0  0999 V2000
  -14.5211  -41.2300   -8.9944 C   0  0  0  0  0  0  0  0  0  0  0  0
  -13.6030  -40.0584   -8.8826 C   0  0  0  0  0  0  0  0  0  0  0  0
  -12.2742  -40.5874   -8.3914 C   0  0  0  0  0  0  0  0  0  0  0  0
  -14.1134  -38.9663   -8.2368 N   0  0  0  0  0  0  0  0  0  0  0  0
  -15.3712  -38.4167   -8.1805 C   0  0  0  0  0  0  0  0  0  0  0  0
  -16.3786  -39.0324   -7.3141 C   0  0  1  0  0  0  0  0  0  0  0  0
  -16.8855  -38.3219   -6.2464 O   0  0  0  0  0  0  0  0  0  0  0  0
  -17.5421  -39.7066   -8.0634 C   0  0  2  0  0  0  0  0  0  0  0  0
  -18.4586  -40.3447   -7.0964 C   0  0  0  0  0  0  0  0  0  0  0  0
  -19.8617  -39.8589   -7.0198 C   0  0  0  0  0  0  0  0  0  0  0  0
  -20.2988  -39.9065   -5.6579 C   0  0  0  0  0  0  0  0  0  0  0  0
  -21.5528  -39.5987   -5.2431 C   0  0  0  0  0  0  0  0  0  0  0  0
  -22.4289  -39.2222   -6.2363 C   0  0  0  0  0  0  0  0  0  0  0  0
  -22.0644  -39.1551   -7.5924 C   0  0  0  0  0  0  0  0  0  0  0  0
  -20.7599  -39.4773   -7.9728 C   0  0  0  0  0  0  0  0  0  0  0  0
  -23.1258  -38.7622   -8.3665 O   0  0  0  0  0  0  0  0  0  0  0  0
  -23.9169  -39.1357   -9.4038 C   0  0  0  0  0  0  0  0  0  0  0  0
  -23.3594  -40.2821  -10.1878 C   0  0  0  0  0  0  0  0  0  0  0  0
  -24.1028  -41.5906   -9.9723 C   0  0  0  0  0  0  0  0  0  0  0  0
  -23.3395  -42.4762   -9.0523 C   0  0  0  0  0  0  0  0  0  0  0  0
  -22.3055  -43.2275   -9.5750 O   0  0  0  0  0  0  0  0  0  0  0  0
  -20.9282  -43.3229   -9.3700 C   0  0  0  0  0  0  0  0  0  0  0  0
  -20.5751  -44.5665   -8.8305 C   0  0  0  0  0  0  0  0  0  0  0  0
  -19.3118  -44.8926   -8.5357 N   0  0  0  0  0  0  0  0  0  0  0  0
  -18.3964  -43.9633   -8.7840 C   0  0  0  0  0  0  0  0  0  0  0  0
  -18.6663  -42.6802   -9.3298 C   0  0  0  0  0  0  0  0  0  0  0  0
  -19.9667  -42.3626   -9.6308 C   0  0  0  0  0  0  0  0  0  0  0  0
  -17.4290  -41.8964   -9.4201 C   0  0  0  0  0  0  0  0  0  0  0  0
  -16.3861  -42.5586   -9.8239 O   0  0  0  0  0  0  0  0  0  0  0  0
  -17.1255  -40.5416   -9.1532 N   0  0  0  0  0  0  0  0  0  0  0  0
  -13.3155  -39.5924  -10.3055 C   0  0  0  0  0  0  0  0  0  0  0  0
  -12.5029  -38.5097  -10.5294 C   0  0  0  0  0  0  0  0  0  0  0  0
  -12.3049  -38.1293  -11.8431 C   0  0  0  0  0  0  0  0  0  0  0  0
  -12.8989  -38.8072  -12.8911 C   0  0  0  0  0  0  0  0  0  0  0  0
  -13.7136  -39.8923  -12.6578 C   0  0  0  0  0  0  0  0  0  0  0  0
  -14.5543  -40.8580  -14.0660 Br  0  0  0  0  0  0  0  0  0  0  0  0
  -13.9078  -40.2688  -11.3330 C   0  0  0  0  0  0  0  0  0  0  0  0
  1  2  1  0
  2  3  1  0
  2  4  1  0
  4  5  1  0
  5  6  1  0
  6  7  1  1
  6  8  1  0
  8  9  1  1
  9 10  1  0
 10 11  2  0
 11 12  1  0
 12 13  2  0
 13 14  1  0
 14 15  2  0
 14 16  1  0
 16 17  1  0
 17 18  1  0
 18 19  1  0
 19 20  1  0
 20 21  1  0
 21 22  1  0
 22 23  2  0
 23 24  1  0
 24 25  2  0
 25 26  1  0
 26 27  2  0
 26 28  1  0
 28 29  2  0
 28 30  1  0
  2 31  1  0
 31 32  2  0
 32 33  1  0
 33 34  2  0
 34 35  1  0
 35 36  1  0
 35 37  2  0
 15 10  1  0
 27 22  1  0
 30  8  1  0
 37 31  1  0
M  END
$$$$
