
     RDKit          3D

 37 40  0  0  0  0  0  0  0  0999 V2000
  -14.0385  -40.8794  -10.0835 C   0  0  0  0  0  0  0  0  0  0  0  0
  -13.6617  -39.4573   -9.8307 C   0  0  0  0  0  0  0  0  0  0  0  0
  -12.1679  -39.3548  -10.0426 C   0  0  0  0  0  0  0  0  0  0  0  0
  -14.1653  -38.9065   -8.6848 N   0  0  0  0  0  0  0  0  0  0  0  0
  -14.9282  -39.4132   -7.6607 C   0  0  0  0  0  0  0  0  0  0  0  0
  -16.1876  -38.7500   -7.3164 C   0  0  1  0  0  0  0  0  0  0  0  0
  -16.3966  -37.4421   -7.7006 O   0  0  0  0  0  0  0  0  0  0  0  0
  -17.4511  -39.5713   -7.6312 C   0  0  2  0  0  0  0  0  0  0  0  0
  -18.3091  -39.6513   -6.4313 C   0  0  0  0  0  0  0  0  0  0  0  0
  -19.6697  -39.0550   -6.4893 C   0  0  0  0  0  0  0  0  0  0  0  0
  -19.9817  -38.4785   -5.2171 C   0  0  0  0  0  0  0  0  0  0  0  0
  -21.1730  -37.9117   -4.9027 C   0  0  0  0  0  0  0  0  0  0  0  0
  -22.1142  -37.9168   -5.9075 C   0  0  0  0  0  0  0  0  0  0  0  0
  -21.8729  -38.4667   -7.1787 C   0  0  0  0  0  0  0  0  0  0  0  0
  -20.6290  -39.0363   -7.4589 C   0  0  0  0  0  0  0  0  0  0  0  0
  -22.9773  -38.3470   -7.9824 O   0  0  0  0  0  0  0  0  0  0  0  0
  -23.8802  -39.0537   -8.7082 C   0  0  0  0  0  0  0  0  0  0  0  0
  -23.4622  -40.4698   -8.9520 C   0  0  0  0  0  0  0  0  0  0  0  0
  -24.2547  -41.4892   -8.1493 C   0  0  0  0  0  0  0  0  0  0  0  0
  -23.4608  -41.9635   -6.9840 C   0  0  0  0  0  0  0  0  0  0  0  0
  -22.5230  -42.9556   -7.1912 O   0  0  0  0  0  0  0  0  0  0  0  0
  -21.1401  -43.0783   -7.0466 C   0  0  0  0  0  0  0  0  0  0  0  0
  -20.8091  -44.0000   -6.0451 C   0  0  0  0  0  0  0  0  0  0  0  0
  -19.5443  -44.2819   -5.7134 N   0  0  0  0  0  0  0  0  0  0  0  0
  -18.6050  -43.6335   -6.3921 C   0  0  0  0  0  0  0  0  0  0  0  0
  -18.8517  -42.6864   -7.4213 C   0  0  0  0  0  0  0  0  0  0  0  0
  -20.1544  -42.4115   -7.7527 C   0  0  0  0  0  0  0  0  0  0  0  0
  -17.5860  -42.1306   -7.9139 C   0  0  0  0  0  0  0  0  0  0  0  0
  -16.6234  -42.9927   -8.0530 O   0  0  0  0  0  0  0  0  0  0  0  0
  -17.1839  -40.8246   -8.2763 N   0  0  0  0  0  0  0  0  0  0  0  0
  -14.2568  -38.6392  -10.9713 C   0  0  0  0  0  0  0  0  0  0  0  0
  -14.8350  -39.2665  -12.0460 C   0  0  0  0  0  0  0  0  0  0  0  0
  -15.3331  -38.4628  -13.0537 C   0  0  0  0  0  0  0  0  0  0  0  0
  -15.2540  -37.0843  -12.9872 C   0  0  0  0  0  0  0  0  0  0  0  0
  -14.6714  -36.4627  -11.9056 C   0  0  0  0  0  0  0  0  0  0  0  0
  -14.5379  -34.5692  -11.7674 Br  0  0  0  0  0  0  0  0  0  0  0  0
  -14.1725  -37.2786  -10.8955 C   0  0  0  0  0  0  0  0  0  0  0  0
  1  2  1  0
  2  3  1  0
  2  4  1  0
  4  5  1  0
  5  6  1  0
  6  7  1  6
  6  8  1  0
  8  9  1  1
  9 10  1  0
 10 11  2  0
 11 12  1  0
 12 13  2  0
 13 14  1  0
 14 15  2  0
 14 16  1  0
 16 17  1  0
 17 18  1  0
 18 19  1  0
 19 20  1  0
 20 21  1  0
 21 22  1  0
 22 23  2  0
 23 24  1  0
 24 25  2  0
 25 26  1  0
 26 27  2  0
 26 28  1  0
 28 29  2  0
 28 30  1  0
  2 31  1  0
 31 32  2  0
 32 33  1  0
 33 34  2  0
 34 35  1  0
 35 36  1  0
 35 37  2  0
 15 10  1  0
 27 22  1  0
 30  8  1  0
 37 31  1  0
M  END
$$$$
