
     RDKit          3D

 37 40  0  0  0  0  0  0  0  0999 V2000
  -20.3367  -39.5306   -7.9977 C   0  0  0  0  0  0  0  0  0  0  0  0
  -20.7379  -39.4467   -6.5623 C   0  0  0  0  0  0  0  0  0  0  0  0
  -21.9309  -38.5201   -6.4935 C   0  0  0  0  0  0  0  0  0  0  0  0
  -19.7217  -39.2169   -5.6765 N   0  0  0  0  0  0  0  0  0  0  0  0
  -18.3595  -39.3783   -5.7538 C   0  0  0  0  0  0  0  0  0  0  0  0
  -17.5973  -38.5514   -6.6918 C   0  0  1  0  0  0  0  0  0  0  0  0
  -16.7965  -37.5369   -6.2110 O   0  0  0  0  0  0  0  0  0  0  0  0
  -16.8154  -39.3439   -7.7551 C   0  0  2  0  0  0  0  0  0  0  0  0
  -16.8829  -38.6425   -9.0535 C   0  0  0  0  0  0  0  0  0  0  0  0
  -15.6187  -38.1519   -9.6629 C   0  0  0  0  0  0  0  0  0  0  0  0
  -15.8708  -36.9080  -10.3242 C   0  0  0  0  0  0  0  0  0  0  0  0
  -14.9493  -36.2206  -11.0436 C   0  0  0  0  0  0  0  0  0  0  0  0
  -13.7022  -36.7997  -11.1149 C   0  0  0  0  0  0  0  0  0  0  0  0
  -13.3884  -38.0191  -10.4896 C   0  0  0  0  0  0  0  0  0  0  0  0
  -14.3687  -38.6900   -9.7553 C   0  0  0  0  0  0  0  0  0  0  0  0
  -12.0844  -38.3705  -10.7268 O   0  0  0  0  0  0  0  0  0  0  0  0
  -11.2945  -39.3368  -11.2593 C   0  0  0  0  0  0  0  0  0  0  0  0
  -12.0191  -40.6234  -11.5025 C   0  0  0  0  0  0  0  0  0  0  0  0
  -12.2809  -40.9106  -12.9724 C   0  0  0  0  0  0  0  0  0  0  0  0
  -13.6962  -40.6076  -13.3167 C   0  0  0  0  0  0  0  0  0  0  0  0
  -14.6572  -41.5565  -13.0294 O   0  0  0  0  0  0  0  0  0  0  0  0
  -15.8008  -41.6201  -12.2316 C   0  0  0  0  0  0  0  0  0  0  0  0
  -16.9599  -41.7531  -13.0069 C   0  0  0  0  0  0  0  0  0  0  0  0
  -18.1829  -41.8241  -12.4698 N   0  0  0  0  0  0  0  0  0  0  0  0
  -18.2426  -41.7610  -11.1448 C   0  0  0  0  0  0  0  0  0  0  0  0
  -17.1201  -41.6282  -10.2848 C   0  0  0  0  0  0  0  0  0  0  0  0
  -15.8722  -41.5609  -10.8510 C   0  0  0  0  0  0  0  0  0  0  0  0
  -17.5589  -41.5379   -8.8874 C   0  0  0  0  0  0  0  0  0  0  0  0
  -18.5252  -42.3434   -8.5608 O   0  0  0  0  0  0  0  0  0  0  0  0
  -17.1429  -40.7401   -7.7969 N   0  0  0  0  0  0  0  0  0  0  0  0
  -21.3041  -40.8116   -6.1874 C   0  0  0  0  0  0  0  0  0  0  0  0
  -21.0600  -41.9047   -6.9800 C   0  0  0  0  0  0  0  0  0  0  0  0
  -21.6239  -43.1052   -6.5918 C   0  0  0  0  0  0  0  0  0  0  0  0
  -22.4024  -43.2057   -5.4540 C   0  0  0  0  0  0  0  0  0  0  0  0
  -22.6431  -42.1038   -4.6645 C   0  0  0  0  0  0  0  0  0  0  0  0
  -23.7081  -42.1906   -3.0894 Br  0  0  0  0  0  0  0  0  0  0  0  0
  -22.0722  -40.8993   -5.0619 C   0  0  0  0  0  0  0  0  0  0  0  0
  1  2  1  0
  2  3  1  0
  2  4  1  0
  4  5  1  0
  5  6  1  0
  6  7  1  1
  6  8  1  0
  8  9  1  6
  9 10  1  0
 10 11  2  0
 11 12  1  0
 12 13  2  0
 13 14  1  0
 14 15  2  0
 14 16  1  0
 16 17  1  0
 17 18  1  0
 18 19  1  0
 19 20  1  0
 20 21  1  0
 21 22  1  0
 22 23  2  0
 23 24  1  0
 24 25  2  0
 25 26  1  0
 26 27  2  0
 26 28  1  0
 28 29  2  0
 28 30  1  0
  2 31  1  0
 31 32  2  0
 32 33  1  0
 33 34  2  0
 34 35  1  0
 35 36  1  0
 35 37  2  0
 15 10  1  0
 27 22  1  0
 30  8  1  0
 37 31  1  0
M  END
$$$$
