
     RDKit          3D

 37 40  0  0  0  0  0  0  0  0999 V2000
  -13.7876  -41.3801   -9.6926 C   0  0  0  0  0  0  0  0  0  0  0  0
  -13.2004  -40.0151   -9.5507 C   0  0  0  0  0  0  0  0  0  0  0  0
  -11.7111  -40.1957   -9.3608 C   0  0  0  0  0  0  0  0  0  0  0  0
  -13.8415  -39.1833   -8.6747 N   0  0  0  0  0  0  0  0  0  0  0  0
  -15.1206  -38.6845   -8.6248 C   0  0  0  0  0  0  0  0  0  0  0  0
  -16.0450  -39.1968   -7.6111 C   0  0  1  0  0  0  0  0  0  0  0  0
  -16.4186  -38.3881   -6.5584 O   0  0  0  0  0  0  0  0  0  0  0  0
  -17.2974  -39.8897   -8.1779 C   0  0  2  0  0  0  0  0  0  0  0  0
  -18.1552  -40.3592   -7.0706 C   0  0  0  0  0  0  0  0  0  0  0  0
  -19.5234  -39.7920   -6.9418 C   0  0  0  0  0  0  0  0  0  0  0  0
  -19.8439  -39.6558   -5.5537 C   0  0  0  0  0  0  0  0  0  0  0  0
  -21.0427  -39.2336   -5.0806 C   0  0  0  0  0  0  0  0  0  0  0  0
  -21.9831  -38.9288   -6.0390 C   0  0  0  0  0  0  0  0  0  0  0  0
  -21.7336  -39.0410   -7.4181 C   0  0  0  0  0  0  0  0  0  0  0  0
  -20.4821  -39.4762   -7.8593 C   0  0  0  0  0  0  0  0  0  0  0  0
  -22.8388  -38.6843   -8.1469 O   0  0  0  0  0  0  0  0  0  0  0  0
  -23.7318  -39.1331   -9.0648 C   0  0  0  0  0  0  0  0  0  0  0  0
  -23.2952  -40.3921   -9.7459 C   0  0  0  0  0  0  0  0  0  0  0  0
  -24.0750  -41.6239   -9.3147 C   0  0  0  0  0  0  0  0  0  0  0  0
  -23.2759  -42.4359   -8.3579 C   0  0  0  0  0  0  0  0  0  0  0  0
  -22.3251  -43.2985   -8.8664 O   0  0  0  0  0  0  0  0  0  0  0  0
  -20.9409  -43.4442   -8.7618 C   0  0  0  0  0  0  0  0  0  0  0  0
  -20.5987  -44.6334   -8.1055 C   0  0  0  0  0  0  0  0  0  0  0  0
  -19.3306  -44.9911   -7.8749 N   0  0  0  0  0  0  0  0  0  0  0  0
  -18.3993  -44.1486   -8.3064 C   0  0  0  0  0  0  0  0  0  0  0  0
  -18.6575  -42.9255   -8.9806 C   0  0  0  0  0  0  0  0  0  0  0  0
  -19.9634  -42.5749   -9.2131 C   0  0  0  0  0  0  0  0  0  0  0  0
  -17.3987  -42.2263   -9.2636 C   0  0  0  0  0  0  0  0  0  0  0  0
  -16.4249  -42.9871   -9.6660 O   0  0  0  0  0  0  0  0  0  0  0  0
  -17.0134  -40.8681   -9.1881 N   0  0  0  0  0  0  0  0  0  0  0  0
  -13.3234  -39.3437  -10.9140 C   0  0  0  0  0  0  0  0  0  0  0  0
  -13.6283  -40.0858  -12.0271 C   0  0  0  0  0  0  0  0  0  0  0  0
  -13.7008  -39.4152  -13.2331 C   0  0  0  0  0  0  0  0  0  0  0  0
  -13.4759  -38.0541  -13.3200 C   0  0  0  0  0  0  0  0  0  0  0  0
  -13.1698  -37.3167  -12.1983 C   0  0  0  0  0  0  0  0  0  0  0  0
  -12.8512  -35.4416  -12.2660 Br  0  0  0  0  0  0  0  0  0  0  0  0
  -13.0986  -37.9990  -10.9884 C   0  0  0  0  0  0  0  0  0  0  0  0
  1  2  1  0
  2  3  1  0
  2  4  1  0
  4  5  1  0
  5  6  1  0
  6  7  1  1
  6  8  1  0
  8  9  1  1
  9 10  1  0
 10 11  2  0
 11 12  1  0
 12 13  2  0
 13 14  1  0
 14 15  2  0
 14 16  1  0
 16 17  1  0
 17 18  1  0
 18 19  1  0
 19 20  1  0
 20 21  1  0
 21 22  1  0
 22 23  2  0
 23 24  1  0
 24 25  2  0
 25 26  1  0
 26 27  2  0
 26 28  1  0
 28 29  2  0
 28 30  1  0
  2 31  1  0
 31 32  2  0
 32 33  1  0
 33 34  2  0
 34 35  1  0
 35 36  1  0
 35 37  2  0
 15 10  1  0
 27 22  1  0
 30  8  1  0
 37 31  1  0
M  END
$$$$
