
     RDKit          3D

 37 40  0  0  0  0  0  0  0  0999 V2000
  -13.5975  -41.0432  -10.5145 C   0  0  0  0  0  0  0  0  0  0  0  0
  -13.8795  -40.0086   -9.4760 C   0  0  0  0  0  0  0  0  0  0  0  0
  -12.7148  -40.0260   -8.5117 C   0  0  0  0  0  0  0  0  0  0  0  0
  -15.1346  -40.0411   -8.9341 N   0  0  0  0  0  0  0  0  0  0  0  0
  -15.9562  -39.0678   -8.4190 C   0  0  0  0  0  0  0  0  0  0  0  0
  -17.2549  -38.8254   -9.0508 C   0  0  1  0  0  0  0  0  0  0  0  0
  -17.3232  -38.6244  -10.4134 O   0  0  0  0  0  0  0  0  0  0  0  0
  -18.3633  -39.8094   -8.6346 C   0  0  2  0  0  0  0  0  0  0  0  0
  -19.0450  -39.3131   -7.4217 C   0  0  0  0  0  0  0  0  0  0  0  0
  -20.4928  -38.9850   -7.5041 C   0  0  0  0  0  0  0  0  0  0  0  0
  -20.7613  -37.8463   -6.6798 C   0  0  0  0  0  0  0  0  0  0  0  0
  -21.9953  -37.3240   -6.4708 C   0  0  0  0  0  0  0  0  0  0  0  0
  -23.0275  -37.9681   -7.1153 C   0  0  0  0  0  0  0  0  0  0  0  0
  -22.8328  -39.0913   -7.9382 C   0  0  0  0  0  0  0  0  0  0  0  0
  -21.5430  -39.5921   -8.1278 C   0  0  0  0  0  0  0  0  0  0  0  0
  -24.0248  -39.5390   -8.4468 O   0  0  0  0  0  0  0  0  0  0  0  0
  -24.8515  -40.6135   -8.5046 C   0  0  0  0  0  0  0  0  0  0  0  0
  -24.1984  -41.8847   -8.0606 C   0  0  0  0  0  0  0  0  0  0  0  0
  -24.6805  -42.3806   -6.7067 C   0  0  0  0  0  0  0  0  0  0  0  0
  -23.6806  -42.0643   -5.6515 C   0  0  0  0  0  0  0  0  0  0  0  0
  -22.5989  -42.9092   -5.5006 O   0  0  0  0  0  0  0  0  0  0  0  0
  -21.2112  -42.7929   -5.5952 C   0  0  0  0  0  0  0  0  0  0  0  0
  -20.5946  -42.9857   -4.3523 C   0  0  0  0  0  0  0  0  0  0  0  0
  -19.2695  -42.9127   -4.1852 N   0  0  0  0  0  0  0  0  0  0  0  0
  -18.5583  -42.6442   -5.2739 C   0  0  0  0  0  0  0  0  0  0  0  0
  -19.1008  -42.4368   -6.5700 C   0  0  0  0  0  0  0  0  0  0  0  0
  -20.4614  -42.5191   -6.7256 C   0  0  0  0  0  0  0  0  0  0  0  0
  -18.0321  -42.1116   -7.5216 C   0  0  0  0  0  0  0  0  0  0  0  0
  -16.9435  -42.8086   -7.3862 O   0  0  0  0  0  0  0  0  0  0  0  0
  -17.9350  -41.1775   -8.5785 N   0  0  0  0  0  0  0  0  0  0  0  0
  -13.7698  -38.6547  -10.1684 C   0  0  0  0  0  0  0  0  0  0  0  0
  -12.7375  -37.8031   -9.8657 C   0  0  0  0  0  0  0  0  0  0  0  0
  -12.7139  -36.5832  -10.5145 C   0  0  0  0  0  0  0  0  0  0  0  0
  -13.6874  -36.2306  -11.4303 C   0  0  0  0  0  0  0  0  0  0  0  0
  -14.7205  -37.0908  -11.7278 C   0  0  0  0  0  0  0  0  0  0  0  0
  -16.0846  -36.6517  -12.9804 Br  0  0  0  0  0  0  0  0  0  0  0  0
  -14.7371  -38.3165  -11.0706 C   0  0  0  0  0  0  0  0  0  0  0  0
  1  2  1  0
  2  3  1  0
  2  4  1  0
  4  5  1  0
  5  6  1  0
  6  7  1  6
  6  8  1  0
  8  9  1  1
  9 10  1  0
 10 11  2  0
 11 12  1  0
 12 13  2  0
 13 14  1  0
 14 15  2  0
 14 16  1  0
 16 17  1  0
 17 18  1  0
 18 19  1  0
 19 20  1  0
 20 21  1  0
 21 22  1  0
 22 23  2  0
 23 24  1  0
 24 25  2  0
 25 26  1  0
 26 27  2  0
 26 28  1  0
 28 29  2  0
 28 30  1  0
  2 31  1  0
 31 32  2  0
 32 33  1  0
 33 34  2  0
 34 35  1  0
 35 36  1  0
 35 37  2  0
 15 10  1  0
 27 22  1  0
 30  8  1  0
 37 31  1  0
M  END
$$$$
