
     RDKit          3D

 37 40  0  0  0  0  0  0  0  0999 V2000
  -12.4359  -38.1399   -9.4046 C   0  0  0  0  0  0  0  0  0  0  0  0
  -13.7987  -38.6135   -9.7877 C   0  0  0  0  0  0  0  0  0  0  0  0
  -14.1767  -37.8826  -11.0563 C   0  0  0  0  0  0  0  0  0  0  0  0
  -14.7242  -38.6291   -8.7810 N   0  0  0  0  0  0  0  0  0  0  0  0
  -15.9640  -38.0537   -8.6417 C   0  0  0  0  0  0  0  0  0  0  0  0
  -16.8458  -38.5150   -7.5674 C   0  0  1  0  0  0  0  0  0  0  0  0
  -17.3324  -37.6090   -6.6486 O   0  0  0  0  0  0  0  0  0  0  0  0
  -17.9981  -39.4247   -8.0307 C   0  0  2  0  0  0  0  0  0  0  0  0
  -18.6945  -39.9892   -6.8565 C   0  0  0  0  0  0  0  0  0  0  0  0
  -20.1274  -39.6510   -6.6496 C   0  0  0  0  0  0  0  0  0  0  0  0
  -20.3786  -39.5199   -5.2468 C   0  0  0  0  0  0  0  0  0  0  0  0
  -21.5990  -39.2844   -4.7043 C   0  0  0  0  0  0  0  0  0  0  0  0
  -22.6351  -39.1733   -5.6041 C   0  0  0  0  0  0  0  0  0  0  0  0
  -22.4573  -39.2922   -6.9937 C   0  0  0  0  0  0  0  0  0  0  0  0
  -21.1808  -39.5307   -7.5077 C   0  0  0  0  0  0  0  0  0  0  0  0
  -23.6499  -39.1488   -7.6547 O   0  0  0  0  0  0  0  0  0  0  0  0
  -24.5113  -39.7713   -8.4985 C   0  0  0  0  0  0  0  0  0  0  0  0
  -23.9143  -40.9647   -9.1761 C   0  0  0  0  0  0  0  0  0  0  0  0
  -24.4491  -42.2919   -8.6625 C   0  0  0  0  0  0  0  0  0  0  0  0
  -23.4674  -42.9263   -7.7420 C   0  0  0  0  0  0  0  0  0  0  0  0
  -22.4198  -43.6380   -8.2921 O   0  0  0  0  0  0  0  0  0  0  0  0
  -21.0268  -43.5497   -8.2779 C   0  0  0  0  0  0  0  0  0  0  0  0
  -20.4506  -44.6419   -7.6167 C   0  0  0  0  0  0  0  0  0  0  0  0
  -19.1287  -44.7772   -7.4637 N   0  0  0  0  0  0  0  0  0  0  0  0
  -18.3799  -43.8088   -7.9781 C   0  0  0  0  0  0  0  0  0  0  0  0
  -18.8802  -42.6699   -8.6635 C   0  0  0  0  0  0  0  0  0  0  0  0
  -20.2383  -42.5479   -8.8158 C   0  0  0  0  0  0  0  0  0  0  0  0
  -17.7760  -41.7834   -9.0485 C   0  0  0  0  0  0  0  0  0  0  0  0
  -16.7160  -42.3872   -9.4968 O   0  0  0  0  0  0  0  0  0  0  0  0
  -17.6187  -40.3784   -9.0331 N   0  0  0  0  0  0  0  0  0  0  0  0
  -13.6485  -40.0662  -10.2252 C   0  0  0  0  0  0  0  0  0  0  0  0
  -13.8234  -40.4155  -11.5405 C   0  0  0  0  0  0  0  0  0  0  0  0
  -13.6950  -41.7535  -11.8613 C   0  0  0  0  0  0  0  0  0  0  0  0
  -13.4033  -42.7041  -10.9011 C   0  0  0  0  0  0  0  0  0  0  0  0
  -13.2300  -42.3453   -9.5833 C   0  0  0  0  0  0  0  0  0  0  0  0
  -12.8280  -43.6161   -8.2246 Br  0  0  0  0  0  0  0  0  0  0  0  0
  -13.3610  -40.9969   -9.2685 C   0  0  0  0  0  0  0  0  0  0  0  0
  1  2  1  0
  2  3  1  0
  2  4  1  0
  4  5  1  0
  5  6  1  0
  6  7  1  6
  6  8  1  0
  8  9  1  1
  9 10  1  0
 10 11  2  0
 11 12  1  0
 12 13  2  0
 13 14  1  0
 14 15  2  0
 14 16  1  0
 16 17  1  0
 17 18  1  0
 18 19  1  0
 19 20  1  0
 20 21  1  0
 21 22  1  0
 22 23  2  0
 23 24  1  0
 24 25  2  0
 25 26  1  0
 26 27  2  0
 26 28  1  0
 28 29  2  0
 28 30  1  0
  2 31  1  0
 31 32  2  0
 32 33  1  0
 33 34  2  0
 34 35  1  0
 35 36  1  0
 35 37  2  0
 15 10  1  0
 27 22  1  0
 30  8  1  0
 37 31  1  0
M  END
$$$$
