
     RDKit          3D

 37 40  0  0  0  0  0  0  0  0999 V2000
  -13.8494  -39.9093  -10.8422 C   0  0  0  0  0  0  0  0  0  0  0  0
  -14.3262  -38.6617  -10.1755 C   0  0  0  0  0  0  0  0  0  0  0  0
  -13.0965  -37.8571   -9.8191 C   0  0  0  0  0  0  0  0  0  0  0  0
  -15.2602  -38.8365   -9.1919 N   0  0  0  0  0  0  0  0  0  0  0  0
  -15.7452  -38.0118   -8.2060 C   0  0  0  0  0  0  0  0  0  0  0  0
  -16.4792  -38.6001   -7.0835 C   0  0  1  0  0  0  0  0  0  0  0  0
  -16.8245  -37.8111   -6.0064 O   0  0  0  0  0  0  0  0  0  0  0  0
  -17.6956  -39.4517   -7.4896 C   0  0  2  0  0  0  0  0  0  0  0  0
  -18.1287  -40.2837   -6.3483 C   0  0  0  0  0  0  0  0  0  0  0  0
  -19.4899  -40.0707   -5.7896 C   0  0  0  0  0  0  0  0  0  0  0  0
  -19.4453  -40.2479   -4.3702 C   0  0  0  0  0  0  0  0  0  0  0  0
  -20.5282  -40.1941   -3.5555 C   0  0  0  0  0  0  0  0  0  0  0  0
  -21.7294  -39.9518   -4.1832 C   0  0  0  0  0  0  0  0  0  0  0  0
  -21.8431  -39.7691   -5.5726 C   0  0  0  0  0  0  0  0  0  0  0  0
  -20.6995  -39.8289   -6.3719 C   0  0  0  0  0  0  0  0  0  0  0  0
  -23.1481  -39.5532   -5.9336 O   0  0  0  0  0  0  0  0  0  0  0  0
  -24.1612  -40.0299   -6.7003 C   0  0  0  0  0  0  0  0  0  0  0  0
  -23.7089  -41.0233   -7.7240 C   0  0  0  0  0  0  0  0  0  0  0  0
  -24.1154  -42.4543   -7.4102 C   0  0  0  0  0  0  0  0  0  0  0  0
  -22.9592  -43.2149   -6.8642 C   0  0  0  0  0  0  0  0  0  0  0  0
  -22.0433  -43.7412   -7.7535 O   0  0  0  0  0  0  0  0  0  0  0  0
  -20.6785  -43.5858   -8.0013 C   0  0  0  0  0  0  0  0  0  0  0  0
  -19.9693  -44.7605   -7.7197 C   0  0  0  0  0  0  0  0  0  0  0  0
  -18.6434  -44.8561   -7.8686 N   0  0  0  0  0  0  0  0  0  0  0  0
  -18.0251  -43.7643   -8.3031 C   0  0  0  0  0  0  0  0  0  0  0  0
  -18.6655  -42.5350   -8.6132 C   0  0  0  0  0  0  0  0  0  0  0  0
  -20.0264  -42.4545   -8.4592 C   0  0  0  0  0  0  0  0  0  0  0  0
  -17.6720  -41.5318   -9.0131 C   0  0  0  0  0  0  0  0  0  0  0  0
  -16.7237  -41.9733   -9.7845 O   0  0  0  0  0  0  0  0  0  0  0  0
  -17.5255  -40.1547   -8.7287 N   0  0  0  0  0  0  0  0  0  0  0  0
  -15.0173  -37.8299  -11.2501 C   0  0  0  0  0  0  0  0  0  0  0  0
  -15.2988  -38.3775  -12.4762 C   0  0  0  0  0  0  0  0  0  0  0  0
  -15.9052  -37.5587  -13.4097 C   0  0  0  0  0  0  0  0  0  0  0  0
  -16.2167  -36.2423  -13.1253 C   0  0  0  0  0  0  0  0  0  0  0  0
  -15.9301  -35.7002  -11.8926 C   0  0  0  0  0  0  0  0  0  0  0  0
  -16.3384  -33.8940  -11.4528 Br  0  0  0  0  0  0  0  0  0  0  0  0
  -15.3197  -36.5307  -10.9586 C   0  0  0  0  0  0  0  0  0  0  0  0
  1  2  1  0
  2  3  1  0
  2  4  1  0
  4  5  1  0
  5  6  1  0
  6  7  1  1
  6  8  1  0
  8  9  1  1
  9 10  1  0
 10 11  2  0
 11 12  1  0
 12 13  2  0
 13 14  1  0
 14 15  2  0
 14 16  1  0
 16 17  1  0
 17 18  1  0
 18 19  1  0
 19 20  1  0
 20 21  1  0
 21 22  1  0
 22 23  2  0
 23 24  1  0
 24 25  2  0
 25 26  1  0
 26 27  2  0
 26 28  1  0
 28 29  2  0
 28 30  1  0
  2 31  1  0
 31 32  2  0
 32 33  1  0
 33 34  2  0
 34 35  1  0
 35 36  1  0
 35 37  2  0
 15 10  1  0
 27 22  1  0
 30  8  1  0
 37 31  1  0
M  END
$$$$
