
     RDKit          3D

 34 35  0  0  0  0  0  0  0  0999 V2000
  -15.1249  -34.5249  -12.6657 C   0  0  0  0  0  0  0  0  0  0  0  0
  -13.7630  -35.0653  -12.4085 C   0  0  0  0  0  0  0  0  0  0  0  0
  -13.6513  -35.9555  -11.2249 C   0  0  0  0  0  0  0  0  0  0  0  0
  -13.9849  -37.3866  -11.4420 C   0  0  0  0  0  0  0  0  0  0  0  0
  -13.7568  -38.2227  -10.3077 N   0  0  0  0  0  0  0  0  0  0  0  0
  -14.4808  -39.4517  -10.1188 C   0  0  0  0  0  0  0  0  0  0  0  0
  -15.3772  -39.7256  -10.9478 O   0  0  0  0  0  0  0  0  0  0  0  0
  -14.1151  -40.2920   -8.9680 C   0  0  2  0  0  0  0  0  0  0  0  0
  -13.3175  -41.5255   -9.3706 C   0  0  0  0  0  0  0  0  0  0  0  0
  -15.2777  -40.6632   -8.0750 C   0  0  0  0  0  0  0  0  0  0  0  0
  -16.3665  -39.6428   -8.1675 C   0  0  2  0  0  0  0  0  0  0  0  0
  -16.2766  -38.8105   -7.0185 O   0  0  0  0  0  0  0  0  0  0  0  0
  -17.7509  -40.2136   -8.2332 C   0  0  2  0  0  0  0  0  0  0  0  0
  -18.7578  -39.3441   -8.9153 C   0  0  0  0  0  0  0  0  0  0  0  0
  -20.1065  -39.1875   -8.3095 C   0  0  0  0  0  0  0  0  0  0  0  0
  -20.3793  -37.8405   -7.9989 C   0  0  0  0  0  0  0  0  0  0  0  0
  -21.5403  -37.3842   -7.4295 C   0  0  0  0  0  0  0  0  0  0  0  0
  -22.4652  -38.3665   -7.1679 C   0  0  0  0  0  0  0  0  0  0  0  0
  -22.2552  -39.7263   -7.4540 C   0  0  0  0  0  0  0  0  0  0  0  0
  -21.0633  -40.1252   -8.0282 C   0  0  0  0  0  0  0  0  0  0  0  0
  -23.3482  -40.4782   -7.0848 O   0  0  0  0  0  0  0  0  0  0  0  0
  -24.1934  -41.4203   -7.6056 C   0  0  0  0  0  0  0  0  0  0  0  0
  -23.5725  -42.1996   -8.7056 C   0  0  0  0  0  0  0  0  0  0  0  0
  -22.7978  -43.4083   -8.3151 C   0  0  0  0  0  0  0  0  0  0  0  0
  -22.2515  -43.4334   -6.9324 C   0  0  0  0  0  0  0  0  0  0  0  0
  -20.7761  -44.3826   -6.7324 S   0  0  0  0  0  6  0  0  0  0  0  0
  -20.4165  -44.3245   -5.2590 O   0  0  0  0  0  0  0  0  0  0  0  0
  -21.1488  -45.8322   -7.0185 O   0  0  0  0  0  0  0  0  0  0  0  0
  -19.4471  -43.9015   -7.7652 C   0  0  0  0  0  0  0  0  0  0  0  0
  -18.2994  -43.2736   -6.9877 C   0  0  1  0  0  0  0  0  0  0  0  0
  -17.0335  -43.4322   -7.7362 C   0  0  0  0  0  0  0  0  0  0  0  0
  -18.6605  -41.9331   -6.5740 C   0  0  0  0  0  0  0  0  0  0  0  0
  -19.6194  -41.8741   -5.7154 O   0  0  0  0  0  0  0  0  0  0  0  0
  -18.1434  -40.6868   -6.9483 N   0  0  0  0  0  0  0  0  0  0  0  0
  1  2  1  0
  2  3  1  0
  3  4  1  0
  4  5  1  0
  5  6  1  0
  6  7  2  0
  6  8  1  0
  8  9  1  6
  8 10  1  0
 10 11  1  0
 11 12  1  1
 11 13  1  0
 13 14  1  1
 14 15  1  0
 15 16  2  0
 16 17  1  0
 17 18  2  0
 18 19  1  0
 19 20  2  0
 19 21  1  0
 21 22  1  0
 22 23  1  0
 23 24  1  0
 24 25  1  0
 25 26  1  0
 26 27  2  0
 26 28  2  0
 26 29  1  0
 29 30  1  0
 30 31  1  6
 30 32  1  0
 32 33  2  0
 32 34  1  0
 20 15  1  0
 34 13  1  0
M  END
$$$$
