
     RDKit          3D

 34 35  0  0  0  0  0  0  0  0999 V2000
  -11.2684  -36.5040  -13.9869 C   0  0  0  0  0  0  0  0  0  0  0  0
  -12.6213  -36.8157  -13.4528 C   0  0  0  0  0  0  0  0  0  0  0  0
  -12.9257  -36.2259  -12.1241 C   0  0  0  0  0  0  0  0  0  0  0  0
  -14.2603  -36.5404  -11.5529 C   0  0  0  0  0  0  0  0  0  0  0  0
  -14.2182  -37.2124  -10.2942 N   0  0  0  0  0  0  0  0  0  0  0  0
  -14.3465  -38.6423  -10.1980 C   0  0  0  0  0  0  0  0  0  0  0  0
  -14.6048  -39.2698  -11.2493 O   0  0  0  0  0  0  0  0  0  0  0  0
  -14.1657  -39.2584   -8.8743 C   0  0  2  0  0  0  0  0  0  0  0  0
  -12.8798  -40.0683   -8.7734 C   0  0  0  0  0  0  0  0  0  0  0  0
  -15.3539  -40.0621   -8.3954 C   0  0  0  0  0  0  0  0  0  0  0  0
  -16.5506  -39.1847   -8.2122 C   0  0  2  0  0  0  0  0  0  0  0  0
  -16.3867  -38.4817   -6.9874 O   0  0  0  0  0  0  0  0  0  0  0  0
  -17.8582  -39.9160   -8.1686 C   0  0  2  0  0  0  0  0  0  0  0  0
  -19.0571  -39.0797   -8.4820 C   0  0  0  0  0  0  0  0  0  0  0  0
  -20.2778  -39.2238   -7.6455 C   0  0  0  0  0  0  0  0  0  0  0  0
  -20.6221  -38.0081   -7.0217 C   0  0  0  0  0  0  0  0  0  0  0  0
  -21.6963  -37.8282   -6.1887 C   0  0  0  0  0  0  0  0  0  0  0  0
  -22.4524  -38.9585   -5.9897 C   0  0  0  0  0  0  0  0  0  0  0  0
  -22.1636  -40.1997   -6.5824 C   0  0  0  0  0  0  0  0  0  0  0  0
  -21.0658  -40.3186   -7.4131 C   0  0  0  0  0  0  0  0  0  0  0  0
  -23.0870  -41.1487   -6.2043 O   0  0  0  0  0  0  0  0  0  0  0  0
  -23.9152  -42.0832   -6.7647 C   0  0  0  0  0  0  0  0  0  0  0  0
  -23.4353  -42.5518   -8.0886 C   0  0  0  0  0  0  0  0  0  0  0  0
  -22.4835  -43.6954   -8.0891 C   0  0  0  0  0  0  0  0  0  0  0  0
  -21.6889  -43.9035   -6.8497 C   0  0  0  0  0  0  0  0  0  0  0  0
  -20.1142  -44.6637   -7.0941 S   0  0  0  0  0  6  0  0  0  0  0  0
  -19.4935  -44.8331   -5.7195 O   0  0  0  0  0  0  0  0  0  0  0  0
  -20.3857  -46.0715   -7.6105 O   0  0  0  0  0  0  0  0  0  0  0  0
  -19.0567  -43.8222   -8.2068 C   0  0  0  0  0  0  0  0  0  0  0  0
  -17.8533  -43.2003   -7.5134 C   0  0  1  0  0  0  0  0  0  0  0  0
  -16.7399  -43.0429   -8.4744 C   0  0  0  0  0  0  0  0  0  0  0  0
  -18.2640  -42.0222   -6.7772 C   0  0  0  0  0  0  0  0  0  0  0  0
  -19.0467  -42.2554   -5.7806 O   0  0  0  0  0  0  0  0  0  0  0  0
  -17.9542  -40.6695   -6.9636 N   0  0  0  0  0  0  0  0  0  0  0  0
  1  2  1  0
  2  3  1  0
  3  4  1  0
  4  5  1  0
  5  6  1  0
  6  7  2  0
  6  8  1  0
  8  9  1  6
  8 10  1  0
 10 11  1  0
 11 12  1  1
 11 13  1  0
 13 14  1  1
 14 15  1  0
 15 16  2  0
 16 17  1  0
 17 18  2  0
 18 19  1  0
 19 20  2  0
 19 21  1  0
 21 22  1  0
 22 23  1  0
 23 24  1  0
 24 25  1  0
 25 26  1  0
 26 27  2  0
 26 28  2  0
 26 29  1  0
 29 30  1  0
 30 31  1  6
 30 32  1  0
 32 33  2  0
 32 34  1  0
 20 15  1  0
 34 13  1  0
M  END
$$$$
