
     RDKit          3D

 34 35  0  0  0  0  0  0  0  0999 V2000
  -11.8028  -34.9542  -13.4081 C   0  0  0  0  0  0  0  0  0  0  0  0
  -12.9299  -35.1975  -12.4682 C   0  0  0  0  0  0  0  0  0  0  0  0
  -12.7159  -36.3036  -11.5005 C   0  0  0  0  0  0  0  0  0  0  0  0
  -13.1042  -37.6630  -11.9561 C   0  0  0  0  0  0  0  0  0  0  0  0
  -12.9028  -38.6893  -10.9845 N   0  0  0  0  0  0  0  0  0  0  0  0
  -14.0057  -39.4225  -10.4222 C   0  0  0  0  0  0  0  0  0  0  0  0
  -15.0332  -39.5470  -11.1253 O   0  0  0  0  0  0  0  0  0  0  0  0
  -13.8441  -39.9691   -9.0660 C   0  0  2  0  0  0  0  0  0  0  0  0
  -12.7846  -41.0610   -8.9945 C   0  0  0  0  0  0  0  0  0  0  0  0
  -15.1348  -40.4201   -8.4197 C   0  0  0  0  0  0  0  0  0  0  0  0
  -16.2619  -39.5108   -8.7914 C   0  0  2  0  0  0  0  0  0  0  0  0
  -16.2186  -38.3905   -7.9174 O   0  0  0  0  0  0  0  0  0  0  0  0
  -17.6218  -40.1342   -8.6975 C   0  0  2  0  0  0  0  0  0  0  0  0
  -18.7584  -39.2127   -9.0044 C   0  0  0  0  0  0  0  0  0  0  0  0
  -19.9646  -39.2383   -8.1355 C   0  0  0  0  0  0  0  0  0  0  0  0
  -20.1954  -37.9841   -7.5362 C   0  0  0  0  0  0  0  0  0  0  0  0
  -21.2301  -37.6987   -6.6829 C   0  0  0  0  0  0  0  0  0  0  0  0
  -22.0680  -38.7598   -6.4362 C   0  0  0  0  0  0  0  0  0  0  0  0
  -21.8938  -40.0342   -7.0025 C   0  0  0  0  0  0  0  0  0  0  0  0
  -20.8306  -40.2607   -7.8556 C   0  0  0  0  0  0  0  0  0  0  0  0
  -22.8794  -40.8969   -6.5776 O   0  0  0  0  0  0  0  0  0  0  0  0
  -23.7933  -41.7757   -7.0932 C   0  0  0  0  0  0  0  0  0  0  0  0
  -23.3862  -42.3134   -8.4153 C   0  0  0  0  0  0  0  0  0  0  0  0
  -22.5284  -43.5290   -8.4081 C   0  0  0  0  0  0  0  0  0  0  0  0
  -21.7211  -43.7695   -7.1828 C   0  0  0  0  0  0  0  0  0  0  0  0
  -20.2183  -44.6587   -7.4443 S   0  0  0  0  0  6  0  0  0  0  0  0
  -19.5778  -44.8434   -6.0808 O   0  0  0  0  0  0  0  0  0  0  0  0
  -20.6137  -46.0526   -7.9167 O   0  0  0  0  0  0  0  0  0  0  0  0
  -19.1266  -43.9319   -8.6038 C   0  0  0  0  0  0  0  0  0  0  0  0
  -17.8602  -43.3913   -7.9558 C   0  0  1  0  0  0  0  0  0  0  0  0
  -16.7630  -43.3469   -8.9469 C   0  0  0  0  0  0  0  0  0  0  0  0
  -18.1572  -42.1665   -7.2416 C   0  0  0  0  0  0  0  0  0  0  0  0
  -18.9300  -42.3119   -6.2208 O   0  0  0  0  0  0  0  0  0  0  0  0
  -17.7461  -40.8478   -7.4710 N   0  0  0  0  0  0  0  0  0  0  0  0
  1  2  1  0
  2  3  1  0
  3  4  1  0
  4  5  1  0
  5  6  1  0
  6  7  2  0
  6  8  1  0
  8  9  1  6
  8 10  1  0
 10 11  1  0
 11 12  1  1
 11 13  1  0
 13 14  1  1
 14 15  1  0
 15 16  2  0
 16 17  1  0
 17 18  2  0
 18 19  1  0
 19 20  2  0
 19 21  1  0
 21 22  1  0
 22 23  1  0
 23 24  1  0
 24 25  1  0
 25 26  1  0
 26 27  2  0
 26 28  2  0
 26 29  1  0
 29 30  1  0
 30 31  1  6
 30 32  1  0
 32 33  2  0
 32 34  1  0
 20 15  1  0
 34 13  1  0
M  END
$$$$
