
     RDKit          3D

 34 35  0  0  0  0  0  0  0  0999 V2000
  -11.8755  -34.9965  -14.4431 C   0  0  0  0  0  0  0  0  0  0  0  0
  -12.7832  -36.1583  -14.2448 C   0  0  0  0  0  0  0  0  0  0  0  0
  -13.2802  -36.3401  -12.8570 C   0  0  0  0  0  0  0  0  0  0  0  0
  -12.8875  -37.6000  -12.1754 C   0  0  0  0  0  0  0  0  0  0  0  0
  -13.4023  -37.7379  -10.8511 N   0  0  0  0  0  0  0  0  0  0  0  0
  -14.3561  -38.7615  -10.5155 C   0  0  0  0  0  0  0  0  0  0  0  0
  -14.1760  -39.8995  -11.0037 O   0  0  0  0  0  0  0  0  0  0  0  0
  -15.4696  -38.3950   -9.6267 C   0  0  2  0  0  0  0  0  0  0  0  0
  -14.9967  -37.8784   -8.2741 C   0  0  0  0  0  0  0  0  0  0  0  0
  -16.5146  -39.4757   -9.4613 C   0  0  0  0  0  0  0  0  0  0  0  0
  -17.0872  -39.4551   -8.0804 C   0  0  2  0  0  0  0  0  0  0  0  0
  -16.1216  -40.0219   -7.2044 O   0  0  0  0  0  0  0  0  0  0  0  0
  -18.3707  -40.2139   -7.9271 C   0  0  2  0  0  0  0  0  0  0  0  0
  -19.5981  -39.3639   -7.8477 C   0  0  0  0  0  0  0  0  0  0  0  0
  -20.6389  -39.6896   -6.8372 C   0  0  0  0  0  0  0  0  0  0  0  0
  -20.8449  -38.6186   -5.9451 C   0  0  0  0  0  0  0  0  0  0  0  0
  -21.7390  -38.6218   -4.9055 C   0  0  0  0  0  0  0  0  0  0  0  0
  -22.4559  -39.7877   -4.7806 C   0  0  0  0  0  0  0  0  0  0  0  0
  -22.2988  -40.8909   -5.6370 C   0  0  0  0  0  0  0  0  0  0  0  0
  -21.3804  -40.8276   -6.6675 C   0  0  0  0  0  0  0  0  0  0  0  0
  -23.1440  -41.9158   -5.2742 O   0  0  0  0  0  0  0  0  0  0  0  0
  -24.0740  -42.7510   -5.8315 C   0  0  0  0  0  0  0  0  0  0  0  0
  -23.8597  -42.9557   -7.2859 C   0  0  0  0  0  0  0  0  0  0  0  0
  -22.9382  -44.0559   -7.6783 C   0  0  0  0  0  0  0  0  0  0  0  0
  -21.9248  -44.4692   -6.6719 C   0  0  0  0  0  0  0  0  0  0  0  0
  -20.4337  -45.1323   -7.3460 S   0  0  0  0  0  6  0  0  0  0  0  0
  -19.5649  -45.5368   -6.1691 O   0  0  0  0  0  0  0  0  0  0  0  0
  -20.8141  -46.4271   -8.0540 O   0  0  0  0  0  0  0  0  0  0  0  0
  -19.5979  -44.0744   -8.4626 C   0  0  0  0  0  0  0  0  0  0  0  0
  -18.2778  -43.5616   -7.9058 C   0  0  1  0  0  0  0  0  0  0  0  0
  -17.3657  -43.2024   -9.0136 C   0  0  0  0  0  0  0  0  0  0  0  0
  -18.5279  -42.5498   -6.8997 C   0  0  0  0  0  0  0  0  0  0  0  0
  -19.1094  -42.9818   -5.8340 O   0  0  0  0  0  0  0  0  0  0  0  0
  -18.2442  -41.1787   -6.8869 N   0  0  0  0  0  0  0  0  0  0  0  0
  1  2  1  0
  2  3  1  0
  3  4  1  0
  4  5  1  0
  5  6  1  0
  6  7  2  0
  6  8  1  0
  8  9  1  1
  8 10  1  0
 10 11  1  0
 11 12  1  1
 11 13  1  0
 13 14  1  1
 14 15  1  0
 15 16  2  0
 16 17  1  0
 17 18  2  0
 18 19  1  0
 19 20  2  0
 19 21  1  0
 21 22  1  0
 22 23  1  0
 23 24  1  0
 24 25  1  0
 25 26  1  0
 26 27  2  0
 26 28  2  0
 26 29  1  0
 29 30  1  0
 30 31  1  6
 30 32  1  0
 32 33  2  0
 32 34  1  0
 20 15  1  0
 34 13  1  0
M  END
$$$$
