
     RDKit          3D

 34 35  0  0  0  0  0  0  0  0999 V2000
  -13.2727  -33.6870  -13.7940 C   0  0  0  0  0  0  0  0  0  0  0  0
  -12.7819  -34.2259  -12.4972 C   0  0  0  0  0  0  0  0  0  0  0  0
  -13.8418  -34.6887  -11.5653 C   0  0  0  0  0  0  0  0  0  0  0  0
  -14.2923  -36.0951  -11.7248 C   0  0  0  0  0  0  0  0  0  0  0  0
  -14.1703  -36.8895  -10.5451 N   0  0  0  0  0  0  0  0  0  0  0  0
  -14.6212  -38.2552  -10.5056 C   0  0  0  0  0  0  0  0  0  0  0  0
  -15.4982  -38.5966  -11.3302 O   0  0  0  0  0  0  0  0  0  0  0  0
  -14.0201  -39.1460   -9.5008 C   0  0  2  0  0  0  0  0  0  0  0  0
  -12.7118  -39.7667   -9.9730 C   0  0  0  0  0  0  0  0  0  0  0  0
  -14.9606  -40.2015   -8.9638 C   0  0  0  0  0  0  0  0  0  0  0  0
  -16.0242  -39.5835   -8.1140 C   0  0  2  0  0  0  0  0  0  0  0  0
  -15.5705  -39.6113   -6.7670 O   0  0  0  0  0  0  0  0  0  0  0  0
  -17.3537  -40.2724   -8.1815 C   0  0  2  0  0  0  0  0  0  0  0  0
  -18.4274  -39.4998   -8.8783 C   0  0  0  0  0  0  0  0  0  0  0  0
  -19.7885  -39.4544   -8.2817 C   0  0  0  0  0  0  0  0  0  0  0  0
  -20.1785  -38.1329   -7.9867 C   0  0  0  0  0  0  0  0  0  0  0  0
  -21.3782  -37.7730   -7.4286 C   0  0  0  0  0  0  0  0  0  0  0  0
  -22.2166  -38.8289   -7.1621 C   0  0  0  0  0  0  0  0  0  0  0  0
  -21.8882  -40.1683   -7.4329 C   0  0  0  0  0  0  0  0  0  0  0  0
  -20.6626  -40.4683   -7.9962 C   0  0  0  0  0  0  0  0  0  0  0  0
  -22.9146  -41.0080   -7.0620 O   0  0  0  0  0  0  0  0  0  0  0  0
  -23.6720  -42.0247   -7.5778 C   0  0  0  0  0  0  0  0  0  0  0  0
  -22.9789  -42.7582   -8.6662 C   0  0  0  0  0  0  0  0  0  0  0  0
  -22.1054  -43.8916   -8.2587 C   0  0  0  0  0  0  0  0  0  0  0  0
  -21.5680  -43.8559   -6.8728 C   0  0  0  0  0  0  0  0  0  0  0  0
  -20.0176  -44.6720   -6.6546 S   0  0  0  0  0  6  0  0  0  0  0  0
  -19.6739  -44.5685   -5.1799 O   0  0  0  0  0  0  0  0  0  0  0  0
  -20.2619  -46.1512   -6.9278 O   0  0  0  0  0  0  0  0  0  0  0  0
  -18.7283  -44.0881   -7.6848 C   0  0  0  0  0  0  0  0  0  0  0  0
  -17.6442  -43.3559   -6.9074 C   0  0  1  0  0  0  0  0  0  0  0  0
  -16.3644  -43.4120   -7.6470 C   0  0  0  0  0  0  0  0  0  0  0  0
  -18.1223  -42.0476   -6.5098 C   0  0  0  0  0  0  0  0  0  0  0  0
  -19.0883  -42.0631   -5.6572 O   0  0  0  0  0  0  0  0  0  0  0  0
  -17.7123  -40.7650   -6.8940 N   0  0  0  0  0  0  0  0  0  0  0  0
  1  2  1  0
  2  3  1  0
  3  4  1  0
  4  5  1  0
  5  6  1  0
  6  7  2  0
  6  8  1  0
  8  9  1  6
  8 10  1  0
 10 11  1  0
 11 12  1  1
 11 13  1  0
 13 14  1  1
 14 15  1  0
 15 16  2  0
 16 17  1  0
 17 18  2  0
 18 19  1  0
 19 20  2  0
 19 21  1  0
 21 22  1  0
 22 23  1  0
 23 24  1  0
 24 25  1  0
 25 26  1  0
 26 27  2  0
 26 28  2  0
 26 29  1  0
 29 30  1  0
 30 31  1  6
 30 32  1  0
 32 33  2  0
 32 34  1  0
 20 15  1  0
 34 13  1  0
M  END
$$$$
