
     RDKit          3D

 34 35  0  0  0  0  0  0  0  0999 V2000
  -12.1164  -35.1394  -13.4238 C   0  0  0  0  0  0  0  0  0  0  0  0
  -11.8131  -36.2439  -12.4745 C   0  0  0  0  0  0  0  0  0  0  0  0
  -12.9507  -36.6713  -11.6207 C   0  0  0  0  0  0  0  0  0  0  0  0
  -13.4782  -38.0390  -11.8608 C   0  0  0  0  0  0  0  0  0  0  0  0
  -13.2863  -38.9431  -10.7730 N   0  0  0  0  0  0  0  0  0  0  0  0
  -14.3856  -39.6656  -10.1899 C   0  0  0  0  0  0  0  0  0  0  0  0
  -15.2613  -40.1078  -10.9667 O   0  0  0  0  0  0  0  0  0  0  0  0
  -14.3986  -39.8296   -8.7280 C   0  0  2  0  0  0  0  0  0  0  0  0
  -13.2483  -40.6905   -8.2226 C   0  0  0  0  0  0  0  0  0  0  0  0
  -15.7206  -40.3042   -8.1675 C   0  0  0  0  0  0  0  0  0  0  0  0
  -16.8634  -39.6312   -8.8578 C   0  0  2  0  0  0  0  0  0  0  0  0
  -16.8406  -38.2579   -8.4912 O   0  0  0  0  0  0  0  0  0  0  0  0
  -18.2120  -40.1908   -8.5193 C   0  0  2  0  0  0  0  0  0  0  0  0
  -19.3458  -39.2261   -8.6578 C   0  0  0  0  0  0  0  0  0  0  0  0
  -20.3882  -39.1788   -7.5987 C   0  0  0  0  0  0  0  0  0  0  0  0
  -20.4635  -37.9029   -7.0056 C   0  0  0  0  0  0  0  0  0  0  0  0
  -21.3271  -37.5529   -5.9996 C   0  0  0  0  0  0  0  0  0  0  0  0
  -22.1536  -38.5698   -5.5854 C   0  0  0  0  0  0  0  0  0  0  0  0
  -22.1293  -39.8627   -6.1358 C   0  0  0  0  0  0  0  0  0  0  0  0
  -21.2353  -40.1551   -7.1482 C   0  0  0  0  0  0  0  0  0  0  0  0
  -23.0632  -40.6709   -5.5270 O   0  0  0  0  0  0  0  0  0  0  0  0
  -24.0859  -41.5188   -5.8565 C   0  0  0  0  0  0  0  0  0  0  0  0
  -23.9298  -42.1028   -7.2121 C   0  0  0  0  0  0  0  0  0  0  0  0
  -23.1331  -43.3552   -7.3137 C   0  0  0  0  0  0  0  0  0  0  0  0
  -22.1411  -43.6050   -6.2346 C   0  0  0  0  0  0  0  0  0  0  0  0
  -20.7413  -44.5662   -6.7185 S   0  0  0  0  0  6  0  0  0  0  0  0
  -19.8880  -44.7499   -5.4769 O   0  0  0  0  0  0  0  0  0  0  0  0
  -21.2670  -45.9508   -7.0775 O   0  0  0  0  0  0  0  0  0  0  0  0
  -19.8322  -43.9143   -8.0651 C   0  0  0  0  0  0  0  0  0  0  0  0
  -18.4539  -43.4171   -7.6544 C   0  0  1  0  0  0  0  0  0  0  0  0
  -17.5387  -43.4434   -8.8163 C   0  0  0  0  0  0  0  0  0  0  0  0
  -18.5762  -42.1651   -6.9362 C   0  0  0  0  0  0  0  0  0  0  0  0
  -19.1709  -42.2536   -5.7965 O   0  0  0  0  0  0  0  0  0  0  0  0
  -18.1565  -40.8714   -7.2693 N   0  0  0  0  0  0  0  0  0  0  0  0
  1  2  1  0
  2  3  1  0
  3  4  1  0
  4  5  1  0
  5  6  1  0
  6  7  2  0
  6  8  1  0
  8  9  1  6
  8 10  1  0
 10 11  1  0
 11 12  1  1
 11 13  1  0
 13 14  1  1
 14 15  1  0
 15 16  2  0
 16 17  1  0
 17 18  2  0
 18 19  1  0
 19 20  2  0
 19 21  1  0
 21 22  1  0
 22 23  1  0
 23 24  1  0
 24 25  1  0
 25 26  1  0
 26 27  2  0
 26 28  2  0
 26 29  1  0
 29 30  1  0
 30 31  1  6
 30 32  1  0
 32 33  2  0
 32 34  1  0
 20 15  1  0
 34 13  1  0
M  END
$$$$
