
     RDKit          3D

 34 35  0  0  0  0  0  0  0  0999 V2000
  -11.7420  -37.3533  -14.8143 C   0  0  0  0  0  0  0  0  0  0  0  0
  -11.6741  -36.5571  -13.5595 C   0  0  0  0  0  0  0  0  0  0  0  0
  -11.8444  -37.3380  -12.3076 C   0  0  0  0  0  0  0  0  0  0  0  0
  -13.2398  -37.6696  -11.9216 C   0  0  0  0  0  0  0  0  0  0  0  0
  -13.3647  -38.2918  -10.6429 N   0  0  0  0  0  0  0  0  0  0  0  0
  -13.9077  -39.6164  -10.4985 C   0  0  0  0  0  0  0  0  0  0  0  0
  -14.4839  -40.1144  -11.4914 O   0  0  0  0  0  0  0  0  0  0  0  0
  -13.7465  -40.2845   -9.1978 C   0  0  2  0  0  0  0  0  0  0  0  0
  -12.6526  -41.3443   -9.2128 C   0  0  0  0  0  0  0  0  0  0  0  0
  -15.0302  -40.8356   -8.6187 C   0  0  0  0  0  0  0  0  0  0  0  0
  -16.0915  -39.7832   -8.5807 C   0  0  2  0  0  0  0  0  0  0  0  0
  -15.8841  -39.0033   -7.4104 O   0  0  0  0  0  0  0  0  0  0  0  0
  -17.4933  -40.3132   -8.5559 C   0  0  2  0  0  0  0  0  0  0  0  0
  -18.5391  -39.3465   -9.0110 C   0  0  0  0  0  0  0  0  0  0  0  0
  -19.8066  -39.2373   -8.2415 C   0  0  0  0  0  0  0  0  0  0  0  0
  -19.9973  -37.9328   -7.7441 C   0  0  0  0  0  0  0  0  0  0  0  0
  -21.0721  -37.5256   -6.9963 C   0  0  0  0  0  0  0  0  0  0  0  0
  -21.9954  -38.5132   -6.7497 C   0  0  0  0  0  0  0  0  0  0  0  0
  -21.8648  -39.8321   -7.2174 C   0  0  0  0  0  0  0  0  0  0  0  0
  -20.7579  -40.1824   -7.9666 C   0  0  0  0  0  0  0  0  0  0  0  0
  -22.9354  -40.6006   -6.8181 O   0  0  0  0  0  0  0  0  0  0  0  0
  -23.8646  -41.4547   -7.3477 C   0  0  0  0  0  0  0  0  0  0  0  0
  -23.3958  -42.1068   -8.5958 C   0  0  0  0  0  0  0  0  0  0  0  0
  -22.6245  -43.3698   -8.4422 C   0  0  0  0  0  0  0  0  0  0  0  0
  -21.9300  -43.5744   -7.1435 C   0  0  0  0  0  0  0  0  0  0  0  0
  -20.4748  -44.5709   -7.2266 S   0  0  0  0  0  6  0  0  0  0  0  0
  -19.9530  -44.7001   -5.8073 O   0  0  0  0  0  0  0  0  0  0  0  0
  -20.9260  -45.9669   -7.6387 O   0  0  0  0  0  0  0  0  0  0  0  0
  -19.2523  -43.9950   -8.3394 C   0  0  0  0  0  0  0  0  0  0  0  0
  -18.0051  -43.4902   -7.6284 C   0  0  1  0  0  0  0  0  0  0  0  0
  -16.8356  -43.5824   -8.5294 C   0  0  0  0  0  0  0  0  0  0  0  0
  -18.2724  -42.2030   -7.0201 C   0  0  0  0  0  0  0  0  0  0  0  0
  -19.1281  -42.2293   -6.0571 O   0  0  0  0  0  0  0  0  0  0  0  0
  -17.7575  -40.9313   -7.3001 N   0  0  0  0  0  0  0  0  0  0  0  0
  1  2  1  0
  2  3  1  0
  3  4  1  0
  4  5  1  0
  5  6  1  0
  6  7  2  0
  6  8  1  0
  8  9  1  6
  8 10  1  0
 10 11  1  0
 11 12  1  1
 11 13  1  0
 13 14  1  1
 14 15  1  0
 15 16  2  0
 16 17  1  0
 17 18  2  0
 18 19  1  0
 19 20  2  0
 19 21  1  0
 21 22  1  0
 22 23  1  0
 23 24  1  0
 24 25  1  0
 25 26  1  0
 26 27  2  0
 26 28  2  0
 26 29  1  0
 29 30  1  0
 30 31  1  6
 30 32  1  0
 32 33  2  0
 32 34  1  0
 20 15  1  0
 34 13  1  0
M  END
$$$$
