
     RDKit          3D

 34 35  0  0  0  0  0  0  0  0999 V2000
  -11.0517  -34.6766  -13.0586 C   0  0  0  0  0  0  0  0  0  0  0  0
  -11.9455  -35.8638  -12.9907 C   0  0  0  0  0  0  0  0  0  0  0  0
  -12.8432  -35.9101  -11.8083 C   0  0  0  0  0  0  0  0  0  0  0  0
  -13.7302  -37.0966  -11.6996 C   0  0  0  0  0  0  0  0  0  0  0  0
  -13.5154  -37.8868  -10.5304 N   0  0  0  0  0  0  0  0  0  0  0  0
  -14.2404  -39.1085  -10.3021 C   0  0  0  0  0  0  0  0  0  0  0  0
  -15.0033  -39.5044  -11.2114 O   0  0  0  0  0  0  0  0  0  0  0  0
  -14.0320  -39.7990   -9.0199 C   0  0  2  0  0  0  0  0  0  0  0  0
  -12.7336  -40.5945   -8.9847 C   0  0  0  0  0  0  0  0  0  0  0  0
  -15.2019  -40.6467   -8.5731 C   0  0  0  0  0  0  0  0  0  0  0  0
  -16.3069  -39.7910   -8.0421 C   0  0  2  0  0  0  0  0  0  0  0  0
  -16.0627  -39.5813   -6.6574 O   0  0  0  0  0  0  0  0  0  0  0  0
  -17.6779  -40.3758   -8.1993 C   0  0  2  0  0  0  0  0  0  0  0  0
  -18.7091  -39.4289   -8.7240 C   0  0  0  0  0  0  0  0  0  0  0  0
  -20.0573  -39.4084   -8.0975 C   0  0  0  0  0  0  0  0  0  0  0  0
  -20.3594  -38.1392   -7.5653 C   0  0  0  0  0  0  0  0  0  0  0  0
  -21.5272  -37.8127   -6.9249 C   0  0  0  0  0  0  0  0  0  0  0  0
  -22.4273  -38.8468   -6.8294 C   0  0  0  0  0  0  0  0  0  0  0  0
  -22.1875  -40.1342   -7.3396 C   0  0  0  0  0  0  0  0  0  0  0  0
  -20.9901  -40.4026   -7.9751 C   0  0  0  0  0  0  0  0  0  0  0  0
  -23.2603  -40.9632   -7.0989 O   0  0  0  0  0  0  0  0  0  0  0  0
  -24.0865  -41.8250   -7.7682 C   0  0  0  0  0  0  0  0  0  0  0  0
  -23.4544  -42.3941   -8.9845 C   0  0  0  0  0  0  0  0  0  0  0  0
  -22.6494  -43.6322   -8.8035 C   0  0  0  0  0  0  0  0  0  0  0  0
  -22.0940  -43.8751   -7.4458 C   0  0  0  0  0  0  0  0  0  0  0  0
  -20.5957  -44.8086   -7.4107 S   0  0  0  0  0  6  0  0  0  0  0  0
  -20.2284  -44.9891   -5.9492 O   0  0  0  0  0  0  0  0  0  0  0  0
  -20.9362  -46.1985   -7.9346 O   0  0  0  0  0  0  0  0  0  0  0  0
  -19.2847  -44.1297   -8.3514 C   0  0  0  0  0  0  0  0  0  0  0  0
  -18.1472  -43.6134   -7.4823 C   0  0  1  0  0  0  0  0  0  0  0  0
  -16.8825  -43.6141   -8.2496 C   0  0  0  0  0  0  0  0  0  0  0  0
  -18.5369  -42.3700   -6.8493 C   0  0  0  0  0  0  0  0  0  0  0  0
  -19.4916  -42.4785   -5.9908 O   0  0  0  0  0  0  0  0  0  0  0  0
  -18.0513  -41.0666   -7.0109 N   0  0  0  0  0  0  0  0  0  0  0  0
  1  2  1  0
  2  3  1  0
  3  4  1  0
  4  5  1  0
  5  6  1  0
  6  7  2  0
  6  8  1  0
  8  9  1  6
  8 10  1  0
 10 11  1  0
 11 12  1  1
 11 13  1  0
 13 14  1  1
 14 15  1  0
 15 16  2  0
 16 17  1  0
 17 18  2  0
 18 19  1  0
 19 20  2  0
 19 21  1  0
 21 22  1  0
 22 23  1  0
 23 24  1  0
 24 25  1  0
 25 26  1  0
 26 27  2  0
 26 28  2  0
 26 29  1  0
 29 30  1  0
 30 31  1  6
 30 32  1  0
 32 33  2  0
 32 34  1  0
 20 15  1  0
 34 13  1  0
M  END
$$$$
