
     RDKit          3D

 34 35  0  0  0  0  0  0  0  0999 V2000
  -10.9033  -37.0391  -13.4626 C   0  0  0  0  0  0  0  0  0  0  0  0
  -11.5792  -36.1163  -12.5115 C   0  0  0  0  0  0  0  0  0  0  0  0
  -13.0461  -36.3090  -12.3811 C   0  0  0  0  0  0  0  0  0  0  0  0
  -13.4956  -37.6350  -11.8850 C   0  0  0  0  0  0  0  0  0  0  0  0
  -13.3682  -37.8095  -10.4740 N   0  0  0  0  0  0  0  0  0  0  0  0
  -13.7320  -39.0441   -9.8308 C   0  0  0  0  0  0  0  0  0  0  0  0
  -14.1472  -39.9729  -10.5593 O   0  0  0  0  0  0  0  0  0  0  0  0
  -13.5901  -39.1222   -8.3686 C   0  0  2  0  0  0  0  0  0  0  0  0
  -12.2969  -39.8026   -7.9389 C   0  0  0  0  0  0  0  0  0  0  0  0
  -14.7829  -39.7234   -7.6596 C   0  0  0  0  0  0  0  0  0  0  0  0
  -16.0020  -38.8820   -7.8624 C   0  0  2  0  0  0  0  0  0  0  0  0
  -16.4207  -38.4146   -6.5867 O   0  0  0  0  0  0  0  0  0  0  0  0
  -17.1513  -39.5961   -8.5071 C   0  0  2  0  0  0  0  0  0  0  0  0
  -18.1430  -38.7067   -9.1860 C   0  0  0  0  0  0  0  0  0  0  0  0
  -19.5948  -38.9699   -9.0022 C   0  0  0  0  0  0  0  0  0  0  0  0
  -20.2492  -37.8668   -8.4189 C   0  0  0  0  0  0  0  0  0  0  0  0
  -21.5875  -37.8114   -8.1254 C   0  0  0  0  0  0  0  0  0  0  0  0
  -22.2846  -38.9504   -8.4501 C   0  0  0  0  0  0  0  0  0  0  0  0
  -21.6921  -40.0831   -9.0341 C   0  0  0  0  0  0  0  0  0  0  0  0
  -20.3372  -40.0790   -9.3060 C   0  0  0  0  0  0  0  0  0  0  0  0
  -22.6285  -41.0702   -9.2464 O   0  0  0  0  0  0  0  0  0  0  0  0
  -23.0721  -41.8928  -10.2463 C   0  0  0  0  0  0  0  0  0  0  0  0
  -22.0367  -42.1474  -11.2787 C   0  0  0  0  0  0  0  0  0  0  0  0
  -21.1119  -43.2867  -11.0324 C   0  0  0  0  0  0  0  0  0  0  0  0
  -20.9244  -43.7006   -9.6167 C   0  0  0  0  0  0  0  0  0  0  0  0
  -19.3571  -44.4291   -9.2557 S   0  0  0  0  0  6  0  0  0  0  0  0
  -19.3870  -44.8247   -7.7907 O   0  0  0  0  0  0  0  0  0  0  0  0
  -19.2910  -45.7322  -10.0430 O   0  0  0  0  0  0  0  0  0  0  0  0
  -17.9742  -43.4314   -9.6515 C   0  0  0  0  0  0  0  0  0  0  0  0
  -17.2324  -42.9428   -8.4159 C   0  0  1  0  0  0  0  0  0  0  0  0
  -15.8237  -42.6452   -8.7550 C   0  0  0  0  0  0  0  0  0  0  0  0
  -17.9931  -41.8942   -7.7677 C   0  0  0  0  0  0  0  0  0  0  0  0
  -19.1156  -42.2760   -7.2631 O   0  0  0  0  0  0  0  0  0  0  0  0
  -17.7158  -40.5327   -7.5944 N   0  0  0  0  0  0  0  0  0  0  0  0
  1  2  1  0
  2  3  1  0
  3  4  1  0
  4  5  1  0
  5  6  1  0
  6  7  2  0
  6  8  1  0
  8  9  1  6
  8 10  1  0
 10 11  1  0
 11 12  1  1
 11 13  1  0
 13 14  1  1
 14 15  1  0
 15 16  2  0
 16 17  1  0
 17 18  2  0
 18 19  1  0
 19 20  2  0
 19 21  1  0
 21 22  1  0
 22 23  1  0
 23 24  1  0
 24 25  1  0
 25 26  1  0
 26 27  2  0
 26 28  2  0
 26 29  1  0
 29 30  1  0
 30 31  1  6
 30 32  1  0
 32 33  2  0
 32 34  1  0
 20 15  1  0
 34 13  1  0
M  END
$$$$
