
     RDKit          3D

 34 35  0  0  0  0  0  0  0  0999 V2000
  -11.1582  -37.8361  -15.2427 C   0  0  0  0  0  0  0  0  0  0  0  0
  -11.6361  -37.0852  -14.0508 C   0  0  0  0  0  0  0  0  0  0  0  0
  -12.7130  -37.7525  -13.2756 C   0  0  0  0  0  0  0  0  0  0  0  0
  -13.2090  -37.0283  -12.0773 C   0  0  0  0  0  0  0  0  0  0  0  0
  -14.3167  -37.6529  -11.4288 N   0  0  0  0  0  0  0  0  0  0  0  0
  -14.1460  -38.8113  -10.5926 C   0  0  0  0  0  0  0  0  0  0  0  0
  -14.0691  -39.9245  -11.1589 O   0  0  0  0  0  0  0  0  0  0  0  0
  -14.0757  -38.6016   -9.1382 C   0  0  2  0  0  0  0  0  0  0  0  0
  -12.6496  -38.4052   -8.6407 C   0  0  0  0  0  0  0  0  0  0  0  0
  -14.7966  -39.6520   -8.3232 C   0  0  0  0  0  0  0  0  0  0  0  0
  -16.0191  -39.0799   -7.6802 C   0  0  2  0  0  0  0  0  0  0  0  0
  -15.8893  -39.2542   -6.2753 O   0  0  0  0  0  0  0  0  0  0  0  0
  -17.3064  -39.7094   -8.1198 C   0  0  2  0  0  0  0  0  0  0  0  0
  -18.3778  -38.7426   -8.5105 C   0  0  0  0  0  0  0  0  0  0  0  0
  -19.7702  -38.9801   -8.0465 C   0  0  0  0  0  0  0  0  0  0  0  0
  -20.2420  -37.9093   -7.2615 C   0  0  0  0  0  0  0  0  0  0  0  0
  -21.4873  -37.8410   -6.6914 C   0  0  0  0  0  0  0  0  0  0  0  0
  -22.2847  -38.9315   -6.9439 C   0  0  0  0  0  0  0  0  0  0  0  0
  -21.8747  -40.0300   -7.7186 C   0  0  0  0  0  0  0  0  0  0  0  0
  -20.6064  -40.0411   -8.2670 C   0  0  0  0  0  0  0  0  0  0  0  0
  -22.8763  -40.9715   -7.8006 O   0  0  0  0  0  0  0  0  0  0  0  0
  -23.5518  -41.7001   -8.7419 C   0  0  0  0  0  0  0  0  0  0  0  0
  -22.7638  -41.9002   -9.9836 C   0  0  0  0  0  0  0  0  0  0  0  0
  -21.8580  -43.0800  -10.0186 C   0  0  0  0  0  0  0  0  0  0  0  0
  -21.4001  -43.6095   -8.7069 C   0  0  0  0  0  0  0  0  0  0  0  0
  -19.8248  -44.4065   -8.7349 S   0  0  0  0  0  6  0  0  0  0  0  0
  -19.5684  -44.9158   -7.3284 O   0  0  0  0  0  0  0  0  0  0  0  0
  -19.9787  -45.6446   -9.6100 O   0  0  0  0  0  0  0  0  0  0  0  0
  -18.5119  -43.4184   -9.3387 C   0  0  0  0  0  0  0  0  0  0  0  0
  -17.5106  -43.0494   -8.2538 C   0  0  1  0  0  0  0  0  0  0  0  0
  -16.1909  -42.7642   -8.8580 C   0  0  0  0  0  0  0  0  0  0  0  0
  -18.0752  -42.0351   -7.3873 C   0  0  0  0  0  0  0  0  0  0  0  0
  -19.0847  -42.4251   -6.6878 O   0  0  0  0  0  0  0  0  0  0  0  0
  -17.7100  -40.6996   -7.1787 N   0  0  0  0  0  0  0  0  0  0  0  0
  1  2  1  0
  2  3  1  0
  3  4  1  0
  4  5  1  0
  5  6  1  0
  6  7  2  0
  6  8  1  0
  8  9  1  1
  8 10  1  0
 10 11  1  0
 11 12  1  1
 11 13  1  0
 13 14  1  1
 14 15  1  0
 15 16  2  0
 16 17  1  0
 17 18  2  0
 18 19  1  0
 19 20  2  0
 19 21  1  0
 21 22  1  0
 22 23  1  0
 23 24  1  0
 24 25  1  0
 25 26  1  0
 26 27  2  0
 26 28  2  0
 26 29  1  0
 29 30  1  0
 30 31  1  6
 30 32  1  0
 32 33  2  0
 32 34  1  0
 20 15  1  0
 34 13  1  0
M  END
$$$$
