
     RDKit          3D

 34 35  0  0  0  0  0  0  0  0999 V2000
  -15.1932  -34.7478  -11.9432 C   0  0  0  0  0  0  0  0  0  0  0  0
  -14.9137  -36.2050  -11.8358 C   0  0  0  0  0  0  0  0  0  0  0  0
  -13.6279  -36.6459  -12.4343 C   0  0  0  0  0  0  0  0  0  0  0  0
  -13.3339  -38.1004  -12.3681 C   0  0  0  0  0  0  0  0  0  0  0  0
  -13.2310  -38.6203  -11.0426 N   0  0  0  0  0  0  0  0  0  0  0  0
  -14.0281  -39.7357  -10.6060 C   0  0  0  0  0  0  0  0  0  0  0  0
  -14.8594  -40.2023  -11.4166 O   0  0  0  0  0  0  0  0  0  0  0  0
  -13.8079  -40.2427   -9.2426 C   0  0  2  0  0  0  0  0  0  0  0  0
  -12.6207  -41.1926   -9.1532 C   0  0  0  0  0  0  0  0  0  0  0  0
  -15.0361  -40.8444   -8.5972 C   0  0  0  0  0  0  0  0  0  0  0  0
  -16.0944  -39.8073   -8.3979 C   0  0  2  0  0  0  0  0  0  0  0  0
  -15.8652  -39.1940   -7.1360 O   0  0  0  0  0  0  0  0  0  0  0  0
  -17.4967  -40.3362   -8.4210 C   0  0  2  0  0  0  0  0  0  0  0  0
  -18.5412  -39.3323   -8.7903 C   0  0  0  0  0  0  0  0  0  0  0  0
  -19.8093  -39.2900   -8.0153 C   0  0  0  0  0  0  0  0  0  0  0  0
  -19.9995  -38.0342   -7.4053 C   0  0  0  0  0  0  0  0  0  0  0  0
  -21.0747  -37.6934   -6.6255 C   0  0  0  0  0  0  0  0  0  0  0  0
  -21.9991  -38.6980   -6.4676 C   0  0  0  0  0  0  0  0  0  0  0  0
  -21.8691  -39.9707   -7.0494 C   0  0  0  0  0  0  0  0  0  0  0  0
  -20.7617  -40.2547   -7.8255 C   0  0  0  0  0  0  0  0  0  0  0  0
  -22.9407  -40.7705   -6.7203 O   0  0  0  0  0  0  0  0  0  0  0  0
  -23.8700  -41.5738   -7.3238 C   0  0  0  0  0  0  0  0  0  0  0  0
  -23.4006  -42.1139   -8.6240 C   0  0  0  0  0  0  0  0  0  0  0  0
  -22.6304  -43.3862   -8.5814 C   0  0  0  0  0  0  0  0  0  0  0  0
  -21.9374  -43.7050   -7.3051 C   0  0  0  0  0  0  0  0  0  0  0  0
  -20.4830  -44.6916   -7.4743 S   0  0  0  0  0  6  0  0  0  0  0  0
  -19.9626  -44.9457   -6.0713 O   0  0  0  0  0  0  0  0  0  0  0  0
  -20.9349  -46.0456   -8.0080 O   0  0  0  0  0  0  0  0  0  0  0  0
  -19.2588  -44.0211   -8.5309 C   0  0  0  0  0  0  0  0  0  0  0  0
  -18.0120  -43.5820   -7.7771 C   0  0  1  0  0  0  0  0  0  0  0  0
  -16.8417  -43.5956   -8.6817 C   0  0  0  0  0  0  0  0  0  0  0  0
  -18.2788  -42.3530   -7.0582 C   0  0  0  0  0  0  0  0  0  0  0  0
  -19.1354  -42.4633   -6.1020 O   0  0  0  0  0  0  0  0  0  0  0  0
  -17.7626  -41.0621   -7.2247 N   0  0  0  0  0  0  0  0  0  0  0  0
  1  2  1  0
  2  3  1  0
  3  4  1  0
  4  5  1  0
  5  6  1  0
  6  7  2  0
  6  8  1  0
  8  9  1  6
  8 10  1  0
 10 11  1  0
 11 12  1  1
 11 13  1  0
 13 14  1  1
 14 15  1  0
 15 16  2  0
 16 17  1  0
 17 18  2  0
 18 19  1  0
 19 20  2  0
 19 21  1  0
 21 22  1  0
 22 23  1  0
 23 24  1  0
 24 25  1  0
 25 26  1  0
 26 27  2  0
 26 28  2  0
 26 29  1  0
 29 30  1  0
 30 31  1  6
 30 32  1  0
 32 33  2  0
 32 34  1  0
 20 15  1  0
 34 13  1  0
M  END
$$$$
