
     RDKit          3D

 34 35  0  0  0  0  0  0  0  0999 V2000
  -13.7697  -33.3752  -12.1670 C   0  0  0  0  0  0  0  0  0  0  0  0
  -14.5373  -34.4399  -11.4668 C   0  0  0  0  0  0  0  0  0  0  0  0
  -14.6426  -35.7271  -12.2003 C   0  0  0  0  0  0  0  0  0  0  0  0
  -13.5810  -36.7298  -11.9286 C   0  0  0  0  0  0  0  0  0  0  0  0
  -13.6904  -37.3734  -10.6591 N   0  0  0  0  0  0  0  0  0  0  0  0
  -14.1277  -38.7391  -10.5411 C   0  0  0  0  0  0  0  0  0  0  0  0
  -13.9461  -39.4895  -11.5257 O   0  0  0  0  0  0  0  0  0  0  0  0
  -14.7549  -39.1502   -9.2754 C   0  0  2  0  0  0  0  0  0  0  0  0
  -13.7726  -39.8181   -8.3222 C   0  0  0  0  0  0  0  0  0  0  0  0
  -16.0040  -39.9860   -9.4434 C   0  0  0  0  0  0  0  0  0  0  0  0
  -17.2001  -39.2697   -8.9034 C   0  0  2  0  0  0  0  0  0  0  0  0
  -16.7878  -38.5522   -7.7475 O   0  0  0  0  0  0  0  0  0  0  0  0
  -18.3428  -40.1629   -8.5254 C   0  0  2  0  0  0  0  0  0  0  0  0
  -19.6744  -39.4864   -8.4590 C   0  0  0  0  0  0  0  0  0  0  0  0
  -20.5828  -39.7885   -7.3214 C   0  0  0  0  0  0  0  0  0  0  0  0
  -20.8834  -38.6290   -6.5794 C   0  0  0  0  0  0  0  0  0  0  0  0
  -21.6931  -38.5910   -5.4734 C   0  0  0  0  0  0  0  0  0  0  0  0
  -22.2184  -39.8096   -5.1157 C   0  0  0  0  0  0  0  0  0  0  0  0
  -21.9587  -41.0017   -5.8134 C   0  0  0  0  0  0  0  0  0  0  0  0
  -21.1334  -40.9761   -6.9215 C   0  0  0  0  0  0  0  0  0  0  0  0
  -22.6150  -42.0625   -5.2302 O   0  0  0  0  0  0  0  0  0  0  0  0
  -23.4468  -43.0938   -5.5733 C   0  0  0  0  0  0  0  0  0  0  0  0
  -23.3056  -43.4928   -6.9959 C   0  0  0  0  0  0  0  0  0  0  0  0
  -22.2602  -44.5049   -7.3065 C   0  0  0  0  0  0  0  0  0  0  0  0
  -21.1294  -44.6130   -6.3471 C   0  0  0  0  0  0  0  0  0  0  0  0
  -19.6066  -45.1641   -7.0506 S   0  0  0  0  0  6  0  0  0  0  0  0
  -18.6080  -45.2567   -5.9114 O   0  0  0  0  0  0  0  0  0  0  0  0
  -19.8383  -46.5935   -7.5253 O   0  0  0  0  0  0  0  0  0  0  0  0
  -19.0165  -44.1905   -8.3804 C   0  0  0  0  0  0  0  0  0  0  0  0
  -17.7520  -43.4214   -8.0264 C   0  0  1  0  0  0  0  0  0  0  0  0
  -16.9824  -43.1195   -9.2530 C   0  0  0  0  0  0  0  0  0  0  0  0
  -18.0796  -42.3081   -7.1595 C   0  0  0  0  0  0  0  0  0  0  0  0
  -18.5153  -42.6428   -5.9939 O   0  0  0  0  0  0  0  0  0  0  0  0
  -18.0026  -40.9262   -7.3719 N   0  0  0  0  0  0  0  0  0  0  0  0
  1  2  1  0
  2  3  1  0
  3  4  1  0
  4  5  1  0
  5  6  1  0
  6  7  2  0
  6  8  1  0
  8  9  1  1
  8 10  1  0
 10 11  1  0
 11 12  1  1
 11 13  1  0
 13 14  1  1
 14 15  1  0
 15 16  2  0
 16 17  1  0
 17 18  2  0
 18 19  1  0
 19 20  2  0
 19 21  1  0
 21 22  1  0
 22 23  1  0
 23 24  1  0
 24 25  1  0
 25 26  1  0
 26 27  2  0
 26 28  2  0
 26 29  1  0
 29 30  1  0
 30 31  1  6
 30 32  1  0
 32 33  2  0
 32 34  1  0
 20 15  1  0
 34 13  1  0
M  END
$$$$
