
     RDKit          3D

 34 35  0  0  0  0  0  0  0  0999 V2000
  -10.1195  -36.5873  -12.1748 C   0  0  0  0  0  0  0  0  0  0  0  0
  -11.1699  -37.6407  -12.1797 C   0  0  0  0  0  0  0  0  0  0  0  0
  -12.4584  -37.2430  -12.8022 C   0  0  0  0  0  0  0  0  0  0  0  0
  -13.4598  -38.3233  -12.9936 C   0  0  0  0  0  0  0  0  0  0  0  0
  -13.7902  -39.0372  -11.8024 N   0  0  0  0  0  0  0  0  0  0  0  0
  -14.5968  -38.4459  -10.7679 C   0  0  0  0  0  0  0  0  0  0  0  0
  -15.6478  -37.8643  -11.1184 O   0  0  0  0  0  0  0  0  0  0  0  0
  -14.1267  -38.5680   -9.3793 C   0  0  2  0  0  0  0  0  0  0  0  0
  -12.6269  -38.8164   -9.2859 C   0  0  0  0  0  0  0  0  0  0  0  0
  -14.8970  -39.5695   -8.5482 C   0  0  0  0  0  0  0  0  0  0  0  0
  -16.1135  -38.9399   -7.9490 C   0  0  2  0  0  0  0  0  0  0  0  0
  -15.8693  -38.7658   -6.5594 O   0  0  0  0  0  0  0  0  0  0  0  0
  -17.3723  -39.7368   -8.1137 C   0  0  2  0  0  0  0  0  0  0  0  0
  -18.6028  -38.9246   -8.3617 C   0  0  0  0  0  0  0  0  0  0  0  0
  -19.8565  -39.2737   -7.6428 C   0  0  0  0  0  0  0  0  0  0  0  0
  -20.3118  -38.2018   -6.8495 C   0  0  0  0  0  0  0  0  0  0  0  0
  -21.4400  -38.2237   -6.0705 C   0  0  0  0  0  0  0  0  0  0  0  0
  -22.1325  -39.4101   -6.1124 C   0  0  0  0  0  0  0  0  0  0  0  0
  -21.7326  -40.5153   -6.8830 C   0  0  0  0  0  0  0  0  0  0  0  0
  -20.5849  -40.4325   -7.6480 C   0  0  0  0  0  0  0  0  0  0  0  0
  -22.6134  -41.5627   -6.7295 O   0  0  0  0  0  0  0  0  0  0  0  0
  -23.3479  -42.4312   -7.4906 C   0  0  0  0  0  0  0  0  0  0  0  0
  -22.7660  -42.6417   -8.8397 C   0  0  0  0  0  0  0  0  0  0  0  0
  -21.7448  -43.7162   -8.9678 C   0  0  0  0  0  0  0  0  0  0  0  0
  -21.0090  -44.0891   -7.7308 C   0  0  0  0  0  0  0  0  0  0  0  0
  -19.3778  -44.7116   -7.9943 S   0  0  0  0  0  6  0  0  0  0  0  0
  -18.8252  -45.0787   -6.6292 O   0  0  0  0  0  0  0  0  0  0  0  0
  -19.5299  -46.0236   -8.7543 O   0  0  0  0  0  0  0  0  0  0  0  0
  -18.3157  -43.6380   -8.8797 C   0  0  0  0  0  0  0  0  0  0  0  0
  -17.1949  -43.0797   -8.0150 C   0  0  1  0  0  0  0  0  0  0  0  0
  -16.0419  -42.7020   -8.8612 C   0  0  0  0  0  0  0  0  0  0  0  0
  -17.7202  -42.0674   -7.1217 C   0  0  0  0  0  0  0  0  0  0  0  0
  -18.5408  -42.5080   -6.2313 O   0  0  0  0  0  0  0  0  0  0  0  0
  -17.4872  -40.6881   -7.0598 N   0  0  0  0  0  0  0  0  0  0  0  0
  1  2  1  0
  2  3  1  0
  3  4  1  0
  4  5  1  0
  5  6  1  0
  6  7  2  0
  6  8  1  0
  8  9  1  6
  8 10  1  0
 10 11  1  0
 11 12  1  1
 11 13  1  0
 13 14  1  1
 14 15  1  0
 15 16  2  0
 16 17  1  0
 17 18  2  0
 18 19  1  0
 19 20  2  0
 19 21  1  0
 21 22  1  0
 22 23  1  0
 23 24  1  0
 24 25  1  0
 25 26  1  0
 26 27  2  0
 26 28  2  0
 26 29  1  0
 29 30  1  0
 30 31  1  6
 30 32  1  0
 32 33  2  0
 32 34  1  0
 20 15  1  0
 34 13  1  0
M  END
$$$$
