
     RDKit          3D

 34 35  0  0  0  0  0  0  0  0999 V2000
  -14.0080  -34.0898  -12.3957 C   0  0  0  0  0  0  0  0  0  0  0  0
  -13.1852  -35.2979  -12.6723 C   0  0  0  0  0  0  0  0  0  0  0  0
  -12.6698  -35.9986  -11.4684 C   0  0  0  0  0  0  0  0  0  0  0  0
  -12.8742  -37.4691  -11.4230 C   0  0  0  0  0  0  0  0  0  0  0  0
  -14.1737  -37.8695  -10.9886 N   0  0  0  0  0  0  0  0  0  0  0  0
  -14.4312  -39.2009  -10.5077 C   0  0  0  0  0  0  0  0  0  0  0  0
  -15.0339  -39.9843  -11.2750 O   0  0  0  0  0  0  0  0  0  0  0  0
  -13.9688  -39.5411   -9.1531 C   0  0  2  0  0  0  0  0  0  0  0  0
  -12.6918  -40.3711   -9.1589 C   0  0  0  0  0  0  0  0  0  0  0  0
  -15.0257  -40.1746   -8.2764 C   0  0  0  0  0  0  0  0  0  0  0  0
  -16.2591  -39.3306   -8.2357 C   0  0  2  0  0  0  0  0  0  0  0  0
  -16.2471  -38.6080   -7.0115 O   0  0  0  0  0  0  0  0  0  0  0  0
  -17.5429  -40.0995   -8.3207 C   0  0  2  0  0  0  0  0  0  0  0  0
  -18.7238  -39.3033   -8.7753 C   0  0  0  0  0  0  0  0  0  0  0  0
  -20.0232  -39.4717   -8.0726 C   0  0  0  0  0  0  0  0  0  0  0  0
  -20.4665  -38.2583   -7.5101 C   0  0  0  0  0  0  0  0  0  0  0  0
  -21.6290  -38.0986   -6.8006 C   0  0  0  0  0  0  0  0  0  0  0  0
  -22.3704  -39.2479   -6.6650 C   0  0  0  0  0  0  0  0  0  0  0  0
  -21.9849  -40.4881   -7.2021 C   0  0  0  0  0  0  0  0  0  0  0  0
  -20.8009  -40.5860   -7.9078 C   0  0  0  0  0  0  0  0  0  0  0  0
  -22.9169  -41.4586   -6.9095 O   0  0  0  0  0  0  0  0  0  0  0  0
  -23.6535  -42.4247   -7.5399 C   0  0  0  0  0  0  0  0  0  0  0  0
  -23.0205  -42.8972   -8.7964 C   0  0  0  0  0  0  0  0  0  0  0  0
  -22.0429  -44.0121   -8.6752 C   0  0  0  0  0  0  0  0  0  0  0  0
  -21.3813  -44.1796   -7.3542 C   0  0  0  0  0  0  0  0  0  0  0  0
  -19.7688  -44.8963   -7.4150 S   0  0  0  0  0  6  0  0  0  0  0  0
  -19.2958  -45.0284   -5.9789 O   0  0  0  0  0  0  0  0  0  0  0  0
  -19.9437  -46.3185   -7.9337 O   0  0  0  0  0  0  0  0  0  0  0  0
  -18.6212  -44.0395   -8.4216 C   0  0  0  0  0  0  0  0  0  0  0  0
  -17.5175  -43.3729   -7.6134 C   0  0  1  0  0  0  0  0  0  0  0  0
  -16.3116  -43.1960   -8.4516 C   0  0  0  0  0  0  0  0  0  0  0  0
  -18.0379  -42.1974   -6.9456 C   0  0  0  0  0  0  0  0  0  0  0  0
  -18.9169  -42.4398   -6.0351 O   0  0  0  0  0  0  0  0  0  0  0  0
  -17.7475  -40.8388   -7.1204 N   0  0  0  0  0  0  0  0  0  0  0  0
  1  2  1  0
  2  3  1  0
  3  4  1  0
  4  5  1  0
  5  6  1  0
  6  7  2  0
  6  8  1  0
  8  9  1  6
  8 10  1  0
 10 11  1  0
 11 12  1  1
 11 13  1  0
 13 14  1  1
 14 15  1  0
 15 16  2  0
 16 17  1  0
 17 18  2  0
 18 19  1  0
 19 20  2  0
 19 21  1  0
 21 22  1  0
 22 23  1  0
 23 24  1  0
 24 25  1  0
 25 26  1  0
 26 27  2  0
 26 28  2  0
 26 29  1  0
 29 30  1  0
 30 31  1  6
 30 32  1  0
 32 33  2  0
 32 34  1  0
 20 15  1  0
 34 13  1  0
M  END
$$$$
