
     RDKit          3D

 34 35  0  0  0  0  0  0  0  0999 V2000
  -11.9943  -35.1011  -13.4243 C   0  0  0  0  0  0  0  0  0  0  0  0
  -13.1507  -35.6292  -12.6520 C   0  0  0  0  0  0  0  0  0  0  0  0
  -12.7948  -36.4541  -11.4692 C   0  0  0  0  0  0  0  0  0  0  0  0
  -12.9880  -37.9205  -11.6055 C   0  0  0  0  0  0  0  0  0  0  0  0
  -12.9828  -38.6323  -10.3681 N   0  0  0  0  0  0  0  0  0  0  0  0
  -13.9136  -39.6979  -10.1070 C   0  0  0  0  0  0  0  0  0  0  0  0
  -14.5073  -40.1978  -11.0885 O   0  0  0  0  0  0  0  0  0  0  0  0
  -14.0984  -40.1187   -8.7095 C   0  0  2  0  0  0  0  0  0  0  0  0
  -12.9252  -40.9335   -8.1808 C   0  0  0  0  0  0  0  0  0  0  0  0
  -15.4120  -40.8175   -8.4393 C   0  0  0  0  0  0  0  0  0  0  0  0
  -16.5372  -39.8343   -8.3891 C   0  0  2  0  0  0  0  0  0  0  0  0
  -16.3600  -39.0348   -7.2270 O   0  0  0  0  0  0  0  0  0  0  0  0
  -17.9019  -40.4518   -8.3370 C   0  0  2  0  0  0  0  0  0  0  0  0
  -19.0235  -39.5293   -8.6925 C   0  0  0  0  0  0  0  0  0  0  0  0
  -20.2596  -39.5421   -7.8664 C   0  0  0  0  0  0  0  0  0  0  0  0
  -20.5063  -38.2814   -7.2876 C   0  0  0  0  0  0  0  0  0  0  0  0
  -21.5693  -37.9840   -6.4740 C   0  0  0  0  0  0  0  0  0  0  0  0
  -22.4194  -39.0396   -6.2467 C   0  0  0  0  0  0  0  0  0  0  0  0
  -22.2304  -40.3201   -6.7943 C   0  0  0  0  0  0  0  0  0  0  0  0
  -21.1388  -40.5587   -7.6073 C   0  0  0  0  0  0  0  0  0  0  0  0
  -23.2337  -41.1751   -6.3961 O   0  0  0  0  0  0  0  0  0  0  0  0
  -24.1323  -42.0556   -6.9350 C   0  0  0  0  0  0  0  0  0  0  0  0
  -23.6812  -42.6076   -8.2368 C   0  0  0  0  0  0  0  0  0  0  0  0
  -22.8289  -43.8262   -8.1878 C   0  0  0  0  0  0  0  0  0  0  0  0
  -22.0661  -44.0576   -6.9326 C   0  0  0  0  0  0  0  0  0  0  0  0
  -20.5586  -44.9547   -7.1326 S   0  0  0  0  0  6  0  0  0  0  0  0
  -19.9671  -45.1284   -5.7457 O   0  0  0  0  0  0  0  0  0  0  0  0
  -20.9426  -46.3516   -7.6052 O   0  0  0  0  0  0  0  0  0  0  0  0
  -19.4239  -44.2431   -8.2599 C   0  0  0  0  0  0  0  0  0  0  0  0
  -18.1790  -43.7007   -7.5730 C   0  0  1  0  0  0  0  0  0  0  0  0
  -17.0475  -43.6698   -8.5253 C   0  0  0  0  0  0  0  0  0  0  0  0
  -18.4961  -42.4680   -6.8814 C   0  0  0  0  0  0  0  0  0  0  0  0
  -19.3048  -42.6007   -5.8871 O   0  0  0  0  0  0  0  0  0  0  0  0
  -18.0720  -41.1530   -7.1089 N   0  0  0  0  0  0  0  0  0  0  0  0
  1  2  1  0
  2  3  1  0
  3  4  1  0
  4  5  1  0
  5  6  1  0
  6  7  2  0
  6  8  1  0
  8  9  1  6
  8 10  1  0
 10 11  1  0
 11 12  1  1
 11 13  1  0
 13 14  1  1
 14 15  1  0
 15 16  2  0
 16 17  1  0
 17 18  2  0
 18 19  1  0
 19 20  2  0
 19 21  1  0
 21 22  1  0
 22 23  1  0
 23 24  1  0
 24 25  1  0
 25 26  1  0
 26 27  2  0
 26 28  2  0
 26 29  1  0
 29 30  1  0
 30 31  1  6
 30 32  1  0
 32 33  2  0
 32 34  1  0
 20 15  1  0
 34 13  1  0
M  END
$$$$
