
     RDKit          3D

 34 35  0  0  0  0  0  0  0  0999 V2000
  -14.0883  -35.5112  -14.1501 C   0  0  0  0  0  0  0  0  0  0  0  0
  -13.2115  -34.9266  -13.1000 C   0  0  0  0  0  0  0  0  0  0  0  0
  -12.9763  -35.7963  -11.9193 C   0  0  0  0  0  0  0  0  0  0  0  0
  -14.1440  -36.5723  -11.4286 C   0  0  0  0  0  0  0  0  0  0  0  0
  -13.8830  -37.3546  -10.2634 N   0  0  0  0  0  0  0  0  0  0  0  0
  -14.3312  -38.7175  -10.1541 C   0  0  0  0  0  0  0  0  0  0  0  0
  -14.9532  -39.1994  -11.1270 O   0  0  0  0  0  0  0  0  0  0  0  0
  -14.0263  -39.4409   -8.9099 C   0  0  2  0  0  0  0  0  0  0  0  0
  -12.6788  -40.1492   -8.9566 C   0  0  0  0  0  0  0  0  0  0  0  0
  -15.1196  -40.3808   -8.4535 C   0  0  0  0  0  0  0  0  0  0  0  0
  -16.3143  -39.6170   -7.9795 C   0  0  2  0  0  0  0  0  0  0  0  0
  -16.0815  -39.2481   -6.6265 O   0  0  0  0  0  0  0  0  0  0  0  0
  -17.6057  -40.3744   -8.0497 C   0  0  2  0  0  0  0  0  0  0  0  0
  -18.7790  -39.5749   -8.5181 C   0  0  0  0  0  0  0  0  0  0  0  0
  -20.0794  -39.7175   -7.8117 C   0  0  0  0  0  0  0  0  0  0  0  0
  -20.5103  -38.4896   -7.2713 C   0  0  0  0  0  0  0  0  0  0  0  0
  -21.6706  -38.3055   -6.5641 C   0  0  0  0  0  0  0  0  0  0  0  0
  -22.4232  -39.4446   -6.4072 C   0  0  0  0  0  0  0  0  0  0  0  0
  -22.0505  -40.6982   -6.9218 C   0  0  0  0  0  0  0  0  0  0  0  0
  -20.8681  -40.8208   -7.6263 C   0  0  0  0  0  0  0  0  0  0  0  0
  -22.9920  -41.6538   -6.6111 O   0  0  0  0  0  0  0  0  0  0  0  0
  -23.7386  -42.6239   -7.2232 C   0  0  0  0  0  0  0  0  0  0  0  0
  -23.1113  -43.1255   -8.4713 C   0  0  0  0  0  0  0  0  0  0  0  0
  -22.1447  -44.2478   -8.3303 C   0  0  0  0  0  0  0  0  0  0  0  0
  -21.4839  -44.3977   -7.0069 C   0  0  0  0  0  0  0  0  0  0  0  0
  -19.8787  -45.1315   -7.0554 S   0  0  0  0  0  6  0  0  0  0  0  0
  -19.4059  -45.2420   -5.6174 O   0  0  0  0  0  0  0  0  0  0  0  0
  -20.0681  -46.5610   -7.5480 O   0  0  0  0  0  0  0  0  0  0  0  0
  -18.7233  -44.3046   -8.0781 C   0  0  0  0  0  0  0  0  0  0  0  0
  -17.6124  -43.6344   -7.2828 C   0  0  1  0  0  0  0  0  0  0  0  0
  -16.4055  -43.4849   -8.1248 C   0  0  0  0  0  0  0  0  0  0  0  0
  -18.1206  -42.4418   -6.6364 C   0  0  0  0  0  0  0  0  0  0  0  0
  -19.0013  -42.6587   -5.7211 O   0  0  0  0  0  0  0  0  0  0  0  0
  -17.8168  -41.0896   -6.8361 N   0  0  0  0  0  0  0  0  0  0  0  0
  1  2  1  0
  2  3  1  0
  3  4  1  0
  4  5  1  0
  5  6  1  0
  6  7  2  0
  6  8  1  0
  8  9  1  6
  8 10  1  0
 10 11  1  0
 11 12  1  1
 11 13  1  0
 13 14  1  1
 14 15  1  0
 15 16  2  0
 16 17  1  0
 17 18  2  0
 18 19  1  0
 19 20  2  0
 19 21  1  0
 21 22  1  0
 22 23  1  0
 23 24  1  0
 24 25  1  0
 25 26  1  0
 26 27  2  0
 26 28  2  0
 26 29  1  0
 29 30  1  0
 30 31  1  6
 30 32  1  0
 32 33  2  0
 32 34  1  0
 20 15  1  0
 34 13  1  0
M  END
$$$$
