
     RDKit          3D

 34 35  0  0  0  0  0  0  0  0999 V2000
  -12.5089  -34.7570  -13.7072 C   0  0  0  0  0  0  0  0  0  0  0  0
  -11.5525  -35.8392  -13.3509 C   0  0  0  0  0  0  0  0  0  0  0  0
  -11.9268  -36.6443  -12.1602 C   0  0  0  0  0  0  0  0  0  0  0  0
  -13.3288  -37.1322  -12.1080 C   0  0  0  0  0  0  0  0  0  0  0  0
  -13.7281  -37.6404  -10.8353 N   0  0  0  0  0  0  0  0  0  0  0  0
  -14.3058  -38.9506  -10.6938 C   0  0  0  0  0  0  0  0  0  0  0  0
  -14.9016  -39.4278  -11.6853 O   0  0  0  0  0  0  0  0  0  0  0  0
  -14.1544  -39.6294   -9.3975 C   0  0  2  0  0  0  0  0  0  0  0  0
  -12.8863  -40.4693   -9.3182 C   0  0  0  0  0  0  0  0  0  0  0  0
  -15.3644  -40.4292   -8.9695 C   0  0  0  0  0  0  0  0  0  0  0  0
  -16.5303  -39.5307   -8.7071 C   0  0  2  0  0  0  0  0  0  0  0  0
  -16.2320  -38.7644   -7.5474 O   0  0  0  0  0  0  0  0  0  0  0  0
  -17.8289  -40.2449   -8.4832 C   0  0  2  0  0  0  0  0  0  0  0  0
  -19.0491  -39.3961   -8.6435 C   0  0  0  0  0  0  0  0  0  0  0  0
  -20.1496  -39.5174   -7.6512 C   0  0  0  0  0  0  0  0  0  0  0  0
  -20.3942  -38.2922   -6.9997 C   0  0  0  0  0  0  0  0  0  0  0  0
  -21.3463  -38.0914   -6.0336 C   0  0  0  0  0  0  0  0  0  0  0  0
  -22.0822  -39.2103   -5.7247 C   0  0  0  0  0  0  0  0  0  0  0  0
  -21.8889  -40.4601   -6.3376 C   0  0  0  0  0  0  0  0  0  0  0  0
  -20.9124  -40.6001   -7.3053 C   0  0  0  0  0  0  0  0  0  0  0  0
  -22.7648  -41.3939   -5.8309 O   0  0  0  0  0  0  0  0  0  0  0  0
  -23.6708  -42.3225   -6.2670 C   0  0  0  0  0  0  0  0  0  0  0  0
  -23.3760  -42.8086   -7.6380 C   0  0  0  0  0  0  0  0  0  0  0  0
  -22.4460  -43.9642   -7.7529 C   0  0  0  0  0  0  0  0  0  0  0  0
  -21.4965  -44.1717   -6.6277 C   0  0  0  0  0  0  0  0  0  0  0  0
  -19.9769  -44.9540   -7.0708 S   0  0  0  0  0  6  0  0  0  0  0  0
  -19.1814  -45.1195   -5.7888 O   0  0  0  0  0  0  0  0  0  0  0  0
  -20.3306  -46.3626   -7.5322 O   0  0  0  0  0  0  0  0  0  0  0  0
  -19.0667  -44.1357   -8.3224 C   0  0  0  0  0  0  0  0  0  0  0  0
  -17.7749  -43.5233   -7.8009 C   0  0  1  0  0  0  0  0  0  0  0  0
  -16.7971  -43.3883   -8.9025 C   0  0  0  0  0  0  0  0  0  0  0  0
  -18.0708  -42.3338   -7.0289 C   0  0  0  0  0  0  0  0  0  0  0  0
  -18.7171  -42.5483   -5.9349 O   0  0  0  0  0  0  0  0  0  0  0  0
  -17.7729  -40.9868   -7.2685 N   0  0  0  0  0  0  0  0  0  0  0  0
  1  2  1  0
  2  3  1  0
  3  4  1  0
  4  5  1  0
  5  6  1  0
  6  7  2  0
  6  8  1  0
  8  9  1  6
  8 10  1  0
 10 11  1  0
 11 12  1  1
 11 13  1  0
 13 14  1  1
 14 15  1  0
 15 16  2  0
 16 17  1  0
 17 18  2  0
 18 19  1  0
 19 20  2  0
 19 21  1  0
 21 22  1  0
 22 23  1  0
 23 24  1  0
 24 25  1  0
 25 26  1  0
 26 27  2  0
 26 28  2  0
 26 29  1  0
 29 30  1  0
 30 31  1  6
 30 32  1  0
 32 33  2  0
 32 34  1  0
 20 15  1  0
 34 13  1  0
M  END
$$$$
