
     RDKit          3D

 34 35  0  0  0  0  0  0  0  0999 V2000
  -11.4690  -35.0842  -13.4710 C   0  0  0  0  0  0  0  0  0  0  0  0
  -11.7140  -35.9937  -12.3196 C   0  0  0  0  0  0  0  0  0  0  0  0
  -12.9880  -35.7609  -11.5925 C   0  0  0  0  0  0  0  0  0  0  0  0
  -13.9648  -36.8799  -11.5982 C   0  0  0  0  0  0  0  0  0  0  0  0
  -13.7447  -37.8584  -10.5825 N   0  0  0  0  0  0  0  0  0  0  0  0
  -14.5817  -39.0227  -10.4628 C   0  0  0  0  0  0  0  0  0  0  0  0
  -15.5223  -39.1426  -11.2792 O   0  0  0  0  0  0  0  0  0  0  0  0
  -14.2707  -39.9823   -9.3920 C   0  0  2  0  0  0  0  0  0  0  0  0
  -13.3009  -41.0683   -9.8390 C   0  0  0  0  0  0  0  0  0  0  0  0
  -15.4869  -40.5812   -8.7216 C   0  0  0  0  0  0  0  0  0  0  0  0
  -16.6503  -39.6451   -8.7960 C   0  0  2  0  0  0  0  0  0  0  0  0
  -16.4552  -38.6354   -7.8145 O   0  0  0  0  0  0  0  0  0  0  0  0
  -17.9831  -40.2881   -8.5573 C   0  0  2  0  0  0  0  0  0  0  0  0
  -19.1627  -39.4365   -8.9018 C   0  0  0  0  0  0  0  0  0  0  0  0
  -20.3204  -39.3940   -7.9698 C   0  0  0  0  0  0  0  0  0  0  0  0
  -20.5588  -38.0862   -7.5027 C   0  0  0  0  0  0  0  0  0  0  0  0
  -21.5559  -37.7321   -6.6306 C   0  0  0  0  0  0  0  0  0  0  0  0
  -22.3458  -38.7793   -6.2204 C   0  0  0  0  0  0  0  0  0  0  0  0
  -22.1614  -40.1049   -6.6492 C   0  0  0  0  0  0  0  0  0  0  0  0
  -21.1378  -40.3997   -7.5294 C   0  0  0  0  0  0  0  0  0  0  0  0
  -23.0958  -40.9385   -6.0762 O   0  0  0  0  0  0  0  0  0  0  0  0
  -24.0072  -41.8931   -6.4386 C   0  0  0  0  0  0  0  0  0  0  0  0
  -23.6533  -42.5669   -7.7127 C   0  0  0  0  0  0  0  0  0  0  0  0
  -22.7584  -43.7517   -7.6172 C   0  0  0  0  0  0  0  0  0  0  0  0
  -21.8809  -43.8309   -6.4196 C   0  0  0  0  0  0  0  0  0  0  0  0
  -20.3666  -44.7057   -6.6630 S   0  0  0  0  0  6  0  0  0  0  0  0
  -19.6500  -44.7181   -5.3252 O   0  0  0  0  0  0  0  0  0  0  0  0
  -20.7421  -46.1537   -6.9536 O   0  0  0  0  0  0  0  0  0  0  0  0
  -19.3605  -44.0877   -7.9555 C   0  0  0  0  0  0  0  0  0  0  0  0
  -18.0796  -43.4450   -7.4436 C   0  0  1  0  0  0  0  0  0  0  0  0
  -17.0378  -43.4855   -8.4929 C   0  0  0  0  0  0  0  0  0  0  0  0
  -18.3772  -42.1550   -6.8555 C   0  0  0  0  0  0  0  0  0  0  0  0
  -19.0905  -42.2032   -5.7835 O   0  0  0  0  0  0  0  0  0  0  0  0
  -18.0204  -40.8609   -7.2537 N   0  0  0  0  0  0  0  0  0  0  0  0
  1  2  1  0
  2  3  1  0
  3  4  1  0
  4  5  1  0
  5  6  1  0
  6  7  2  0
  6  8  1  0
  8  9  1  6
  8 10  1  0
 10 11  1  0
 11 12  1  1
 11 13  1  0
 13 14  1  1
 14 15  1  0
 15 16  2  0
 16 17  1  0
 17 18  2  0
 18 19  1  0
 19 20  2  0
 19 21  1  0
 21 22  1  0
 22 23  1  0
 23 24  1  0
 24 25  1  0
 25 26  1  0
 26 27  2  0
 26 28  2  0
 26 29  1  0
 29 30  1  0
 30 31  1  6
 30 32  1  0
 32 33  2  0
 32 34  1  0
 20 15  1  0
 34 13  1  0
M  END
$$$$
