
     RDKit          3D

 34 35  0  0  0  0  0  0  0  0999 V2000
  -10.5346  -35.8168  -13.5499 C   0  0  0  0  0  0  0  0  0  0  0  0
  -11.8551  -35.6846  -12.8779 C   0  0  0  0  0  0  0  0  0  0  0  0
  -12.6229  -36.9488  -12.7427 C   0  0  0  0  0  0  0  0  0  0  0  0
  -12.3926  -37.7308  -11.5010 C   0  0  0  0  0  0  0  0  0  0  0  0
  -13.5726  -37.9874  -10.7398 N   0  0  0  0  0  0  0  0  0  0  0  0
  -14.0403  -39.3272  -10.5022 C   0  0  0  0  0  0  0  0  0  0  0  0
  -14.7922  -39.8363  -11.3631 O   0  0  0  0  0  0  0  0  0  0  0  0
  -13.6017  -39.9967   -9.2678 C   0  0  2  0  0  0  0  0  0  0  0  0
  -12.6323  -41.1413   -9.5323 C   0  0  0  0  0  0  0  0  0  0  0  0
  -14.7318  -40.4384   -8.3650 C   0  0  0  0  0  0  0  0  0  0  0  0
  -15.8293  -39.4232   -8.3511 C   0  0  2  0  0  0  0  0  0  0  0  0
  -15.8218  -38.7972   -7.0747 O   0  0  0  0  0  0  0  0  0  0  0  0
  -17.1979  -39.9824   -8.5976 C   0  0  2  0  0  0  0  0  0  0  0  0
  -18.2196  -38.9783   -9.0256 C   0  0  0  0  0  0  0  0  0  0  0  0
  -19.5780  -39.0273   -8.4231 C   0  0  0  0  0  0  0  0  0  0  0  0
  -19.8882  -37.8279   -7.7519 C   0  0  0  0  0  0  0  0  0  0  0  0
  -21.0662  -37.5750   -7.0972 C   0  0  0  0  0  0  0  0  0  0  0  0
  -21.9684  -38.6110   -7.1373 C   0  0  0  0  0  0  0  0  0  0  0  0
  -21.7209  -39.8309   -7.7897 C   0  0  0  0  0  0  0  0  0  0  0  0
  -20.5134  -40.0267   -8.4324 C   0  0  0  0  0  0  0  0  0  0  0  0
  -22.7981  -40.6796   -7.6646 O   0  0  0  0  0  0  0  0  0  0  0  0
  -23.6136  -41.4556   -8.4430 C   0  0  0  0  0  0  0  0  0  0  0  0
  -22.9618  -41.8812   -9.7067 C   0  0  0  0  0  0  0  0  0  0  0  0
  -22.1606  -43.1339   -9.6577 C   0  0  0  0  0  0  0  0  0  0  0  0
  -21.6279  -43.5344   -8.3285 C   0  0  0  0  0  0  0  0  0  0  0  0
  -20.1310  -44.4694   -8.3776 S   0  0  0  0  0  6  0  0  0  0  0  0
  -19.7880  -44.8195   -6.9412 O   0  0  0  0  0  0  0  0  0  0  0  0
  -20.4636  -45.7881   -9.0650 O   0  0  0  0  0  0  0  0  0  0  0  0
  -18.8042  -43.6891   -9.2114 C   0  0  0  0  0  0  0  0  0  0  0  0
  -17.6809  -43.2801   -8.2697 C   0  0  1  0  0  0  0  0  0  0  0  0
  -16.4037  -43.1948   -9.0110 C   0  0  0  0  0  0  0  0  0  0  0  0
  -18.0803  -42.1178   -7.5029 C   0  0  0  0  0  0  0  0  0  0  0  0
  -19.0491  -42.3229   -6.6785 O   0  0  0  0  0  0  0  0  0  0  0  0
  -17.5914  -40.8057   -7.5039 N   0  0  0  0  0  0  0  0  0  0  0  0
  1  2  1  0
  2  3  1  0
  3  4  1  0
  4  5  1  0
  5  6  1  0
  6  7  2  0
  6  8  1  0
  8  9  1  6
  8 10  1  0
 10 11  1  0
 11 12  1  1
 11 13  1  0
 13 14  1  1
 14 15  1  0
 15 16  2  0
 16 17  1  0
 17 18  2  0
 18 19  1  0
 19 20  2  0
 19 21  1  0
 21 22  1  0
 22 23  1  0
 23 24  1  0
 24 25  1  0
 25 26  1  0
 26 27  2  0
 26 28  2  0
 26 29  1  0
 29 30  1  0
 30 31  1  6
 30 32  1  0
 32 33  2  0
 32 34  1  0
 20 15  1  0
 34 13  1  0
M  END
$$$$
