
     RDKit          3D

 34 35  0  0  0  0  0  0  0  0999 V2000
  -10.8120  -36.2202  -14.2534 C   0  0  0  0  0  0  0  0  0  0  0  0
  -11.1430  -36.4486  -12.8212 C   0  0  0  0  0  0  0  0  0  0  0  0
  -12.5453  -36.1398  -12.4413 C   0  0  0  0  0  0  0  0  0  0  0  0
  -13.5052  -37.2725  -12.4851 C   0  0  0  0  0  0  0  0  0  0  0  0
  -14.1433  -37.5517  -11.2391 N   0  0  0  0  0  0  0  0  0  0  0  0
  -14.5999  -38.8747  -10.9053 C   0  0  0  0  0  0  0  0  0  0  0  0
  -15.2620  -39.4911  -11.7699 O   0  0  0  0  0  0  0  0  0  0  0  0
  -14.2563  -39.4026   -9.5758 C   0  0  2  0  0  0  0  0  0  0  0  0
  -12.9747  -40.2255   -9.5832 C   0  0  0  0  0  0  0  0  0  0  0  0
  -15.3800  -40.1515   -8.8950 C   0  0  0  0  0  0  0  0  0  0  0  0
  -16.5705  -39.2672   -8.7054 C   0  0  2  0  0  0  0  0  0  0  0  0
  -16.3294  -38.4584   -7.5614 O   0  0  0  0  0  0  0  0  0  0  0  0
  -17.8638  -39.9981   -8.5062 C   0  0  2  0  0  0  0  0  0  0  0  0
  -19.0885  -39.1455   -8.5975 C   0  0  0  0  0  0  0  0  0  0  0  0
  -20.1740  -39.3301   -7.5985 C   0  0  0  0  0  0  0  0  0  0  0  0
  -20.4123  -38.1470   -6.8712 C   0  0  0  0  0  0  0  0  0  0  0  0
  -21.3508  -38.0081   -5.8811 C   0  0  0  0  0  0  0  0  0  0  0  0
  -22.0791  -39.1460   -5.6294 C   0  0  0  0  0  0  0  0  0  0  0  0
  -21.8914  -40.3561   -6.3191 C   0  0  0  0  0  0  0  0  0  0  0  0
  -20.9288  -40.4343   -7.3074 C   0  0  0  0  0  0  0  0  0  0  0  0
  -22.7574  -41.3218   -5.8568 O   0  0  0  0  0  0  0  0  0  0  0  0
  -23.6671  -42.2257   -6.3349 C   0  0  0  0  0  0  0  0  0  0  0  0
  -23.3911  -42.6275   -7.7367 C   0  0  0  0  0  0  0  0  0  0  0  0
  -22.4598  -43.7709   -7.9343 C   0  0  0  0  0  0  0  0  0  0  0  0
  -21.4934  -44.0422   -6.8373 C   0  0  0  0  0  0  0  0  0  0  0  0
  -19.9784  -44.7911   -7.3485 S   0  0  0  0  0  6  0  0  0  0  0  0
  -19.1638  -45.0305   -6.0904 O   0  0  0  0  0  0  0  0  0  0  0  0
  -20.3351  -46.1707   -7.8886 O   0  0  0  0  0  0  0  0  0  0  0  0
  -19.0888  -43.8959   -8.5616 C   0  0  0  0  0  0  0  0  0  0  0  0
  -17.7911  -43.3113   -8.0230 C   0  0  1  0  0  0  0  0  0  0  0  0
  -16.8298  -43.1070   -9.1285 C   0  0  0  0  0  0  0  0  0  0  0  0
  -18.0789  -42.1714   -7.1767 C   0  0  0  0  0  0  0  0  0  0  0  0
  -18.7085  -42.4535   -6.0884 O   0  0  0  0  0  0  0  0  0  0  0  0
  -17.7881  -40.8114   -7.3392 N   0  0  0  0  0  0  0  0  0  0  0  0
  1  2  1  0
  2  3  1  0
  3  4  1  0
  4  5  1  0
  5  6  1  0
  6  7  2  0
  6  8  1  0
  8  9  1  6
  8 10  1  0
 10 11  1  0
 11 12  1  1
 11 13  1  0
 13 14  1  1
 14 15  1  0
 15 16  2  0
 16 17  1  0
 17 18  2  0
 18 19  1  0
 19 20  2  0
 19 21  1  0
 21 22  1  0
 22 23  1  0
 23 24  1  0
 24 25  1  0
 25 26  1  0
 26 27  2  0
 26 28  2  0
 26 29  1  0
 29 30  1  0
 30 31  1  6
 30 32  1  0
 32 33  2  0
 32 34  1  0
 20 15  1  0
 34 13  1  0
M  END
$$$$
