
     RDKit          3D

 34 35  0  0  0  0  0  0  0  0999 V2000
  -10.1753  -35.1303  -12.0813 C   0  0  0  0  0  0  0  0  0  0  0  0
  -11.1797  -36.1437  -12.5022 C   0  0  0  0  0  0  0  0  0  0  0  0
  -11.8599  -36.8563  -11.3908 C   0  0  0  0  0  0  0  0  0  0  0  0
  -13.2122  -37.3967  -11.6834 C   0  0  0  0  0  0  0  0  0  0  0  0
  -13.8454  -38.0315  -10.5726 N   0  0  0  0  0  0  0  0  0  0  0  0
  -14.6920  -39.1822  -10.7436 C   0  0  0  0  0  0  0  0  0  0  0  0
  -15.4860  -39.1749  -11.7107 O   0  0  0  0  0  0  0  0  0  0  0  0
  -14.5622  -40.2783   -9.7710 C   0  0  2  0  0  0  0  0  0  0  0  0
  -13.8717  -41.5039  -10.3551 C   0  0  0  0  0  0  0  0  0  0  0  0
  -15.8558  -40.6575   -9.0855 C   0  0  0  0  0  0  0  0  0  0  0  0
  -17.0338  -40.1552   -9.8571 C   0  0  2  0  0  0  0  0  0  0  0  0
  -16.9844  -38.7345   -9.8436 O   0  0  0  0  0  0  0  0  0  0  0  0
  -18.3629  -40.5893   -9.3171 C   0  0  2  0  0  0  0  0  0  0  0  0
  -19.4309  -39.5439   -9.3603 C   0  0  0  0  0  0  0  0  0  0  0  0
  -20.3168  -39.3662   -8.1795 C   0  0  0  0  0  0  0  0  0  0  0  0
  -20.2183  -38.0633   -7.6521 C   0  0  0  0  0  0  0  0  0  0  0  0
  -20.9121  -37.6010   -6.5635 C   0  0  0  0  0  0  0  0  0  0  0  0
  -21.7488  -38.5289   -5.9911 C   0  0  0  0  0  0  0  0  0  0  0  0
  -21.8932  -39.8428   -6.4687 C   0  0  0  0  0  0  0  0  0  0  0  0
  -21.1659  -40.2505   -7.5707 C   0  0  0  0  0  0  0  0  0  0  0  0
  -22.7948  -40.5457   -5.7011 O   0  0  0  0  0  0  0  0  0  0  0  0
  -23.9118  -41.3227   -5.8490 C   0  0  0  0  0  0  0  0  0  0  0  0
  -23.9810  -41.9768   -7.1795 C   0  0  0  0  0  0  0  0  0  0  0  0
  -23.2993  -43.2924   -7.3148 C   0  0  0  0  0  0  0  0  0  0  0  0
  -22.1936  -43.5728   -6.3610 C   0  0  0  0  0  0  0  0  0  0  0  0
  -20.9453  -44.6636   -6.9686 S   0  0  0  0  0  6  0  0  0  0  0  0
  -19.9502  -44.8598   -5.8396 O   0  0  0  0  0  0  0  0  0  0  0  0
  -21.6145  -46.0162   -7.1806 O   0  0  0  0  0  0  0  0  0  0  0  0
  -20.1780  -44.1471   -8.4549 C   0  0  0  0  0  0  0  0  0  0  0  0
  -18.7244  -43.7443   -8.2536 C   0  0  1  0  0  0  0  0  0  0  0  0
  -17.9764  -43.8954   -9.5208 C   0  0  0  0  0  0  0  0  0  0  0  0
  -18.6575  -42.4558   -7.5949 C   0  0  0  0  0  0  0  0  0  0  0  0
  -19.1001  -42.4457   -6.3848 O   0  0  0  0  0  0  0  0  0  0  0  0
  -18.1918  -41.2160   -8.0495 N   0  0  0  0  0  0  0  0  0  0  0  0
  1  2  1  0
  2  3  1  0
  3  4  1  0
  4  5  1  0
  5  6  1  0
  6  7  2  0
  6  8  1  0
  8  9  1  6
  8 10  1  0
 10 11  1  0
 11 12  1  1
 11 13  1  0
 13 14  1  1
 14 15  1  0
 15 16  2  0
 16 17  1  0
 17 18  2  0
 18 19  1  0
 19 20  2  0
 19 21  1  0
 21 22  1  0
 22 23  1  0
 23 24  1  0
 24 25  1  0
 25 26  1  0
 26 27  2  0
 26 28  2  0
 26 29  1  0
 29 30  1  0
 30 31  1  6
 30 32  1  0
 32 33  2  0
 32 34  1  0
 20 15  1  0
 34 13  1  0
M  END
$$$$
