
     RDKit          3D

 34 35  0  0  0  0  0  0  0  0999 V2000
  -11.1770  -35.4058  -14.0395 C   0  0  0  0  0  0  0  0  0  0  0  0
  -11.0406  -36.2155  -12.7990 C   0  0  0  0  0  0  0  0  0  0  0  0
  -11.9464  -35.8248  -11.6886 C   0  0  0  0  0  0  0  0  0  0  0  0
  -13.2712  -36.4953  -11.6511 C   0  0  0  0  0  0  0  0  0  0  0  0
  -13.5232  -37.2342  -10.4560 N   0  0  0  0  0  0  0  0  0  0  0  0
  -14.1404  -38.5336  -10.4887 C   0  0  0  0  0  0  0  0  0  0  0  0
  -14.4584  -38.9925  -11.6085 O   0  0  0  0  0  0  0  0  0  0  0  0
  -14.3518  -39.2236   -9.2067 C   0  0  2  0  0  0  0  0  0  0  0  0
  -13.1114  -39.9658   -8.7268 C   0  0  0  0  0  0  0  0  0  0  0  0
  -15.5686  -40.1212   -9.1773 C   0  0  0  0  0  0  0  0  0  0  0  0
  -16.8212  -39.3254   -9.3580 C   0  0  2  0  0  0  0  0  0  0  0  0
  -16.7363  -38.1884   -8.5089 O   0  0  0  0  0  0  0  0  0  0  0  0
  -18.0826  -40.0673   -9.0335 C   0  0  2  0  0  0  0  0  0  0  0  0
  -19.3115  -39.2185   -8.9654 C   0  0  0  0  0  0  0  0  0  0  0  0
  -20.2777  -39.4330   -7.8560 C   0  0  0  0  0  0  0  0  0  0  0  0
  -20.4352  -38.2695   -7.0769 C   0  0  0  0  0  0  0  0  0  0  0  0
  -21.2569  -38.1597   -5.9847 C   0  0  0  0  0  0  0  0  0  0  0  0
  -21.9502  -39.3070   -5.6817 C   0  0  0  0  0  0  0  0  0  0  0  0
  -21.8387  -40.4986   -6.4183 C   0  0  0  0  0  0  0  0  0  0  0  0
  -20.9929  -40.5476   -7.5100 C   0  0  0  0  0  0  0  0  0  0  0  0
  -22.6454  -41.4796   -5.8864 O   0  0  0  0  0  0  0  0  0  0  0  0
  -23.6013  -42.3757   -6.2820 C   0  0  0  0  0  0  0  0  0  0  0  0
  -23.4835  -42.7413   -7.7157 C   0  0  0  0  0  0  0  0  0  0  0  0
  -22.5780  -43.8749   -8.0451 C   0  0  0  0  0  0  0  0  0  0  0  0
  -21.4941  -44.1688   -7.0706 C   0  0  0  0  0  0  0  0  0  0  0  0
  -20.0445  -44.8975   -7.7672 S   0  0  0  0  0  6  0  0  0  0  0  0
  -19.0935  -45.1641   -6.6148 O   0  0  0  0  0  0  0  0  0  0  0  0
  -20.4569  -46.2650   -8.2985 O   0  0  0  0  0  0  0  0  0  0  0  0
  -19.2984  -43.9682   -9.0495 C   0  0  0  0  0  0  0  0  0  0  0  0
  -17.9497  -43.3910   -8.6451 C   0  0  1  0  0  0  0  0  0  0  0  0
  -17.1189  -43.1547   -9.8460 C   0  0  0  0  0  0  0  0  0  0  0  0
  -18.1429  -42.2738   -7.7434 C   0  0  0  0  0  0  0  0  0  0  0  0
  -18.6459  -42.5859   -6.5989 O   0  0  0  0  0  0  0  0  0  0  0  0
  -17.8748  -40.9088   -7.9032 N   0  0  0  0  0  0  0  0  0  0  0  0
  1  2  1  0
  2  3  1  0
  3  4  1  0
  4  5  1  0
  5  6  1  0
  6  7  2  0
  6  8  1  0
  8  9  1  6
  8 10  1  0
 10 11  1  0
 11 12  1  1
 11 13  1  0
 13 14  1  1
 14 15  1  0
 15 16  2  0
 16 17  1  0
 17 18  2  0
 18 19  1  0
 19 20  2  0
 19 21  1  0
 21 22  1  0
 22 23  1  0
 23 24  1  0
 24 25  1  0
 25 26  1  0
 26 27  2  0
 26 28  2  0
 26 29  1  0
 29 30  1  0
 30 31  1  6
 30 32  1  0
 32 33  2  0
 32 34  1  0
 20 15  1  0
 34 13  1  0
M  END
$$$$
