
     RDKit          3D

 37 40  0  0  0  0  0  0  0  0999 V2000
  -10.3753  -35.7587  -11.9201 C   0  0  0  0  0  0  0  0  0  0  0  0
  -11.6266  -35.0795  -12.4901 C   0  0  0  0  0  0  0  0  0  0  0  0
  -12.0960  -33.9793  -11.5616 C   0  0  0  0  0  0  0  0  0  0  0  0
  -12.6376  -36.1403  -12.6522 C   0  0  0  0  0  0  0  0  0  0  0  0
  -13.3602  -36.1848  -13.8262 C   0  0  0  0  0  0  0  0  0  0  0  0
  -14.3258  -37.1485  -14.0471 C   0  0  0  0  0  0  0  0  0  0  0  0
  -14.5463  -38.0742  -13.0453 C   0  0  0  0  0  0  0  0  0  0  0  0
  -13.8464  -38.0620  -11.8622 C   0  0  0  0  0  0  0  0  0  0  0  0
  -14.0641  -39.0403  -10.7717 C   0  0  0  0  0  0  0  0  0  0  0  0
  -15.4213  -39.4023  -10.5644 N   0  0  0  0  0  0  0  0  0  0  0  0
  -16.3019  -38.3276  -10.1491 C   0  0  0  0  0  0  0  0  0  0  0  0
  -16.5395  -38.4466   -8.7203 C   0  0  1  0  0  0  0  0  0  0  0  0
  -16.7085  -37.1556   -8.1719 O   0  0  0  0  0  0  0  0  0  0  0  0
  -17.7625  -39.2539   -8.2841 C   0  0  2  0  0  0  0  0  0  0  0  0
  -18.5912  -38.3134   -7.4544 C   0  0  0  0  0  0  0  0  0  0  0  0
  -19.8778  -38.8628   -6.9777 C   0  0  0  0  0  0  0  0  0  0  0  0
  -20.6871  -39.0854   -8.1311 C   0  0  0  0  0  0  0  0  0  0  0  0
  -21.9405  -39.5998   -8.0963 C   0  0  0  0  0  0  0  0  0  0  0  0
  -22.3916  -39.9012   -6.8324 C   0  0  0  0  0  0  0  0  0  0  0  0
  -21.6574  -39.7119   -5.6474 C   0  0  0  0  0  0  0  0  0  0  0  0
  -22.4302  -40.1517   -4.4788 C   0  0  0  0  0  0  0  0  0  0  0  0
  -22.0337  -41.5146   -3.8962 C   0  0  0  0  0  0  0  0  0  0  0  0
  -22.7375  -42.6288   -4.5542 C   0  0  0  0  0  0  0  0  0  0  0  0
  -21.9401  -43.8355   -4.9400 C   0  0  0  0  0  0  0  0  0  0  0  0
  -21.6944  -44.0091   -6.3812 C   0  0  0  0  0  0  0  0  0  0  0  0
  -20.3245  -43.6822   -6.9171 C   0  0  0  0  0  0  0  0  0  0  0  0
  -19.4971  -42.6279   -6.6486 C   0  0  0  0  0  0  0  0  0  0  0  0
  -18.2993  -42.5773   -7.3621 C   0  0  0  0  0  0  0  0  0  0  0  0
  -18.0136  -43.5991   -8.3003 C   0  0  0  0  0  0  0  0  0  0  0  0
  -18.8599  -44.6522   -8.5541 C   0  0  0  0  0  0  0  0  0  0  0  0
  -18.5209  -45.7072   -9.5530 C   0  0  0  0  0  0  0  0  0  0  0  0
  -19.9795  -44.6530   -7.8548 N   0  0  0  0  0  0  0  0  0  0  0  0
  -17.2121  -41.6000   -7.3527 C   0  0  0  0  0  0  0  0  0  0  0  0
  -16.0092  -42.1232   -7.3744 O   0  0  0  0  0  0  0  0  0  0  0  0
  -17.1889  -40.1898   -7.3264 N   0  0  0  0  0  0  0  0  0  0  0  0
  -20.3647  -39.1755   -5.7464 C   0  0  0  0  0  0  0  0  0  0  0  0
  -12.8800  -37.0867  -11.6578 C   0  0  0  0  0  0  0  0  0  0  0  0
  1  2  1  0
  2  3  1  0
  2  4  1  0
  4  5  2  0
  5  6  1  0
  6  7  2  0
  7  8  1  0
  8  9  1  0
  9 10  1  0
 10 11  1  0
 11 12  1  0
 12 13  1  6
 12 14  1  0
 14 15  1  1
 15 16  1  0
 16 17  1  0
 17 18  2  0
 18 19  1  0
 19 20  2  0
 20 21  1  0
 21 22  1  0
 22 23  1  0
 23 24  1  0
 24 25  1  0
 25 26  1  0
 26 27  1  0
 27 28  2  0
 28 29  1  0
 29 30  2  0
 30 31  1  0
 30 32  1  0
 28 33  1  0
 33 34  2  0
 33 35  1  0
 20 36  1  0
  8 37  2  0
 32 26  2  0
 35 14  1  0
 36 16  2  0
 37  4  1  0
M  END
$$$$
