
     RDKit          3D

 37 40  0  0  0  0  0  0  0  0999 V2000
  -10.1160  -43.3042   -9.3790 C   0  0  0  0  0  0  0  0  0  0  0  0
  -11.0256  -42.1575   -8.9210 C   0  0  0  0  0  0  0  0  0  0  0  0
  -11.2667  -42.2426   -7.4285 C   0  0  0  0  0  0  0  0  0  0  0  0
  -12.2742  -42.2836   -9.6947 C   0  0  0  0  0  0  0  0  0  0  0  0
  -12.7291  -43.5479  -10.0059 C   0  0  0  0  0  0  0  0  0  0  0  0
  -13.8896  -43.7430  -10.7304 C   0  0  0  0  0  0  0  0  0  0  0  0
  -14.5859  -42.6210  -11.1369 C   0  0  0  0  0  0  0  0  0  0  0  0
  -14.1643  -41.3453  -10.8461 C   0  0  0  0  0  0  0  0  0  0  0  0
  -14.8897  -40.1261  -11.2712 C   0  0  0  0  0  0  0  0  0  0  0  0
  -15.1674  -39.2080  -10.2242 N   0  0  0  0  0  0  0  0  0  0  0  0
  -16.4618  -38.5570  -10.2863 C   0  0  0  0  0  0  0  0  0  0  0  0
  -16.9156  -38.2938   -8.9309 C   0  0  1  0  0  0  0  0  0  0  0  0
  -17.1919  -36.9149   -8.7968 O   0  0  0  0  0  0  0  0  0  0  0  0
  -18.1760  -39.0240   -8.4660 C   0  0  2  0  0  0  0  0  0  0  0  0
  -18.8258  -38.1093   -7.4657 C   0  0  0  0  0  0  0  0  0  0  0  0
  -20.1182  -38.5829   -6.9274 C   0  0  0  0  0  0  0  0  0  0  0  0
  -21.0421  -38.5927   -8.0143 C   0  0  0  0  0  0  0  0  0  0  0  0
  -22.3356  -38.9842   -7.9128 C   0  0  0  0  0  0  0  0  0  0  0  0
  -22.7067  -39.3836   -6.6501 C   0  0  0  0  0  0  0  0  0  0  0  0
  -21.8580  -39.4031   -5.5283 C   0  0  0  0  0  0  0  0  0  0  0  0
  -22.5707  -39.8974   -4.3432 C   0  0  0  0  0  0  0  0  0  0  0  0
  -22.2735  -41.3499   -3.9486 C   0  0  0  0  0  0  0  0  0  0  0  0
  -23.1457  -42.3082   -4.6491 C   0  0  0  0  0  0  0  0  0  0  0  0
  -22.5173  -43.5339   -5.2351 C   0  0  0  0  0  0  0  0  0  0  0  0
  -22.4155  -43.5642   -6.7035 C   0  0  0  0  0  0  0  0  0  0  0  0
  -21.0693  -43.3117   -7.3319 C   0  0  0  0  0  0  0  0  0  0  0  0
  -20.1144  -42.3800   -7.0350 C   0  0  0  0  0  0  0  0  0  0  0  0
  -18.9833  -42.3637   -7.8517 C   0  0  0  0  0  0  0  0  0  0  0  0
  -18.8894  -43.2941   -8.9154 C   0  0  0  0  0  0  0  0  0  0  0  0
  -19.8617  -44.2244   -9.1957 C   0  0  0  0  0  0  0  0  0  0  0  0
  -19.7236  -45.1857  -10.3283 C   0  0  0  0  0  0  0  0  0  0  0  0
  -20.9111  -44.1973   -8.3956 N   0  0  0  0  0  0  0  0  0  0  0  0
  -17.8013  -41.5035   -7.8445 C   0  0  0  0  0  0  0  0  0  0  0  0
  -16.6674  -42.1344   -8.0373 O   0  0  0  0  0  0  0  0  0  0  0  0
  -17.6257  -40.1145   -7.6722 N   0  0  0  0  0  0  0  0  0  0  0  0
  -20.5287  -38.9863   -5.6946 C   0  0  0  0  0  0  0  0  0  0  0  0
  -12.9962  -41.1685  -10.1171 C   0  0  0  0  0  0  0  0  0  0  0  0
  1  2  1  0
  2  3  1  0
  2  4  1  0
  4  5  2  0
  5  6  1  0
  6  7  2  0
  7  8  1  0
  8  9  1  0
  9 10  1  0
 10 11  1  0
 11 12  1  0
 12 13  1  6
 12 14  1  0
 14 15  1  1
 15 16  1  0
 16 17  1  0
 17 18  2  0
 18 19  1  0
 19 20  2  0
 20 21  1  0
 21 22  1  0
 22 23  1  0
 23 24  1  0
 24 25  1  0
 25 26  1  0
 26 27  1  0
 27 28  2  0
 28 29  1  0
 29 30  2  0
 30 31  1  0
 30 32  1  0
 28 33  1  0
 33 34  2  0
 33 35  1  0
 20 36  1  0
  8 37  2  0
 32 26  2  0
 35 14  1  0
 36 16  2  0
 37  4  1  0
M  END
$$$$
