
     RDKit          3D

 37 40  0  0  0  0  0  0  0  0999 V2000
  -10.4338  -36.7964  -12.0047 C   0  0  0  0  0  0  0  0  0  0  0  0
  -11.5228  -35.8411  -12.5082 C   0  0  0  0  0  0  0  0  0  0  0  0
  -11.4689  -34.5344  -11.7449 C   0  0  0  0  0  0  0  0  0  0  0  0
  -12.8071  -36.5411  -12.3236 C   0  0  0  0  0  0  0  0  0  0  0  0
  -13.5133  -36.9240  -13.4448 C   0  0  0  0  0  0  0  0  0  0  0  0
  -14.7252  -37.5811  -13.3490 C   0  0  0  0  0  0  0  0  0  0  0  0
  -15.2114  -37.8445  -12.0828 C   0  0  0  0  0  0  0  0  0  0  0  0
  -14.5366  -37.4787  -10.9424 C   0  0  0  0  0  0  0  0  0  0  0  0
  -15.0357  -37.7466   -9.5739 C   0  0  0  0  0  0  0  0  0  0  0  0
  -14.6254  -38.9914   -9.0280 N   0  0  0  0  0  0  0  0  0  0  0  0
  -15.6946  -39.8733   -8.6012 C   0  0  0  0  0  0  0  0  0  0  0  0
  -16.9516  -39.3700   -9.1293 C   0  0  1  0  0  0  0  0  0  0  0  0
  -17.0131  -39.6450  -10.5137 O   0  0  0  0  0  0  0  0  0  0  0  0
  -18.2363  -39.9409   -8.5281 C   0  0  2  0  0  0  0  0  0  0  0  0
  -18.9719  -38.7618   -7.9554 C   0  0  0  0  0  0  0  0  0  0  0  0
  -20.2970  -39.0680   -7.3768 C   0  0  0  0  0  0  0  0  0  0  0  0
  -21.1334  -39.4871   -8.4537 C   0  0  0  0  0  0  0  0  0  0  0  0
  -22.4265  -39.8674   -8.3123 C   0  0  0  0  0  0  0  0  0  0  0  0
  -22.8903  -39.8194   -7.0184 C   0  0  0  0  0  0  0  0  0  0  0  0
  -22.1313  -39.4184   -5.9038 C   0  0  0  0  0  0  0  0  0  0  0  0
  -22.9285  -39.4989   -4.6732 C   0  0  0  0  0  0  0  0  0  0  0  0
  -22.6471  -40.7134   -3.7789 C   0  0  0  0  0  0  0  0  0  0  0  0
  -23.4516  -41.8865   -4.1614 C   0  0  0  0  0  0  0  0  0  0  0  0
  -22.7661  -43.2149   -4.2402 C   0  0  0  0  0  0  0  0  0  0  0  0
  -22.5502  -43.7469   -5.5958 C   0  0  0  0  0  0  0  0  0  0  0  0
  -21.1620  -43.6771   -6.1781 C   0  0  0  0  0  0  0  0  0  0  0  0
  -20.2433  -42.6654   -6.1581 C   0  0  0  0  0  0  0  0  0  0  0  0
  -19.0524  -42.8902   -6.8492 C   0  0  0  0  0  0  0  0  0  0  0  0
  -18.8658  -44.1266   -7.5143 C   0  0  0  0  0  0  0  0  0  0  0  0
  -19.8031  -45.1321   -7.5205 C   0  0  0  0  0  0  0  0  0  0  0  0
  -19.5668  -46.4197   -8.2362 C   0  0  0  0  0  0  0  0  0  0  0  0
  -20.9118  -44.8692   -6.8542 N   0  0  0  0  0  0  0  0  0  0  0  0
  -17.8840  -42.0371   -7.0596 C   0  0  0  0  0  0  0  0  0  0  0  0
  -16.7316  -42.6531   -6.9423 O   0  0  0  0  0  0  0  0  0  0  0  0
  -17.7375  -40.6686   -7.3689 N   0  0  0  0  0  0  0  0  0  0  0  0
  -20.7977  -39.0355   -6.1122 C   0  0  0  0  0  0  0  0  0  0  0  0
  -13.3204  -36.8196  -11.0579 C   0  0  0  0  0  0  0  0  0  0  0  0
  1  2  1  0
  2  3  1  0
  2  4  1  0
  4  5  2  0
  5  6  1  0
  6  7  2  0
  7  8  1  0
  8  9  1  0
  9 10  1  0
 10 11  1  0
 11 12  1  0
 12 13  1  6
 12 14  1  0
 14 15  1  1
 15 16  1  0
 16 17  1  0
 17 18  2  0
 18 19  1  0
 19 20  2  0
 20 21  1  0
 21 22  1  0
 22 23  1  0
 23 24  1  0
 24 25  1  0
 25 26  1  0
 26 27  1  0
 27 28  2  0
 28 29  1  0
 29 30  2  0
 30 31  1  0
 30 32  1  0
 28 33  1  0
 33 34  2  0
 33 35  1  0
 20 36  1  0
  8 37  2  0
 32 26  2  0
 35 14  1  0
 36 16  2  0
 37  4  1  0
M  END
$$$$
