
     RDKit          3D

 37 40  0  0  0  0  0  0  0  0999 V2000
  -20.9930  -39.1306   -0.0618 C   0  0  0  0  0  0  0  0  0  0  0  0
  -20.6056  -40.6141   -0.0998 C   0  0  0  0  0  0  0  0  0  0  0  0
  -19.1203  -40.7754    0.1464 C   0  0  0  0  0  0  0  0  0  0  0  0
  -21.0075  -41.1143   -1.4272 C   0  0  0  0  0  0  0  0  0  0  0  0
  -21.6070  -42.3538   -1.5079 C   0  0  0  0  0  0  0  0  0  0  0  0
  -22.0073  -42.8882   -2.7179 C   0  0  0  0  0  0  0  0  0  0  0  0
  -21.7856  -42.1345   -3.8544 C   0  0  0  0  0  0  0  0  0  0  0  0
  -21.1912  -40.8956   -3.8140 C   0  0  0  0  0  0  0  0  0  0  0  0
  -20.9398  -40.0682   -5.0163 C   0  0  0  0  0  0  0  0  0  0  0  0
  -19.7158  -39.3490   -4.9939 N   0  0  0  0  0  0  0  0  0  0  0  0
  -18.5299  -40.1168   -5.3210 C   0  0  0  0  0  0  0  0  0  0  0  0
  -17.5697  -39.2374   -5.9669 C   0  0  1  0  0  0  0  0  0  0  0  0
  -16.2651  -39.6135   -5.5768 O   0  0  0  0  0  0  0  0  0  0  0  0
  -17.5641  -39.2180   -7.4957 C   0  0  2  0  0  0  0  0  0  0  0  0
  -17.6595  -37.7681   -7.8807 C   0  0  0  0  0  0  0  0  0  0  0  0
  -17.5972  -37.4976   -9.3324 C   0  0  0  0  0  0  0  0  0  0  0  0
  -16.2907  -37.8692   -9.7681 C   0  0  0  0  0  0  0  0  0  0  0  0
  -15.8590  -37.7783  -11.0496 C   0  0  0  0  0  0  0  0  0  0  0  0
  -16.7973  -37.2877  -11.9274 C   0  0  0  0  0  0  0  0  0  0  0  0
  -18.1036  -36.8996  -11.5780 C   0  0  0  0  0  0  0  0  0  0  0  0
  -18.8439  -36.4367  -12.7588 C   0  0  0  0  0  0  0  0  0  0  0  0
  -19.8508  -37.4356  -13.3438 C   0  0  0  0  0  0  0  0  0  0  0  0
  -19.2287  -38.3499  -14.3169 C   0  0  0  0  0  0  0  0  0  0  0  0
  -19.5605  -39.8068  -14.2257 C   0  0  0  0  0  0  0  0  0  0  0  0
  -18.4890  -40.6789  -13.7169 C   0  0  0  0  0  0  0  0  0  0  0  0
  -18.5929  -41.1877  -12.3023 C   0  0  0  0  0  0  0  0  0  0  0  0
  -18.9553  -40.5420  -11.1535 C   0  0  0  0  0  0  0  0  0  0  0  0
  -18.8939  -41.2849   -9.9742 C   0  0  0  0  0  0  0  0  0  0  0  0
  -18.4723  -42.6357  -10.0332 C   0  0  0  0  0  0  0  0  0  0  0  0
  -18.1134  -43.2666  -11.2005 C   0  0  0  0  0  0  0  0  0  0  0  0
  -17.6729  -44.6919  -11.2179 C   0  0  0  0  0  0  0  0  0  0  0  0
  -18.1872  -42.5204  -12.2868 N   0  0  0  0  0  0  0  0  0  0  0  0
  -19.1751  -40.9173   -8.5875 C   0  0  0  0  0  0  0  0  0  0  0  0
  -19.8425  -41.8204   -7.9092 O   0  0  0  0  0  0  0  0  0  0  0  0
  -18.8710  -39.7761   -7.8161 N   0  0  0  0  0  0  0  0  0  0  0  0
  -18.4937  -37.0164  -10.2354 C   0  0  0  0  0  0  0  0  0  0  0  0
  -20.7958  -40.3745   -2.5896 C   0  0  0  0  0  0  0  0  0  0  0  0
  1  2  1  0
  2  3  1  0
  2  4  1  0
  4  5  2  0
  5  6  1  0
  6  7  2  0
  7  8  1  0
  8  9  1  0
  9 10  1  0
 10 11  1  0
 11 12  1  0
 12 13  1  6
 12 14  1  0
 14 15  1  1
 15 16  1  0
 16 17  1  0
 17 18  2  0
 18 19  1  0
 19 20  2  0
 20 21  1  0
 21 22  1  0
 22 23  1  0
 23 24  1  0
 24 25  1  0
 25 26  1  0
 26 27  1  0
 27 28  2  0
 28 29  1  0
 29 30  2  0
 30 31  1  0
 30 32  1  0
 28 33  1  0
 33 34  2  0
 33 35  1  0
 20 36  1  0
  8 37  2  0
 32 26  2  0
 35 14  1  0
 36 16  2  0
 37  4  1  0
M  END
$$$$
