
     RDKit          3D

 37 40  0  0  0  0  0  0  0  0999 V2000
  -10.1385  -35.6570  -12.0468 C   0  0  0  0  0  0  0  0  0  0  0  0
  -10.8050  -36.2956  -13.2716 C   0  0  0  0  0  0  0  0  0  0  0  0
  -11.5599  -35.2492  -14.0639 C   0  0  0  0  0  0  0  0  0  0  0  0
  -11.6942  -37.3528  -12.7565 C   0  0  0  0  0  0  0  0  0  0  0  0
  -11.9798  -38.4265  -13.5737 C   0  0  0  0  0  0  0  0  0  0  0  0
  -12.8073  -39.4529  -13.1596 C   0  0  0  0  0  0  0  0  0  0  0  0
  -13.3443  -39.3684  -11.8894 C   0  0  0  0  0  0  0  0  0  0  0  0
  -13.0830  -38.3145  -11.0464 C   0  0  0  0  0  0  0  0  0  0  0  0
  -13.6469  -38.1980   -9.6818 C   0  0  0  0  0  0  0  0  0  0  0  0
  -15.0205  -37.8416   -9.6381 N   0  0  0  0  0  0  0  0  0  0  0  0
  -15.9078  -38.8298   -9.0556 C   0  0  0  0  0  0  0  0  0  0  0  0
  -17.0997  -38.1554   -8.5688 C   0  0  1  0  0  0  0  0  0  0  0  0
  -17.5880  -37.2963   -9.5784 O   0  0  0  0  0  0  0  0  0  0  0  0
  -18.2790  -39.0380   -8.1588 C   0  0  2  0  0  0  0  0  0  0  0  0
  -19.1723  -38.1576   -7.3302 C   0  0  0  0  0  0  0  0  0  0  0  0
  -20.4306  -38.7870   -6.8776 C   0  0  0  0  0  0  0  0  0  0  0  0
  -21.2101  -39.0426   -8.0446 C   0  0  0  0  0  0  0  0  0  0  0  0
  -22.4316  -39.6298   -8.0330 C   0  0  0  0  0  0  0  0  0  0  0  0
  -22.8809  -39.9722   -6.7790 C   0  0  0  0  0  0  0  0  0  0  0  0
  -22.1747  -39.7545   -5.5818 C   0  0  0  0  0  0  0  0  0  0  0  0
  -22.9358  -40.2528   -4.4290 C   0  0  0  0  0  0  0  0  0  0  0  0
  -22.4679  -41.5971   -3.8564 C   0  0  0  0  0  0  0  0  0  0  0  0
  -23.0964  -42.7426   -4.5365 C   0  0  0  0  0  0  0  0  0  0  0  0
  -22.2246  -43.8958   -4.9247 C   0  0  0  0  0  0  0  0  0  0  0  0
  -21.9502  -44.0375   -6.3642 C   0  0  0  0  0  0  0  0  0  0  0  0
  -20.5948  -43.6246   -6.8774 C   0  0  0  0  0  0  0  0  0  0  0  0
  -19.8342  -42.5270   -6.5856 C   0  0  0  0  0  0  0  0  0  0  0  0
  -18.6321  -42.3979   -7.2818 C   0  0  0  0  0  0  0  0  0  0  0  0
  -18.2747  -43.3900   -8.2273 C   0  0  0  0  0  0  0  0  0  0  0  0
  -19.0544  -44.4875   -8.5046 C   0  0  0  0  0  0  0  0  0  0  0  0
  -18.6409  -45.5088   -9.5106 C   0  0  0  0  0  0  0  0  0  0  0  0
  -20.1811  -44.5622   -7.8211 N   0  0  0  0  0  0  0  0  0  0  0  0
  -17.6043  -41.3589   -7.2462 C   0  0  0  0  0  0  0  0  0  0  0  0
  -16.3727  -41.8106   -7.2571 O   0  0  0  0  0  0  0  0  0  0  0  0
  -17.6641  -39.9502   -7.2038 N   0  0  0  0  0  0  0  0  0  0  0  0
  -20.9145  -39.1424   -5.6568 C   0  0  0  0  0  0  0  0  0  0  0  0
  -12.2492  -37.2925  -11.4792 C   0  0  0  0  0  0  0  0  0  0  0  0
  1  2  1  0
  2  3  1  0
  2  4  1  0
  4  5  2  0
  5  6  1  0
  6  7  2  0
  7  8  1  0
  8  9  1  0
  9 10  1  0
 10 11  1  0
 11 12  1  0
 12 13  1  6
 12 14  1  0
 14 15  1  1
 15 16  1  0
 16 17  1  0
 17 18  2  0
 18 19  1  0
 19 20  2  0
 20 21  1  0
 21 22  1  0
 22 23  1  0
 23 24  1  0
 24 25  1  0
 25 26  1  0
 26 27  1  0
 27 28  2  0
 28 29  1  0
 29 30  2  0
 30 31  1  0
 30 32  1  0
 28 33  1  0
 33 34  2  0
 33 35  1  0
 20 36  1  0
  8 37  2  0
 32 26  2  0
 35 14  1  0
 36 16  2  0
 37  4  1  0
M  END
$$$$
