
     RDKit          3D

 37 40  0  0  0  0  0  0  0  0999 V2000
  -14.7735  -33.9162  -12.2448 C   0  0  0  0  0  0  0  0  0  0  0  0
  -14.8966  -35.2695  -12.9557 C   0  0  0  0  0  0  0  0  0  0  0  0
  -16.3228  -35.7729  -12.8832 C   0  0  0  0  0  0  0  0  0  0  0  0
  -13.9504  -36.1790  -12.2839 C   0  0  0  0  0  0  0  0  0  0  0  0
  -12.6123  -35.8445  -12.2747 C   0  0  0  0  0  0  0  0  0  0  0  0
  -11.6678  -36.6499  -11.6672 C   0  0  0  0  0  0  0  0  0  0  0  0
  -12.1106  -37.8113  -11.0639 C   0  0  0  0  0  0  0  0  0  0  0  0
  -13.4354  -38.1781  -11.0525 C   0  0  0  0  0  0  0  0  0  0  0  0
  -13.9365  -39.4178  -10.4156 C   0  0  0  0  0  0  0  0  0  0  0  0
  -15.2632  -39.3318   -9.9170 N   0  0  0  0  0  0  0  0  0  0  0  0
  -15.5059  -38.2732   -8.9561 C   0  0  0  0  0  0  0  0  0  0  0  0
  -15.9309  -38.8719   -7.7017 C   0  0  1  0  0  0  0  0  0  0  0  0
  -16.0496  -37.8589   -6.7243 O   0  0  0  0  0  0  0  0  0  0  0  0
  -17.2672  -39.6150   -7.7040 C   0  0  2  0  0  0  0  0  0  0  0  0
  -18.2041  -38.7618   -6.8953 C   0  0  0  0  0  0  0  0  0  0  0  0
  -19.5958  -39.2536   -6.8203 C   0  0  0  0  0  0  0  0  0  0  0  0
  -20.1349  -39.1769   -8.1387 C   0  0  0  0  0  0  0  0  0  0  0  0
  -21.3923  -39.5570   -8.4724 C   0  0  0  0  0  0  0  0  0  0  0  0
  -22.1350  -40.0364   -7.4187 C   0  0  0  0  0  0  0  0  0  0  0  0
  -21.6779  -40.1436   -6.0925 C   0  0  0  0  0  0  0  0  0  0  0  0
  -22.7202  -40.7078   -5.2254 C   0  0  0  0  0  0  0  0  0  0  0  0
  -22.5486  -42.1877   -4.8588 C   0  0  0  0  0  0  0  0  0  0  0  0
  -23.1509  -43.0842   -5.8604 C   0  0  0  0  0  0  0  0  0  0  0  0
  -22.3609  -44.2756   -6.3045 C   0  0  0  0  0  0  0  0  0  0  0  0
  -21.8064  -44.2071   -7.6666 C   0  0  0  0  0  0  0  0  0  0  0  0
  -20.3336  -43.9306   -7.8255 C   0  0  0  0  0  0  0  0  0  0  0  0
  -19.5265  -43.0342   -7.1826 C   0  0  0  0  0  0  0  0  0  0  0  0
  -18.1975  -42.9776   -7.6032 C   0  0  0  0  0  0  0  0  0  0  0  0
  -17.7689  -43.8346   -8.6462 C   0  0  0  0  0  0  0  0  0  0  0  0
  -18.5976  -44.7305   -9.2788 C   0  0  0  0  0  0  0  0  0  0  0  0
  -18.1053  -45.6143  -10.3754 C   0  0  0  0  0  0  0  0  0  0  0  0
  -19.8443  -44.7438   -8.8454 N   0  0  0  0  0  0  0  0  0  0  0  0
  -17.0839  -42.1359   -7.1690 C   0  0  0  0  0  0  0  0  0  0  0  0
  -15.9410  -42.7674   -7.0421 O   0  0  0  0  0  0  0  0  0  0  0  0
  -16.9824  -40.7643   -6.8554 N   0  0  0  0  0  0  0  0  0  0  0  0
  -20.3666  -39.7344   -5.8075 C   0  0  0  0  0  0  0  0  0  0  0  0
  -14.3703  -37.3567  -11.6676 C   0  0  0  0  0  0  0  0  0  0  0  0
  1  2  1  0
  2  3  1  0
  2  4  1  0
  4  5  2  0
  5  6  1  0
  6  7  2  0
  7  8  1  0
  8  9  1  0
  9 10  1  0
 10 11  1  0
 11 12  1  0
 12 13  1  1
 12 14  1  0
 14 15  1  1
 15 16  1  0
 16 17  1  0
 17 18  2  0
 18 19  1  0
 19 20  2  0
 20 21  1  0
 21 22  1  0
 22 23  1  0
 23 24  1  0
 24 25  1  0
 25 26  1  0
 26 27  1  0
 27 28  2  0
 28 29  1  0
 29 30  2  0
 30 31  1  0
 30 32  1  0
 28 33  1  0
 33 34  2  0
 33 35  1  0
 20 36  1  0
  8 37  2  0
 32 26  2  0
 35 14  1  0
 36 16  2  0
 37  4  1  0
M  END
$$$$
