
     RDKit          3D

 37 40  0  0  0  0  0  0  0  0999 V2000
  -10.3058  -35.9280  -12.0531 C   0  0  0  0  0  0  0  0  0  0  0  0
  -11.7306  -36.0377  -12.6098 C   0  0  0  0  0  0  0  0  0  0  0  0
  -12.5844  -34.8978  -12.0957 C   0  0  0  0  0  0  0  0  0  0  0  0
  -12.2428  -37.3530  -12.1840 C   0  0  0  0  0  0  0  0  0  0  0  0
  -12.3589  -38.3500  -13.1299 C   0  0  0  0  0  0  0  0  0  0  0  0
  -12.8339  -39.6063  -12.8045 C   0  0  0  0  0  0  0  0  0  0  0  0
  -13.1920  -39.8337  -11.4896 C   0  0  0  0  0  0  0  0  0  0  0  0
  -13.0904  -38.8655  -10.5191 C   0  0  0  0  0  0  0  0  0  0  0  0
  -13.4692  -39.0817   -9.1037 C   0  0  0  0  0  0  0  0  0  0  0  0
  -14.6087  -39.9078   -8.9161 N   0  0  0  0  0  0  0  0  0  0  0  0
  -15.7655  -39.5758   -9.7251 C   0  0  0  0  0  0  0  0  0  0  0  0
  -16.6777  -38.7748   -8.9260 C   0  0  1  0  0  0  0  0  0  0  0  0
  -17.1513  -37.6976   -9.7079 O   0  0  0  0  0  0  0  0  0  0  0  0
  -17.9205  -39.4766   -8.3775 C   0  0  2  0  0  0  0  0  0  0  0  0
  -18.7025  -38.4106   -7.6622 C   0  0  0  0  0  0  0  0  0  0  0  0
  -19.9992  -38.8493   -7.1050 C   0  0  0  0  0  0  0  0  0  0  0  0
  -20.8346  -39.1846   -8.2116 C   0  0  0  0  0  0  0  0  0  0  0  0
  -22.1042  -39.6448   -8.0975 C   0  0  0  0  0  0  0  0  0  0  0  0
  -22.5445  -39.7697   -6.8005 C   0  0  0  0  0  0  0  0  0  0  0  0
  -21.7847  -39.4608   -5.6575 C   0  0  0  0  0  0  0  0  0  0  0  0
  -22.5529  -39.7232   -4.4337 C   0  0  0  0  0  0  0  0  0  0  0  0
  -22.1940  -41.0162   -3.6899 C   0  0  0  0  0  0  0  0  0  0  0  0
  -22.9465  -42.1775   -4.1946 C   0  0  0  0  0  0  0  0  0  0  0  0
  -22.1975  -43.4510   -4.4358 C   0  0  0  0  0  0  0  0  0  0  0  0
  -21.9818  -43.8118   -5.8468 C   0  0  0  0  0  0  0  0  0  0  0  0
  -20.6104  -43.6041   -6.4360 C   0  0  0  0  0  0  0  0  0  0  0  0
  -19.7429  -42.5552   -6.3116 C   0  0  0  0  0  0  0  0  0  0  0  0
  -18.5560  -42.6374   -7.0402 C   0  0  0  0  0  0  0  0  0  0  0  0
  -18.3212  -43.7779   -7.8464 C   0  0  0  0  0  0  0  0  0  0  0  0
  -19.2073  -44.8231   -7.9561 C   0  0  0  0  0  0  0  0  0  0  0  0
  -18.9213  -46.0060   -8.8190 C   0  0  0  0  0  0  0  0  0  0  0  0
  -20.3145  -44.6961   -7.2488 N   0  0  0  0  0  0  0  0  0  0  0  0
  -17.4358  -41.7066   -7.1663 C   0  0  0  0  0  0  0  0  0  0  0  0
  -16.2522  -42.2716   -7.1368 O   0  0  0  0  0  0  0  0  0  0  0  0
  -17.3636  -40.3059   -7.3172 N   0  0  0  0  0  0  0  0  0  0  0  0
  -20.4762  -38.9881   -5.8384 C   0  0  0  0  0  0  0  0  0  0  0  0
  -12.6110  -37.6093  -10.8642 C   0  0  0  0  0  0  0  0  0  0  0  0
  1  2  1  0
  2  3  1  0
  2  4  1  0
  4  5  2  0
  5  6  1  0
  6  7  2  0
  7  8  1  0
  8  9  1  0
  9 10  1  0
 10 11  1  0
 11 12  1  0
 12 13  1  6
 12 14  1  0
 14 15  1  1
 15 16  1  0
 16 17  1  0
 17 18  2  0
 18 19  1  0
 19 20  2  0
 20 21  1  0
 21 22  1  0
 22 23  1  0
 23 24  1  0
 24 25  1  0
 25 26  1  0
 26 27  1  0
 27 28  2  0
 28 29  1  0
 29 30  2  0
 30 31  1  0
 30 32  1  0
 28 33  1  0
 33 34  2  0
 33 35  1  0
 20 36  1  0
  8 37  2  0
 32 26  2  0
 35 14  1  0
 36 16  2  0
 37  4  1  0
M  END
$$$$
