
     RDKit          3D

 37 40  0  0  0  0  0  0  0  0999 V2000
  -13.4351  -38.4447  -14.4550 C   0  0  0  0  0  0  0  0  0  0  0  0
  -13.2780  -36.9532  -14.1344 C   0  0  0  0  0  0  0  0  0  0  0  0
  -12.1149  -36.3694  -14.9085 C   0  0  0  0  0  0  0  0  0  0  0  0
  -13.0791  -36.8605  -12.6765 C   0  0  0  0  0  0  0  0  0  0  0  0
  -12.9317  -35.6107  -12.1120 C   0  0  0  0  0  0  0  0  0  0  0  0
  -12.7389  -35.4470  -10.7534 C   0  0  0  0  0  0  0  0  0  0  0  0
  -12.6978  -36.5854   -9.9716 C   0  0  0  0  0  0  0  0  0  0  0  0
  -12.8407  -37.8474  -10.4976 C   0  0  0  0  0  0  0  0  0  0  0  0
  -12.7985  -39.0838   -9.6833 C   0  0  0  0  0  0  0  0  0  0  0  0
  -13.9147  -39.2645   -8.8245 N   0  0  0  0  0  0  0  0  0  0  0  0
  -15.2004  -39.3904   -9.4834 C   0  0  0  0  0  0  0  0  0  0  0  0
  -16.1896  -38.6496   -8.7186 C   0  0  1  0  0  0  0  0  0  0  0  0
  -16.5864  -37.5126   -9.4573 O   0  0  0  0  0  0  0  0  0  0  0  0
  -17.4786  -39.3857   -8.3521 C   0  0  2  0  0  0  0  0  0  0  0  0
  -18.2912  -38.4035   -7.5557 C   0  0  0  0  0  0  0  0  0  0  0  0
  -19.6304  -38.8787   -7.1493 C   0  0  0  0  0  0  0  0  0  0  0  0
  -20.3921  -39.0449   -8.3439 C   0  0  0  0  0  0  0  0  0  0  0  0
  -21.6739  -39.4841   -8.3768 C   0  0  0  0  0  0  0  0  0  0  0  0
  -22.2052  -39.7669   -7.1401 C   0  0  0  0  0  0  0  0  0  0  0  0
  -21.5218  -39.6297   -5.9181 C   0  0  0  0  0  0  0  0  0  0  0  0
  -22.3772  -40.0309   -4.7939 C   0  0  0  0  0  0  0  0  0  0  0  0
  -22.0918  -41.4189   -4.2058 C   0  0  0  0  0  0  0  0  0  0  0  0
  -22.8260  -42.4848   -4.9090 C   0  0  0  0  0  0  0  0  0  0  0  0
  -22.0826  -43.7340   -5.2664 C   0  0  0  0  0  0  0  0  0  0  0  0
  -21.7752  -43.9120   -6.6951 C   0  0  0  0  0  0  0  0  0  0  0  0
  -20.3631  -43.6633   -7.1587 C   0  0  0  0  0  0  0  0  0  0  0  0
  -19.4896  -42.6619   -6.8388 C   0  0  0  0  0  0  0  0  0  0  0  0
  -18.2564  -42.6777   -7.4910 C   0  0  0  0  0  0  0  0  0  0  0  0
  -17.9845  -43.7082   -8.4237 C   0  0  0  0  0  0  0  0  0  0  0  0
  -18.8775  -44.7073   -8.7299 C   0  0  0  0  0  0  0  0  0  0  0  0
  -18.5513  -45.7737   -9.7210 C   0  0  0  0  0  0  0  0  0  0  0  0
  -20.0291  -44.6464   -8.0876 N   0  0  0  0  0  0  0  0  0  0  0  0
  -17.1153  -41.7668   -7.4176 C   0  0  0  0  0  0  0  0  0  0  0  0
  -15.9458  -42.3604   -7.3843 O   0  0  0  0  0  0  0  0  0  0  0  0
  -17.0102  -40.3607   -7.3763 N   0  0  0  0  0  0  0  0  0  0  0  0
  -20.1964  -39.1704   -5.9470 C   0  0  0  0  0  0  0  0  0  0  0  0
  -13.0338  -37.9928  -11.8646 C   0  0  0  0  0  0  0  0  0  0  0  0
  1  2  1  0
  2  3  1  0
  2  4  1  0
  4  5  2  0
  5  6  1  0
  6  7  2  0
  7  8  1  0
  8  9  1  0
  9 10  1  0
 10 11  1  0
 11 12  1  0
 12 13  1  6
 12 14  1  0
 14 15  1  1
 15 16  1  0
 16 17  1  0
 17 18  2  0
 18 19  1  0
 19 20  2  0
 20 21  1  0
 21 22  1  0
 22 23  1  0
 23 24  1  0
 24 25  1  0
 25 26  1  0
 26 27  1  0
 27 28  2  0
 28 29  1  0
 29 30  2  0
 30 31  1  0
 30 32  1  0
 28 33  1  0
 33 34  2  0
 33 35  1  0
 20 36  1  0
  8 37  2  0
 32 26  2  0
 35 14  1  0
 36 16  2  0
 37  4  1  0
M  END
$$$$
