
     RDKit          3D

 37 40  0  0  0  0  0  0  0  0999 V2000
  -13.9412  -33.3749  -11.9623 C   0  0  0  0  0  0  0  0  0  0  0  0
  -14.7987  -33.8063  -10.7662 C   0  0  0  0  0  0  0  0  0  0  0  0
  -13.9432  -33.9261   -9.5227 C   0  0  0  0  0  0  0  0  0  0  0  0
  -15.4187  -35.0903  -11.1413 C   0  0  0  0  0  0  0  0  0  0  0  0
  -15.4622  -35.4332  -12.4766 C   0  0  0  0  0  0  0  0  0  0  0  0
  -16.0302  -36.6188  -12.9025 C   0  0  0  0  0  0  0  0  0  0  0  0
  -16.5578  -37.4573  -11.9395 C   0  0  0  0  0  0  0  0  0  0  0  0
  -16.5331  -37.1501  -10.5998 C   0  0  0  0  0  0  0  0  0  0  0  0
  -17.0932  -38.0291   -9.5475 C   0  0  0  0  0  0  0  0  0  0  0  0
  -16.1568  -38.9221   -8.9629 N   0  0  0  0  0  0  0  0  0  0  0  0
  -15.9359  -40.1612   -9.6833 C   0  0  0  0  0  0  0  0  0  0  0  0
  -17.1248  -40.4647  -10.4622 C   0  0  1  0  0  0  0  0  0  0  0  0
  -16.9116  -41.6621  -11.1810 O   0  0  0  0  0  0  0  0  0  0  0  0
  -18.4297  -40.6625   -9.6902 C   0  0  2  0  0  0  0  0  0  0  0  0
  -19.3245  -39.5317  -10.1147 C   0  0  0  0  0  0  0  0  0  0  0  0
  -20.6868  -39.5592   -9.5424 C   0  0  0  0  0  0  0  0  0  0  0  0
  -21.3374  -40.7120  -10.0741 C   0  0  0  0  0  0  0  0  0  0  0  0
  -22.6043  -41.0829   -9.7673 C   0  0  0  0  0  0  0  0  0  0  0  0
  -23.2384  -40.2445   -8.8803 C   0  0  0  0  0  0  0  0  0  0  0  0
  -22.6678  -39.0909   -8.3121 C   0  0  0  0  0  0  0  0  0  0  0  0
  -23.6130  -38.4375   -7.3977 C   0  0  0  0  0  0  0  0  0  0  0  0
  -23.3593  -38.6721   -5.9029 C   0  0  0  0  0  0  0  0  0  0  0  0
  -24.0120  -39.8979   -5.4117 C   0  0  0  0  0  0  0  0  0  0  0  0
  -23.2209  -40.8112   -4.5281 C   0  0  0  0  0  0  0  0  0  0  0  0
  -22.7858  -42.0781   -5.1389 C   0  0  0  0  0  0  0  0  0  0  0  0
  -21.3422  -42.2150   -5.5491 C   0  0  0  0  0  0  0  0  0  0  0  0
  -20.5158  -41.3335   -6.1880 C   0  0  0  0  0  0  0  0  0  0  0  0
  -19.2298  -41.7861   -6.4839 C   0  0  0  0  0  0  0  0  0  0  0  0
  -18.8607  -43.1017   -6.1112 C   0  0  0  0  0  0  0  0  0  0  0  0
  -19.7078  -43.9721   -5.4674 C   0  0  0  0  0  0  0  0  0  0  0  0
  -19.2789  -45.3515   -5.0942 C   0  0  0  0  0  0  0  0  0  0  0  0
  -20.9124  -43.4966   -5.2121 N   0  0  0  0  0  0  0  0  0  0  0  0
  -18.1138  -41.1378   -7.1705 C   0  0  0  0  0  0  0  0  0  0  0  0
  -16.9428  -41.3344   -6.6124 O   0  0  0  0  0  0  0  0  0  0  0  0
  -18.0344  -40.3342   -8.3271 N   0  0  0  0  0  0  0  0  0  0  0  0
  -21.3523  -38.7572   -8.6677 C   0  0  0  0  0  0  0  0  0  0  0  0
  -15.9583  -35.9548  -10.1902 C   0  0  0  0  0  0  0  0  0  0  0  0
  1  2  1  0
  2  3  1  0
  2  4  1  0
  4  5  2  0
  5  6  1  0
  6  7  2  0
  7  8  1  0
  8  9  1  0
  9 10  1  0
 10 11  1  0
 11 12  1  0
 12 13  1  1
 12 14  1  0
 14 15  1  6
 15 16  1  0
 16 17  1  0
 17 18  2  0
 18 19  1  0
 19 20  2  0
 20 21  1  0
 21 22  1  0
 22 23  1  0
 23 24  1  0
 24 25  1  0
 25 26  1  0
 26 27  1  0
 27 28  2  0
 28 29  1  0
 29 30  2  0
 30 31  1  0
 30 32  1  0
 28 33  1  0
 33 34  2  0
 33 35  1  0
 20 36  1  0
  8 37  2  0
 32 26  2  0
 35 14  1  0
 36 16  2  0
 37  4  1  0
M  END
$$$$
