
     RDKit          3D

 37 40  0  0  0  0  0  0  0  0999 V2000
  -11.5615  -35.7202  -13.1268 C   0  0  0  0  0  0  0  0  0  0  0  0
  -13.0710  -35.9303  -12.9553 C   0  0  0  0  0  0  0  0  0  0  0  0
  -13.6116  -35.0060  -11.8848 C   0  0  0  0  0  0  0  0  0  0  0  0
  -13.2557  -37.3515  -12.6091 C   0  0  0  0  0  0  0  0  0  0  0  0
  -13.4583  -38.2553  -13.6310 C   0  0  0  0  0  0  0  0  0  0  0  0
  -13.6419  -39.6022  -13.3819 C   0  0  0  0  0  0  0  0  0  0  0  0
  -13.6158  -40.0182  -12.0646 C   0  0  0  0  0  0  0  0  0  0  0  0
  -13.4165  -39.1476  -11.0196 C   0  0  0  0  0  0  0  0  0  0  0  0
  -13.3862  -39.5662   -9.5992 C   0  0  0  0  0  0  0  0  0  0  0  0
  -14.3419  -38.9196   -8.7718 N   0  0  0  0  0  0  0  0  0  0  0  0
  -15.6407  -38.6886   -9.3742 C   0  0  0  0  0  0  0  0  0  0  0  0
  -16.5755  -38.3024   -8.3305 C   0  0  1  0  0  0  0  0  0  0  0  0
  -17.0794  -37.0140   -8.6167 O   0  0  0  0  0  0  0  0  0  0  0  0
  -17.7979  -39.1980   -8.1264 C   0  0  2  0  0  0  0  0  0  0  0  0
  -18.7124  -38.4297   -7.2138 C   0  0  0  0  0  0  0  0  0  0  0  0
  -20.0096  -39.0793   -6.9312 C   0  0  0  0  0  0  0  0  0  0  0  0
  -20.7300  -39.1205   -8.1617 C   0  0  0  0  0  0  0  0  0  0  0  0
  -21.9650  -39.6601   -8.3053 C   0  0  0  0  0  0  0  0  0  0  0  0
  -22.4912  -40.1809   -7.1462 C   0  0  0  0  0  0  0  0  0  0  0  0
  -21.8466  -40.1794   -5.8957 C   0  0  0  0  0  0  0  0  0  0  0  0
  -22.6825  -40.8274   -4.8770 C   0  0  0  0  0  0  0  0  0  0  0  0
  -22.2815  -42.2604   -4.5035 C   0  0  0  0  0  0  0  0  0  0  0  0
  -22.9009  -43.2619   -5.3885 C   0  0  0  0  0  0  0  0  0  0  0  0
  -22.0390  -44.3684   -5.9115 C   0  0  0  0  0  0  0  0  0  0  0  0
  -21.6896  -44.2900   -7.3396 C   0  0  0  0  0  0  0  0  0  0  0  0
  -20.2979  -43.8477   -7.7115 C   0  0  0  0  0  0  0  0  0  0  0  0
  -19.5265  -42.8367   -7.2104 C   0  0  0  0  0  0  0  0  0  0  0  0
  -18.2851  -42.6403   -7.8159 C   0  0  0  0  0  0  0  0  0  0  0  0
  -17.9018  -43.4820   -8.8885 C   0  0  0  0  0  0  0  0  0  0  0  0
  -18.6930  -44.4947   -9.3763 C   0  0  0  0  0  0  0  0  0  0  0  0
  -18.2512  -45.3577  -10.5103 C   0  0  0  0  0  0  0  0  0  0  0  0
  -19.8572  -44.6379   -8.7708 N   0  0  0  0  0  0  0  0  0  0  0  0
  -17.2344  -41.6556   -7.5634 C   0  0  0  0  0  0  0  0  0  0  0  0
  -16.0160  -42.1417   -7.5844 O   0  0  0  0  0  0  0  0  0  0  0  0
  -17.2601  -40.2701   -7.2997 N   0  0  0  0  0  0  0  0  0  0  0  0
  -20.5688  -39.6065   -5.8086 C   0  0  0  0  0  0  0  0  0  0  0  0
  -13.2337  -37.7980  -11.2888 C   0  0  0  0  0  0  0  0  0  0  0  0
  1  2  1  0
  2  3  1  0
  2  4  1  0
  4  5  2  0
  5  6  1  0
  6  7  2  0
  7  8  1  0
  8  9  1  0
  9 10  1  0
 10 11  1  0
 11 12  1  0
 12 13  1  6
 12 14  1  0
 14 15  1  1
 15 16  1  0
 16 17  1  0
 17 18  2  0
 18 19  1  0
 19 20  2  0
 20 21  1  0
 21 22  1  0
 22 23  1  0
 23 24  1  0
 24 25  1  0
 25 26  1  0
 26 27  1  0
 27 28  2  0
 28 29  1  0
 29 30  2  0
 30 31  1  0
 30 32  1  0
 28 33  1  0
 33 34  2  0
 33 35  1  0
 20 36  1  0
  8 37  2  0
 32 26  2  0
 35 14  1  0
 36 16  2  0
 37  4  1  0
M  END
$$$$
