
     RDKit          3D

 37 40  0  0  0  0  0  0  0  0999 V2000
  -13.0147  -34.9395  -11.2436 C   0  0  0  0  0  0  0  0  0  0  0  0
  -13.5565  -35.8275  -12.3705 C   0  0  0  0  0  0  0  0  0  0  0  0
  -15.0705  -35.8065  -12.3738 C   0  0  0  0  0  0  0  0  0  0  0  0
  -13.0190  -37.1790  -12.1291 C   0  0  0  0  0  0  0  0  0  0  0  0
  -12.1818  -37.7314  -13.0759 C   0  0  0  0  0  0  0  0  0  0  0  0
  -11.6430  -38.9943  -12.9188 C   0  0  0  0  0  0  0  0  0  0  0  0
  -11.9726  -39.6921  -11.7728 C   0  0  0  0  0  0  0  0  0  0  0  0
  -12.8032  -39.1750  -10.8071 C   0  0  0  0  0  0  0  0  0  0  0  0
  -13.1745  -39.9019   -9.5713 C   0  0  0  0  0  0  0  0  0  0  0  0
  -14.1240  -39.2330   -8.7545 N   0  0  0  0  0  0  0  0  0  0  0  0
  -15.4814  -39.2041   -9.2641 C   0  0  0  0  0  0  0  0  0  0  0  0
  -16.3347  -38.5617   -8.2784 C   0  0  1  0  0  0  0  0  0  0  0  0
  -16.6817  -37.2722   -8.7397 O   0  0  0  0  0  0  0  0  0  0  0  0
  -17.6533  -39.2583   -7.9412 C   0  0  2  0  0  0  0  0  0  0  0  0
  -18.4128  -38.2884   -7.0799 C   0  0  0  0  0  0  0  0  0  0  0  0
  -19.7691  -38.7249   -6.6871 C   0  0  0  0  0  0  0  0  0  0  0  0
  -20.5477  -38.7856   -7.8809 C   0  0  0  0  0  0  0  0  0  0  0  0
  -21.8487  -39.1630   -7.9251 C   0  0  0  0  0  0  0  0  0  0  0  0
  -22.3821  -39.4933   -6.7012 C   0  0  0  0  0  0  0  0  0  0  0  0
  -21.6829  -39.4596   -5.4809 C   0  0  0  0  0  0  0  0  0  0  0  0
  -22.5465  -39.8866   -4.3726 C   0  0  0  0  0  0  0  0  0  0  0  0
  -22.3208  -41.3183   -3.8696 C   0  0  0  0  0  0  0  0  0  0  0  0
  -23.1095  -42.3063   -4.6256 C   0  0  0  0  0  0  0  0  0  0  0  0
  -22.4278  -43.5651   -5.0634 C   0  0  0  0  0  0  0  0  0  0  0  0
  -22.1410  -43.6727   -6.5034 C   0  0  0  0  0  0  0  0  0  0  0  0
  -20.7228  -43.4621   -6.9673 C   0  0  0  0  0  0  0  0  0  0  0  0
  -19.8011  -42.5223   -6.5992 C   0  0  0  0  0  0  0  0  0  0  0  0
  -18.5755  -42.5561   -7.2649 C   0  0  0  0  0  0  0  0  0  0  0  0
  -18.3595  -43.5414   -8.2591 C   0  0  0  0  0  0  0  0  0  0  0  0
  -19.3004  -44.4789   -8.6131 C   0  0  0  0  0  0  0  0  0  0  0  0
  -19.0323  -45.4991   -9.6683 C   0  0  0  0  0  0  0  0  0  0  0  0
  -20.4425  -44.4032   -7.9556 N   0  0  0  0  0  0  0  0  0  0  0  0
  -17.3929  -41.7043   -7.1512 C   0  0  0  0  0  0  0  0  0  0  0  0
  -16.2519  -42.3517   -7.1655 O   0  0  0  0  0  0  0  0  0  0  0  0
  -17.2224  -40.3094   -7.0291 N   0  0  0  0  0  0  0  0  0  0  0  0
  -20.3379  -39.0606   -5.4977 C   0  0  0  0  0  0  0  0  0  0  0  0
  -13.3352  -37.9047  -10.9818 C   0  0  0  0  0  0  0  0  0  0  0  0
  1  2  1  0
  2  3  1  0
  2  4  1  0
  4  5  2  0
  5  6  1  0
  6  7  2  0
  7  8  1  0
  8  9  1  0
  9 10  1  0
 10 11  1  0
 11 12  1  0
 12 13  1  6
 12 14  1  0
 14 15  1  1
 15 16  1  0
 16 17  1  0
 17 18  2  0
 18 19  1  0
 19 20  2  0
 20 21  1  0
 21 22  1  0
 22 23  1  0
 23 24  1  0
 24 25  1  0
 25 26  1  0
 26 27  1  0
 27 28  2  0
 28 29  1  0
 29 30  2  0
 30 31  1  0
 30 32  1  0
 28 33  1  0
 33 34  2  0
 33 35  1  0
 20 36  1  0
  8 37  2  0
 32 26  2  0
 35 14  1  0
 36 16  2  0
 37  4  1  0
M  END
$$$$
