
     RDKit          3D

 37 40  0  0  0  0  0  0  0  0999 V2000
  -10.3936  -36.5765  -12.3141 C   0  0  0  0  0  0  0  0  0  0  0  0
  -11.8160  -36.5798  -12.8875 C   0  0  0  0  0  0  0  0  0  0  0  0
  -12.6247  -35.4461  -12.2928 C   0  0  0  0  0  0  0  0  0  0  0  0
  -12.3895  -37.9000  -12.5681 C   0  0  0  0  0  0  0  0  0  0  0  0
  -12.6940  -38.7527  -13.6085 C   0  0  0  0  0  0  0  0  0  0  0  0
  -13.2365  -40.0040  -13.3853 C   0  0  0  0  0  0  0  0  0  0  0  0
  -13.4663  -40.3768  -12.0749 C   0  0  0  0  0  0  0  0  0  0  0  0
  -13.1760  -39.5547  -11.0120 C   0  0  0  0  0  0  0  0  0  0  0  0
  -13.4143  -39.9282   -9.5988 C   0  0  0  0  0  0  0  0  0  0  0  0
  -14.6811  -40.5187   -9.3487 N   0  0  0  0  0  0  0  0  0  0  0  0
  -15.8246  -39.7998   -9.8767 C   0  0  0  0  0  0  0  0  0  0  0  0
  -16.4587  -39.0721   -8.7902 C   0  0  1  0  0  0  0  0  0  0  0  0
  -16.6444  -37.7277   -9.1825 O   0  0  0  0  0  0  0  0  0  0  0  0
  -17.8282  -39.5695   -8.3268 C   0  0  2  0  0  0  0  0  0  0  0  0
  -18.4708  -38.3979   -7.6383 C   0  0  0  0  0  0  0  0  0  0  0  0
  -19.8519  -38.6272   -7.1645 C   0  0  0  0  0  0  0  0  0  0  0  0
  -20.6627  -38.8141   -8.3233 C   0  0  0  0  0  0  0  0  0  0  0  0
  -21.9941  -39.0651   -8.2907 C   0  0  0  0  0  0  0  0  0  0  0  0
  -22.5252  -39.1289   -7.0236 C   0  0  0  0  0  0  0  0  0  0  0  0
  -21.7953  -38.9561   -5.8334 C   0  0  0  0  0  0  0  0  0  0  0  0
  -22.6671  -39.1022   -4.6607 C   0  0  0  0  0  0  0  0  0  0  0  0
  -22.5648  -40.4426   -3.9212 C   0  0  0  0  0  0  0  0  0  0  0  0
  -23.4621  -41.4633   -4.4893 C   0  0  0  0  0  0  0  0  0  0  0  0
  -22.9135  -42.8385   -4.7102 C   0  0  0  0  0  0  0  0  0  0  0  0
  -22.6746  -43.2170   -6.1128 C   0  0  0  0  0  0  0  0  0  0  0  0
  -21.2551  -43.2274   -6.6184 C   0  0  0  0  0  0  0  0  0  0  0  0
  -20.2398  -42.3329   -6.4253 C   0  0  0  0  0  0  0  0  0  0  0  0
  -19.0401  -42.5985   -7.0859 C   0  0  0  0  0  0  0  0  0  0  0  0
  -18.9432  -43.7549   -7.8979 C   0  0  0  0  0  0  0  0  0  0  0  0
  -19.9771  -44.6429   -8.0773 C   0  0  0  0  0  0  0  0  0  0  0  0
  -19.8331  -45.8489   -8.9438 C   0  0  0  0  0  0  0  0  0  0  0  0
  -21.0899  -44.3457   -7.4326 N   0  0  0  0  0  0  0  0  0  0  0  0
  -17.7799  -41.8589   -7.1305 C   0  0  0  0  0  0  0  0  0  0  0  0
  -16.7058  -42.6073   -7.0434 O   0  0  0  0  0  0  0  0  0  0  0  0
  -17.4755  -40.4869   -7.2515 N   0  0  0  0  0  0  0  0  0  0  0  0
  -20.4196  -38.6986   -5.9302 C   0  0  0  0  0  0  0  0  0  0  0  0
  -12.6313  -38.3013  -11.2552 C   0  0  0  0  0  0  0  0  0  0  0  0
  1  2  1  0
  2  3  1  0
  2  4  1  0
  4  5  2  0
  5  6  1  0
  6  7  2  0
  7  8  1  0
  8  9  1  0
  9 10  1  0
 10 11  1  0
 11 12  1  0
 12 13  1  6
 12 14  1  0
 14 15  1  1
 15 16  1  0
 16 17  1  0
 17 18  2  0
 18 19  1  0
 19 20  2  0
 20 21  1  0
 21 22  1  0
 22 23  1  0
 23 24  1  0
 24 25  1  0
 25 26  1  0
 26 27  1  0
 27 28  2  0
 28 29  1  0
 29 30  2  0
 30 31  1  0
 30 32  1  0
 28 33  1  0
 33 34  2  0
 33 35  1  0
 20 36  1  0
  8 37  2  0
 32 26  2  0
 35 14  1  0
 36 16  2  0
 37  4  1  0
M  END
$$$$
