
     RDKit          3D

 37 40  0  0  0  0  0  0  0  0999 V2000
  -11.6575  -35.7316  -12.3488 C   0  0  0  0  0  0  0  0  0  0  0  0
  -13.1503  -35.9244  -12.6431 C   0  0  0  0  0  0  0  0  0  0  0  0
  -13.9773  -34.9645  -11.8141 C   0  0  0  0  0  0  0  0  0  0  0  0
  -13.4560  -37.3331  -12.3337 C   0  0  0  0  0  0  0  0  0  0  0  0
  -14.0371  -38.1096  -13.3144 C   0  0  0  0  0  0  0  0  0  0  0  0
  -14.3543  -39.4367  -13.0953 C   0  0  0  0  0  0  0  0  0  0  0  0
  -14.0682  -39.9656  -11.8514 C   0  0  0  0  0  0  0  0  0  0  0  0
  -13.4897  -39.2235  -10.8493 C   0  0  0  0  0  0  0  0  0  0  0  0
  -13.1747  -39.7645   -9.5070 C   0  0  0  0  0  0  0  0  0  0  0  0
  -13.9018  -39.1677   -8.4434 N   0  0  0  0  0  0  0  0  0  0  0  0
  -15.2965  -38.8813   -8.7188 C   0  0  0  0  0  0  0  0  0  0  0  0
  -16.0215  -38.8453   -7.4597 C   0  0  1  0  0  0  0  0  0  0  0  0
  -16.1966  -37.4997   -7.0668 O   0  0  0  0  0  0  0  0  0  0  0  0
  -17.4147  -39.4750   -7.4418 C   0  0  2  0  0  0  0  0  0  0  0  0
  -18.2956  -38.4843   -6.7333 C   0  0  0  0  0  0  0  0  0  0  0  0
  -19.7249  -38.8535   -6.6604 C   0  0  0  0  0  0  0  0  0  0  0  0
  -20.2250  -38.8432   -7.9963 C   0  0  0  0  0  0  0  0  0  0  0  0
  -21.5016  -39.1463   -8.3356 C   0  0  0  0  0  0  0  0  0  0  0  0
  -22.3059  -39.4745   -7.2693 C   0  0  0  0  0  0  0  0  0  0  0  0
  -21.8903  -39.5079   -5.9257 C   0  0  0  0  0  0  0  0  0  0  0  0
  -22.9958  -39.9115   -5.0473 C   0  0  0  0  0  0  0  0  0  0  0  0
  -22.9567  -41.3648   -4.5572 C   0  0  0  0  0  0  0  0  0  0  0  0
  -23.6084  -42.2896   -5.5005 C   0  0  0  0  0  0  0  0  0  0  0  0
  -22.9104  -43.5740   -5.8228 C   0  0  0  0  0  0  0  0  0  0  0  0
  -22.3206  -43.6643   -7.1687 C   0  0  0  0  0  0  0  0  0  0  0  0
  -20.8266  -43.5225   -7.3054 C   0  0  0  0  0  0  0  0  0  0  0  0
  -19.9628  -42.6442   -6.7132 C   0  0  0  0  0  0  0  0  0  0  0  0
  -18.6243  -42.7310   -7.0970 C   0  0  0  0  0  0  0  0  0  0  0  0
  -18.2446  -43.7036   -8.0539 C   0  0  0  0  0  0  0  0  0  0  0  0
  -19.1302  -44.5788   -8.6364 C   0  0  0  0  0  0  0  0  0  0  0  0
  -18.6880  -45.5877   -9.6426 C   0  0  0  0  0  0  0  0  0  0  0  0
  -20.3834  -44.4547   -8.2409 N   0  0  0  0  0  0  0  0  0  0  0  0
  -17.4547  -41.9492   -6.6992 C   0  0  0  0  0  0  0  0  0  0  0  0
  -16.3717  -42.6588   -6.4874 O   0  0  0  0  0  0  0  0  0  0  0  0
  -17.2465  -40.5691   -6.4948 N   0  0  0  0  0  0  0  0  0  0  0  0
  -20.5563  -39.1842   -5.6356 C   0  0  0  0  0  0  0  0  0  0  0  0
  -13.1777  -37.8919  -11.0874 C   0  0  0  0  0  0  0  0  0  0  0  0
  1  2  1  0
  2  3  1  0
  2  4  1  0
  4  5  2  0
  5  6  1  0
  6  7  2  0
  7  8  1  0
  8  9  1  0
  9 10  1  0
 10 11  1  0
 11 12  1  0
 12 13  1  6
 12 14  1  0
 14 15  1  1
 15 16  1  0
 16 17  1  0
 17 18  2  0
 18 19  1  0
 19 20  2  0
 20 21  1  0
 21 22  1  0
 22 23  1  0
 23 24  1  0
 24 25  1  0
 25 26  1  0
 26 27  1  0
 27 28  2  0
 28 29  1  0
 29 30  2  0
 30 31  1  0
 30 32  1  0
 28 33  1  0
 33 34  2  0
 33 35  1  0
 20 36  1  0
  8 37  2  0
 32 26  2  0
 35 14  1  0
 36 16  2  0
 37  4  1  0
M  END
$$$$
