
     RDKit          3D

 37 40  0  0  0  0  0  0  0  0999 V2000
  -13.2111  -34.8015  -12.1594 C   0  0  0  0  0  0  0  0  0  0  0  0
  -13.1419  -35.5446  -10.8196 C   0  0  0  0  0  0  0  0  0  0  0  0
  -11.9576  -35.0592  -10.0106 C   0  0  0  0  0  0  0  0  0  0  0  0
  -13.0435  -36.9792  -11.1450 C   0  0  0  0  0  0  0  0  0  0  0  0
  -12.1147  -37.3774  -12.0837 C   0  0  0  0  0  0  0  0  0  0  0  0
  -11.9681  -38.7043  -12.4411 C   0  0  0  0  0  0  0  0  0  0  0  0
  -12.7891  -39.6275  -11.8226 C   0  0  0  0  0  0  0  0  0  0  0  0
  -13.7260  -39.2691  -10.8827 C   0  0  0  0  0  0  0  0  0  0  0  0
  -14.6197  -40.2373  -10.2064 C   0  0  0  0  0  0  0  0  0  0  0  0
  -15.4491  -39.6741   -9.2010 N   0  0  0  0  0  0  0  0  0  0  0  0
  -14.7553  -39.0355   -8.0992 C   0  0  0  0  0  0  0  0  0  0  0  0
  -15.7319  -38.6558   -7.0920 C   0  0  1  0  0  0  0  0  0  0  0  0
  -15.9489  -37.2617   -7.1627 O   0  0  0  0  0  0  0  0  0  0  0  0
  -17.1138  -39.3034   -7.1850 C   0  0  2  0  0  0  0  0  0  0  0  0
  -18.0462  -38.3684   -6.4668 C   0  0  0  0  0  0  0  0  0  0  0  0
  -19.4713  -38.7597   -6.4915 C   0  0  0  0  0  0  0  0  0  0  0  0
  -19.9013  -38.6758   -7.8491 C   0  0  0  0  0  0  0  0  0  0  0  0
  -21.1535  -38.9746   -8.2727 C   0  0  0  0  0  0  0  0  0  0  0  0
  -22.0068  -39.3765   -7.2717 C   0  0  0  0  0  0  0  0  0  0  0  0
  -21.6612  -39.4849   -5.9124 C   0  0  0  0  0  0  0  0  0  0  0  0
  -22.8043  -39.9546   -5.1191 C   0  0  0  0  0  0  0  0  0  0  0  0
  -22.7674  -41.4340   -4.7144 C   0  0  0  0  0  0  0  0  0  0  0  0
  -23.3542  -42.3091   -5.7438 C   0  0  0  0  0  0  0  0  0  0  0  0
  -22.6198  -43.5627   -6.1042 C   0  0  0  0  0  0  0  0  0  0  0  0
  -21.9595  -43.5646   -7.4201 C   0  0  0  0  0  0  0  0  0  0  0  0
  -20.4629  -43.3955   -7.4689 C   0  0  0  0  0  0  0  0  0  0  0  0
  -19.6452  -42.5432   -6.7810 C   0  0  0  0  0  0  0  0  0  0  0  0
  -18.2873  -42.5895   -7.0979 C   0  0  0  0  0  0  0  0  0  0  0  0
  -17.8428  -43.4981   -8.0892 C   0  0  0  0  0  0  0  0  0  0  0  0
  -18.6827  -44.3482   -8.7685 C   0  0  0  0  0  0  0  0  0  0  0  0
  -18.1727  -45.2893   -9.8078 C   0  0  0  0  0  0  0  0  0  0  0  0
  -19.9567  -44.2643   -8.4332 N   0  0  0  0  0  0  0  0  0  0  0  0
  -17.1528  -41.8180   -6.5933 C   0  0  0  0  0  0  0  0  0  0  0  0
  -16.0710  -42.5249   -6.3668 O   0  0  0  0  0  0  0  0  0  0  0  0
  -16.9776  -40.4500   -6.2969 N   0  0  0  0  0  0  0  0  0  0  0  0
  -20.3495  -39.1619   -5.5335 C   0  0  0  0  0  0  0  0  0  0  0  0
  -13.8592  -37.9315  -10.5360 C   0  0  0  0  0  0  0  0  0  0  0  0
  1  2  1  0
  2  3  1  0
  2  4  1  0
  4  5  2  0
  5  6  1  0
  6  7  2  0
  7  8  1  0
  8  9  1  0
  9 10  1  0
 10 11  1  0
 11 12  1  0
 12 13  1  6
 12 14  1  0
 14 15  1  1
 15 16  1  0
 16 17  1  0
 17 18  2  0
 18 19  1  0
 19 20  2  0
 20 21  1  0
 21 22  1  0
 22 23  1  0
 23 24  1  0
 24 25  1  0
 25 26  1  0
 26 27  1  0
 27 28  2  0
 28 29  1  0
 29 30  2  0
 30 31  1  0
 30 32  1  0
 28 33  1  0
 33 34  2  0
 33 35  1  0
 20 36  1  0
  8 37  2  0
 32 26  2  0
 35 14  1  0
 36 16  2  0
 37  4  1  0
M  END
$$$$
