
     RDKit          3D

 36 38  0  0  0  0  0  0  0  0999 V2000
  -23.0314  -38.9349   -8.8915 C   0  0  0  0  0  0  0  0  0  0  0  0
  -23.3597  -40.2763   -8.2359 C   0  0  0  0  0  0  0  0  0  0  0  0
  -22.9968  -41.3996   -9.1888 C   0  0  0  0  0  0  0  0  0  0  0  0
  -22.5669  -40.3350   -6.9915 C   0  0  0  0  0  0  0  0  0  0  0  0
  -23.1163  -40.0434   -5.7788 C   0  0  0  0  0  0  0  0  0  0  0  0
  -22.3307  -40.1049   -4.6274 C   0  0  0  0  0  0  0  0  0  0  0  0
  -20.9866  -40.4668   -4.7390 C   0  0  0  0  0  0  0  0  0  0  0  0
  -20.4261  -40.7630   -5.9620 C   0  0  0  0  0  0  0  0  0  0  0  0
  -19.0065  -41.1422   -6.0785 C   0  0  0  0  0  0  0  0  0  0  0  0
  -18.1488  -40.1294   -6.6185 N   0  0  0  0  0  0  0  0  0  0  0  0
  -16.7660  -40.5736   -6.4771 C   0  0  0  0  0  0  0  0  0  0  0  0
  -15.7944  -39.4795   -6.7815 C   0  0  1  0  0  0  0  0  0  0  0  0
  -15.0073  -39.1439   -5.6821 O   0  0  0  0  0  0  0  0  0  0  0  0
  -15.0082  -39.7643   -8.0279 C   0  0  2  0  0  0  0  0  0  0  0  0
  -14.1449  -38.6366   -8.4667 C   0  0  0  0  0  0  0  0  0  0  0  0
  -13.1067  -39.0725   -9.4847 C   0  0  2  0  0  0  0  0  0  0  0  0
  -12.3331  -40.2251   -8.8249 C   0  0  0  0  0  0  0  0  0  0  0  0
  -12.1358  -37.9664   -9.7981 C   0  0  0  0  0  0  0  0  0  0  0  0
  -11.7823  -38.0034  -11.2740 C   0  0  0  0  0  0  0  0  0  0  0  0
  -11.2402  -36.7244  -11.8087 C   0  0  0  0  0  0  0  0  0  0  0  0
  -12.1737  -36.0171  -12.8042 C   0  0  0  0  0  0  0  0  0  0  0  0
  -13.6094  -36.4635  -12.5412 C   0  0  0  0  0  0  0  0  0  0  0  0
  -14.5467  -35.3934  -13.0249 C   0  0  0  0  0  0  0  0  0  0  0  0
  -15.8356  -35.4279  -12.3776 N   0  0  0  0  0  0  0  0  0  0  0  0
  -16.5248  -34.1177  -12.6498 C   0  0  0  0  0  0  0  0  0  0  0  0
  -16.4862  -36.4213  -11.5743 C   0  0  0  0  0  0  0  0  0  0  0  0
  -16.1413  -37.6976  -11.1966 C   0  0  0  0  0  0  0  0  0  0  0  0
  -16.9974  -38.3684  -10.3514 C   0  0  0  0  0  0  0  0  0  0  0  0
  -18.1894  -37.7293   -9.9129 C   0  0  0  0  0  0  0  0  0  0  0  0
  -18.5331  -36.4574  -10.2925 C   0  0  0  0  0  0  0  0  0  0  0  0
  -19.7935  -35.8051   -9.8316 C   0  0  0  0  0  0  0  0  0  0  0  0
  -17.6654  -35.8785  -11.0975 N   0  0  0  0  0  0  0  0  0  0  0  0
  -16.9188  -39.6958   -9.7292 C   0  0  0  0  0  0  0  0  0  0  0  0
  -17.9748  -40.4851   -9.7304 O   0  0  0  0  0  0  0  0  0  0  0  0
  -15.8335  -40.3498   -9.0677 N   0  0  0  0  0  0  0  0  0  0  0  0
  -21.2387  -40.6881   -7.0656 C   0  0  0  0  0  0  0  0  0  0  0  0
  1  2  1  0
  2  3  1  0
  2  4  1  0
  4  5  2  0
  5  6  1  0
  6  7  2  0
  7  8  1  0
  8  9  1  0
  9 10  1  0
 10 11  1  0
 11 12  1  0
 12 13  1  1
 12 14  1  0
 14 15  1  6
 15 16  1  0
 16 17  1  1
 16 18  1  0
 18 19  1  0
 19 20  1  0
 20 21  1  0
 21 22  1  0
 22 23  1  0
 23 24  1  0
 24 25  1  0
 24 26  1  0
 26 27  1  0
 27 28  2  0
 28 29  1  0
 29 30  2  0
 30 31  1  0
 30 32  1  0
 28 33  1  0
 33 34  2  0
 33 35  1  0
  8 36  2  0
 32 26  2  0
 35 14  1  0
 36  4  1  0
M  END
$$$$
