
     RDKit          3D

 36 38  0  0  0  0  0  0  0  0999 V2000
  -21.7774  -39.6289   -3.1320 C   0  0  0  0  0  0  0  0  0  0  0  0
  -22.7888  -40.1420   -4.1571 C   0  0  0  0  0  0  0  0  0  0  0  0
  -24.1792  -39.6837   -3.7591 C   0  0  0  0  0  0  0  0  0  0  0  0
  -22.3788  -39.5820   -5.4606 C   0  0  0  0  0  0  0  0  0  0  0  0
  -23.2726  -38.9752   -6.2915 C   0  0  0  0  0  0  0  0  0  0  0  0
  -22.8453  -38.4646   -7.5177 C   0  0  0  0  0  0  0  0  0  0  0  0
  -21.5004  -38.5852   -7.8737 C   0  0  0  0  0  0  0  0  0  0  0  0
  -20.5926  -39.1971   -7.0377 C   0  0  0  0  0  0  0  0  0  0  0  0
  -19.1738  -39.3259   -7.4161 C   0  0  0  0  0  0  0  0  0  0  0  0
  -18.3396  -38.2263   -7.0315 N   0  0  0  0  0  0  0  0  0  0  0  0
  -16.9585  -38.6939   -6.9750 C   0  0  0  0  0  0  0  0  0  0  0  0
  -16.3927  -38.9296   -8.3380 C   0  0  1  0  0  0  0  0  0  0  0  0
  -16.4110  -37.7827   -9.1288 O   0  0  0  0  0  0  0  0  0  0  0  0
  -15.0531  -39.6038   -8.2756 C   0  0  2  0  0  0  0  0  0  0  0  0
  -14.4770  -39.9240   -9.6080 C   0  0  0  0  0  0  0  0  0  0  0  0
  -12.9975  -40.2538   -9.5279 C   0  0  2  0  0  0  0  0  0  0  0  0
  -12.3373  -39.0479   -8.8407 C   0  0  0  0  0  0  0  0  0  0  0  0
  -12.3882  -40.4143  -10.8945 C   0  0  0  0  0  0  0  0  0  0  0  0
  -11.3653  -41.5357  -10.8664 C   0  0  0  0  0  0  0  0  0  0  0  0
  -11.0506  -42.1144  -12.2012 C   0  0  0  0  0  0  0  0  0  0  0  0
  -11.5411  -43.5593  -12.3877 C   0  0  0  0  0  0  0  0  0  0  0  0
  -12.7065  -43.8145  -11.4355 C   0  0  0  0  0  0  0  0  0  0  0  0
  -13.5614  -44.9143  -11.9986 C   0  0  0  0  0  0  0  0  0  0  0  0
  -14.9206  -44.8851  -11.5158 N   0  0  0  0  0  0  0  0  0  0  0  0
  -15.7496  -45.7617  -12.4157 C   0  0  0  0  0  0  0  0  0  0  0  0
  -15.5425  -44.1955  -10.4236 C   0  0  0  0  0  0  0  0  0  0  0  0
  -15.0566  -43.3810   -9.4280 C   0  0  0  0  0  0  0  0  0  0  0  0
  -15.9653  -42.8279   -8.5530 C   0  0  0  0  0  0  0  0  0  0  0  0
  -17.3485  -43.1196   -8.7052 C   0  0  0  0  0  0  0  0  0  0  0  0
  -17.8311  -43.9340   -9.6970 C   0  0  0  0  0  0  0  0  0  0  0  0
  -19.2853  -44.2385   -9.8362 C   0  0  0  0  0  0  0  0  0  0  0  0
  -16.9047  -44.4228  -10.4963 N   0  0  0  0  0  0  0  0  0  0  0  0
  -15.8011  -41.8996   -7.4276 C   0  0  0  0  0  0  0  0  0  0  0  0
  -16.4223  -42.1325   -6.2882 O   0  0  0  0  0  0  0  0  0  0  0  0
  -15.0393  -40.6950   -7.3194 N   0  0  0  0  0  0  0  0  0  0  0  0
  -21.0605  -39.6839   -5.8428 C   0  0  0  0  0  0  0  0  0  0  0  0
  1  2  1  0
  2  3  1  0
  2  4  1  0
  4  5  2  0
  5  6  1  0
  6  7  2  0
  7  8  1  0
  8  9  1  0
  9 10  1  0
 10 11  1  0
 11 12  1  0
 12 13  1  1
 12 14  1  0
 14 15  1  6
 15 16  1  0
 16 17  1  6
 16 18  1  0
 18 19  1  0
 19 20  1  0
 20 21  1  0
 21 22  1  0
 22 23  1  0
 23 24  1  0
 24 25  1  0
 24 26  1  0
 26 27  1  0
 27 28  2  0
 28 29  1  0
 29 30  2  0
 30 31  1  0
 30 32  1  0
 28 33  1  0
 33 34  2  0
 33 35  1  0
  8 36  2  0
 32 26  2  0
 35 14  1  0
 36  4  1  0
M  END
$$$$
