
     RDKit          3D

 36 38  0  0  0  0  0  0  0  0999 V2000
  -23.5051  -40.0803   -3.7007 C   0  0  0  0  0  0  0  0  0  0  0  0
  -22.3898  -39.3685   -4.4664 C   0  0  0  0  0  0  0  0  0  0  0  0
  -21.0509  -39.7371   -3.8554 C   0  0  0  0  0  0  0  0  0  0  0  0
  -22.4957  -39.8197   -5.8685 C   0  0  0  0  0  0  0  0  0  0  0  0
  -23.3014  -39.1843   -6.7655 C   0  0  0  0  0  0  0  0  0  0  0  0
  -23.3777  -39.6465   -8.0798 C   0  0  0  0  0  0  0  0  0  0  0  0
  -22.6219  -40.7592   -8.4550 C   0  0  0  0  0  0  0  0  0  0  0  0
  -21.8057  -41.4050   -7.5527 C   0  0  0  0  0  0  0  0  0  0  0  0
  -21.0106  -42.5811   -7.9495 C   0  0  0  0  0  0  0  0  0  0  0  0
  -19.9964  -42.3270   -8.9292 N   0  0  0  0  0  0  0  0  0  0  0  0
  -19.5148  -40.9613   -8.7499 C   0  0  0  0  0  0  0  0  0  0  0  0
  -18.6101  -40.5379   -9.8617 C   0  0  1  0  0  0  0  0  0  0  0  0
  -19.3113  -40.0800  -10.9750 O   0  0  0  0  0  0  0  0  0  0  0  0
  -17.5448  -39.5947   -9.3838 C   0  0  2  0  0  0  0  0  0  0  0  0
  -16.8134  -38.9066  -10.4798 C   0  0  0  0  0  0  0  0  0  0  0  0
  -16.0218  -37.7124   -9.9785 C   0  0  2  0  0  0  0  0  0  0  0  0
  -17.0355  -36.8150   -9.2509 C   0  0  0  0  0  0  0  0  0  0  0  0
  -15.4204  -36.9274  -11.1127 C   0  0  0  0  0  0  0  0  0  0  0  0
  -14.0434  -36.4294  -10.7122 C   0  0  0  0  0  0  0  0  0  0  0  0
  -13.1614  -36.0732  -11.8572 C   0  0  0  0  0  0  0  0  0  0  0  0
  -11.9599  -37.0149  -12.0376 C   0  0  0  0  0  0  0  0  0  0  0  0
  -12.2912  -38.3673  -11.4122 C   0  0  0  0  0  0  0  0  0  0  0  0
  -11.4638  -39.4275  -12.0821 C   0  0  0  0  0  0  0  0  0  0  0  0
  -12.0386  -40.7472  -11.9843 N   0  0  0  0  0  0  0  0  0  0  0  0
  -11.3478  -41.6280  -12.9905 C   0  0  0  0  0  0  0  0  0  0  0  0
  -13.0833  -41.2868  -11.1640 C   0  0  0  0  0  0  0  0  0  0  0  0
  -13.8504  -40.7594  -10.1520 C   0  0  0  0  0  0  0  0  0  0  0  0
  -14.8270  -41.5616   -9.6045 C   0  0  0  0  0  0  0  0  0  0  0  0
  -14.9991  -42.8855  -10.0937 C   0  0  0  0  0  0  0  0  0  0  0  0
  -14.2316  -43.4107  -11.1012 C   0  0  0  0  0  0  0  0  0  0  0  0
  -14.4182  -44.8063  -11.5957 C   0  0  0  0  0  0  0  0  0  0  0  0
  -13.3220  -42.5848  -11.5771 N   0  0  0  0  0  0  0  0  0  0  0  0
  -15.8317  -41.3101   -8.5640 C   0  0  0  0  0  0  0  0  0  0  0  0
  -16.0328  -42.2037   -7.6157 O   0  0  0  0  0  0  0  0  0  0  0  0
  -16.7052  -40.1964   -8.3649 N   0  0  0  0  0  0  0  0  0  0  0  0
  -21.7644  -40.9137   -6.2718 C   0  0  0  0  0  0  0  0  0  0  0  0
  1  2  1  0
  2  3  1  0
  2  4  1  0
  4  5  2  0
  5  6  1  0
  6  7  2  0
  7  8  1  0
  8  9  1  0
  9 10  1  0
 10 11  1  0
 11 12  1  0
 12 13  1  6
 12 14  1  0
 14 15  1  6
 15 16  1  0
 16 17  1  6
 16 18  1  0
 18 19  1  0
 19 20  1  0
 20 21  1  0
 21 22  1  0
 22 23  1  0
 23 24  1  0
 24 25  1  0
 24 26  1  0
 26 27  1  0
 27 28  2  0
 28 29  1  0
 29 30  2  0
 30 31  1  0
 30 32  1  0
 28 33  1  0
 33 34  2  0
 33 35  1  0
  8 36  2  0
 32 26  2  0
 35 14  1  0
 36  4  1  0
M  END
$$$$
