
     RDKit          3D

 36 38  0  0  0  0  0  0  0  0999 V2000
  -13.7761  -33.5639  -11.6500 C   0  0  0  0  0  0  0  0  0  0  0  0
  -12.9613  -34.8287  -11.9211 C   0  0  0  0  0  0  0  0  0  0  0  0
  -12.0011  -35.0603  -10.7696 C   0  0  0  0  0  0  0  0  0  0  0  0
  -13.9361  -35.9301  -12.0524 C   0  0  0  0  0  0  0  0  0  0  0  0
  -15.0598  -35.8040  -12.8133 C   0  0  0  0  0  0  0  0  0  0  0  0
  -15.9589  -36.8669  -12.9059 C   0  0  0  0  0  0  0  0  0  0  0  0
  -15.6894  -38.0488  -12.2127 C   0  0  0  0  0  0  0  0  0  0  0  0
  -14.5552  -38.1819  -11.4424 C   0  0  0  0  0  0  0  0  0  0  0  0
  -14.2734  -39.4292  -10.7091 C   0  0  0  0  0  0  0  0  0  0  0  0
  -15.3611  -39.9317   -9.9235 N   0  0  0  0  0  0  0  0  0  0  0  0
  -15.5288  -39.0652   -8.7615 C   0  0  0  0  0  0  0  0  0  0  0  0
  -16.4103  -39.6847   -7.7258 C   0  0  1  0  0  0  0  0  0  0  0  0
  -16.1129  -39.2426   -6.4385 O   0  0  0  0  0  0  0  0  0  0  0  0
  -17.8621  -39.5679   -8.0885 C   0  0  2  0  0  0  0  0  0  0  0  0
  -18.7834  -39.6640   -6.9259 C   0  0  0  0  0  0  0  0  0  0  0  0
  -20.1822  -39.1799   -7.2620 C   0  0  2  0  0  0  0  0  0  0  0  0
  -20.0112  -37.7506   -7.8008 C   0  0  0  0  0  0  0  0  0  0  0  0
  -21.0607  -39.1258   -6.0415 C   0  0  0  0  0  0  0  0  0  0  0  0
  -22.4692  -39.5562   -6.4096 C   0  0  0  0  0  0  0  0  0  0  0  0
  -23.2953  -40.0075   -5.2565 C   0  0  0  0  0  0  0  0  0  0  0  0
  -23.6228  -41.5093   -5.2717 C   0  0  0  0  0  0  0  0  0  0  0  0
  -22.5614  -42.2404   -6.0895 C   0  0  0  0  0  0  0  0  0  0  0  0
  -22.4897  -43.6679   -5.6263 C   0  0  0  0  0  0  0  0  0  0  0  0
  -21.2227  -44.2971   -5.9093 N   0  0  0  0  0  0  0  0  0  0  0  0
  -21.1340  -45.5507   -5.0808 C   0  0  0  0  0  0  0  0  0  0  0  0
  -20.1323  -43.9303   -6.7647 C   0  0  0  0  0  0  0  0  0  0  0  0
  -19.9405  -42.8973   -7.6517 C   0  0  0  0  0  0  0  0  0  0  0  0
  -18.7186  -42.8133   -8.2819 C   0  0  0  0  0  0  0  0  0  0  0  0
  -17.7195  -43.7852   -8.0013 C   0  0  0  0  0  0  0  0  0  0  0  0
  -17.9133  -44.8162   -7.1184 C   0  0  0  0  0  0  0  0  0  0  0  0
  -16.8576  -45.8343   -6.8433 C   0  0  0  0  0  0  0  0  0  0  0  0
  -19.1031  -44.8294   -6.5527 N   0  0  0  0  0  0  0  0  0  0  0  0
  -18.1715  -41.8365   -9.2316 C   0  0  0  0  0  0  0  0  0  0  0  0
  -17.5218  -42.2529  -10.3006 O   0  0  0  0  0  0  0  0  0  0  0  0
  -18.2075  -40.4077   -9.2201 N   0  0  0  0  0  0  0  0  0  0  0  0
  -13.7013  -37.1090  -11.3821 C   0  0  0  0  0  0  0  0  0  0  0  0
  1  2  1  0
  2  3  1  0
  2  4  1  0
  4  5  2  0
  5  6  1  0
  6  7  2  0
  7  8  1  0
  8  9  1  0
  9 10  1  0
 10 11  1  0
 11 12  1  0
 12 13  1  1
 12 14  1  0
 14 15  1  1
 15 16  1  0
 16 17  1  1
 16 18  1  0
 18 19  1  0
 19 20  1  0
 20 21  1  0
 21 22  1  0
 22 23  1  0
 23 24  1  0
 24 25  1  0
 24 26  1  0
 26 27  1  0
 27 28  2  0
 28 29  1  0
 29 30  2  0
 30 31  1  0
 30 32  1  0
 28 33  1  0
 33 34  2  0
 33 35  1  0
  8 36  2  0
 32 26  2  0
 35 14  1  0
 36  4  1  0
M  END
$$$$
