
     RDKit          3D

 36 38  0  0  0  0  0  0  0  0999 V2000
  -21.3875  -41.5533   -4.6808 C   0  0  0  0  0  0  0  0  0  0  0  0
  -22.6793  -41.3185   -5.4638 C   0  0  0  0  0  0  0  0  0  0  0  0
  -23.7638  -40.8544   -4.5099 C   0  0  0  0  0  0  0  0  0  0  0  0
  -22.3678  -40.2939   -6.4806 C   0  0  0  0  0  0  0  0  0  0  0  0
  -23.2154  -40.0319   -7.5152 C   0  0  0  0  0  0  0  0  0  0  0  0
  -22.8804  -39.0599   -8.4584 C   0  0  0  0  0  0  0  0  0  0  0  0
  -21.6749  -38.3681   -8.3243 C   0  0  0  0  0  0  0  0  0  0  0  0
  -20.8146  -38.6285   -7.2804 C   0  0  0  0  0  0  0  0  0  0  0  0
  -19.5411  -37.8993   -7.1417 C   0  0  0  0  0  0  0  0  0  0  0  0
  -18.5835  -38.1451   -8.1788 N   0  0  0  0  0  0  0  0  0  0  0  0
  -17.9722  -39.4488   -7.9415 C   0  0  0  0  0  0  0  0  0  0  0  0
  -16.4939  -39.3452   -7.7478 C   0  0  1  0  0  0  0  0  0  0  0  0
  -16.1436  -39.1426   -6.4147 O   0  0  0  0  0  0  0  0  0  0  0  0
  -15.7658  -40.4833   -8.4016 C   0  0  2  0  0  0  0  0  0  0  0  0
  -14.2919  -40.3001   -8.4627 C   0  0  0  0  0  0  0  0  0  0  0  0
  -13.5664  -41.5953   -8.7791 C   0  0  2  0  0  0  0  0  0  0  0  0
  -14.0223  -42.6013   -7.7102 C   0  0  0  0  0  0  0  0  0  0  0  0
  -12.0736  -41.4365   -8.6765 C   0  0  0  0  0  0  0  0  0  0  0  0
  -11.3998  -42.2481   -9.7682 C   0  0  0  0  0  0  0  0  0  0  0  0
  -10.0113  -41.8168  -10.0869 C   0  0  0  0  0  0  0  0  0  0  0  0
   -9.8567  -41.1859  -11.4801 C   0  0  0  0  0  0  0  0  0  0  0  0
  -11.2055  -40.6258  -11.9237 C   0  0  0  0  0  0  0  0  0  0  0  0
  -10.9702  -39.5207  -12.9141 C   0  0  0  0  0  0  0  0  0  0  0  0
  -12.0641  -38.5836  -12.9947 N   0  0  0  0  0  0  0  0  0  0  0  0
  -11.5667  -37.3524  -13.7035 C   0  0  0  0  0  0  0  0  0  0  0  0
  -13.4183  -38.6378  -12.5272 C   0  0  0  0  0  0  0  0  0  0  0  0
  -14.1580  -39.6140  -11.9023 C   0  0  0  0  0  0  0  0  0  0  0  0
  -15.4479  -39.3020  -11.5332 C   0  0  0  0  0  0  0  0  0  0  0  0
  -15.9604  -38.0056  -11.8129 C   0  0  0  0  0  0  0  0  0  0  0  0
  -15.2222  -37.0341  -12.4384 C   0  0  0  0  0  0  0  0  0  0  0  0
  -15.7790  -35.6816  -12.7342 C   0  0  0  0  0  0  0  0  0  0  0  0
  -13.9986  -37.4039  -12.7578 N   0  0  0  0  0  0  0  0  0  0  0  0
  -16.4776  -40.0725  -10.8252 C   0  0  0  0  0  0  0  0  0  0  0  0
  -17.7177  -40.0779  -11.2730 O   0  0  0  0  0  0  0  0  0  0  0  0
  -16.3901  -40.8808   -9.6496 N   0  0  0  0  0  0  0  0  0  0  0  0
  -21.1874  -39.5935   -6.3785 C   0  0  0  0  0  0  0  0  0  0  0  0
  1  2  1  0
  2  3  1  0
  2  4  1  0
  4  5  2  0
  5  6  1  0
  6  7  2  0
  7  8  1  0
  8  9  1  0
  9 10  1  0
 10 11  1  0
 11 12  1  0
 12 13  1  1
 12 14  1  0
 14 15  1  6
 15 16  1  0
 16 17  1  1
 16 18  1  0
 18 19  1  0
 19 20  1  0
 20 21  1  0
 21 22  1  0
 22 23  1  0
 23 24  1  0
 24 25  1  0
 24 26  1  0
 26 27  1  0
 27 28  2  0
 28 29  1  0
 29 30  2  0
 30 31  1  0
 30 32  1  0
 28 33  1  0
 33 34  2  0
 33 35  1  0
  8 36  2  0
 32 26  2  0
 35 14  1  0
 36  4  1  0
M  END
$$$$
