
     RDKit          3D

 36 38  0  0  0  0  0  0  0  0999 V2000
  -22.9575  -36.0222   -6.5394 C   0  0  0  0  0  0  0  0  0  0  0  0
  -22.9506  -36.7856   -7.8638 C   0  0  0  0  0  0  0  0  0  0  0  0
  -22.6080  -35.8284   -8.9898 C   0  0  0  0  0  0  0  0  0  0  0  0
  -21.9383  -37.8515   -7.7230 C   0  0  0  0  0  0  0  0  0  0  0  0
  -22.2605  -39.1678   -7.8688 C   0  0  0  0  0  0  0  0  0  0  0  0
  -21.2751  -40.1445   -7.7214 C   0  0  0  0  0  0  0  0  0  0  0  0
  -19.9677  -39.7532   -7.4256 C   0  0  0  0  0  0  0  0  0  0  0  0
  -19.6363  -38.4244   -7.2776 C   0  0  0  0  0  0  0  0  0  0  0  0
  -18.2563  -38.0130   -6.9627 C   0  0  0  0  0  0  0  0  0  0  0  0
  -17.5487  -38.8873   -6.0750 N   0  0  0  0  0  0  0  0  0  0  0  0
  -16.4247  -39.4693   -6.8011 C   0  0  0  0  0  0  0  0  0  0  0  0
  -16.6815  -40.8920   -7.1801 C   0  0  1  0  0  0  0  0  0  0  0  0
  -17.5484  -41.5313   -6.2965 O   0  0  0  0  0  0  0  0  0  0  0  0
  -17.0790  -41.0208   -8.6218 C   0  0  2  0  0  0  0  0  0  0  0  0
  -18.5091  -41.3724   -8.8235 C   0  0  0  0  0  0  0  0  0  0  0  0
  -18.9615  -41.1334  -10.2526 C   0  0  2  0  0  0  0  0  0  0  0  0
  -18.6367  -39.6614  -10.5528 C   0  0  0  0  0  0  0  0  0  0  0  0
  -20.4447  -41.3341  -10.4078 C   0  0  0  0  0  0  0  0  0  0  0  0
  -20.7315  -41.9905  -11.7462 C   0  0  0  0  0  0  0  0  0  0  0  0
  -22.0526  -42.6717  -11.8265 C   0  0  0  0  0  0  0  0  0  0  0  0
  -21.9617  -44.2029  -11.9266 C   0  0  0  0  0  0  0  0  0  0  0  0
  -20.6339  -44.6612  -11.3295 C   0  0  0  0  0  0  0  0  0  0  0  0
  -20.7777  -46.0807  -10.8586 C   0  0  0  0  0  0  0  0  0  0  0  0
  -19.8302  -46.4406   -9.8319 N   0  0  0  0  0  0  0  0  0  0  0  0
  -20.3088  -47.7136   -9.1869 C   0  0  0  0  0  0  0  0  0  0  0  0
  -18.6271  -45.8151   -9.3663 C   0  0  0  0  0  0  0  0  0  0  0  0
  -17.9296  -44.7017   -9.7718 C   0  0  0  0  0  0  0  0  0  0  0  0
  -16.8145  -44.3455   -9.0459 C   0  0  0  0  0  0  0  0  0  0  0  0
  -16.4287  -45.1327   -7.9264 C   0  0  0  0  0  0  0  0  0  0  0  0
  -17.1241  -46.2442   -7.5250 C   0  0  0  0  0  0  0  0  0  0  0  0
  -16.6994  -47.0656   -6.3538 C   0  0  0  0  0  0  0  0  0  0  0  0
  -18.1792  -46.5203   -8.2642 N   0  0  0  0  0  0  0  0  0  0  0  0
  -15.8843  -43.2165   -9.1703 C   0  0  0  0  0  0  0  0  0  0  0  0
  -14.5848  -43.4245   -9.0909 O   0  0  0  0  0  0  0  0  0  0  0  0
  -16.1342  -41.8241   -9.3749 N   0  0  0  0  0  0  0  0  0  0  0  0
  -20.6398  -37.5007   -7.4313 C   0  0  0  0  0  0  0  0  0  0  0  0
  1  2  1  0
  2  3  1  0
  2  4  1  0
  4  5  2  0
  5  6  1  0
  6  7  2  0
  7  8  1  0
  8  9  1  0
  9 10  1  0
 10 11  1  0
 11 12  1  0
 12 13  1  1
 12 14  1  0
 14 15  1  1
 15 16  1  0
 16 17  1  1
 16 18  1  0
 18 19  1  0
 19 20  1  0
 20 21  1  0
 21 22  1  0
 22 23  1  0
 23 24  1  0
 24 25  1  0
 24 26  1  0
 26 27  1  0
 27 28  2  0
 28 29  1  0
 29 30  2  0
 30 31  1  0
 30 32  1  0
 28 33  1  0
 33 34  2  0
 33 35  1  0
  8 36  2  0
 32 26  2  0
 35 14  1  0
 36  4  1  0
M  END
$$$$
