
     RDKit          3D

 36 38  0  0  0  0  0  0  0  0999 V2000
  -13.2737  -35.6144  -15.0326 C   0  0  0  0  0  0  0  0  0  0  0  0
  -14.0188  -35.2937  -13.7368 C   0  0  0  0  0  0  0  0  0  0  0  0
  -15.5076  -35.4855  -13.9566 C   0  0  0  0  0  0  0  0  0  0  0  0
  -13.4914  -36.2200  -12.7148 C   0  0  0  0  0  0  0  0  0  0  0  0
  -12.2737  -36.0265  -12.1342 C   0  0  0  0  0  0  0  0  0  0  0  0
  -11.8093  -36.9290  -11.1768 C   0  0  0  0  0  0  0  0  0  0  0  0
  -12.6061  -38.0216  -10.8283 C   0  0  0  0  0  0  0  0  0  0  0  0
  -13.8378  -38.2219  -11.4116 C   0  0  0  0  0  0  0  0  0  0  0  0
  -14.6766  -39.3771  -11.0446 C   0  0  0  0  0  0  0  0  0  0  0  0
  -15.8764  -39.0551  -10.3306 N   0  0  0  0  0  0  0  0  0  0  0  0
  -15.5429  -38.8928   -8.9193 C   0  0  0  0  0  0  0  0  0  0  0  0
  -16.3718  -39.7767   -8.0446 C   0  0  1  0  0  0  0  0  0  0  0  0
  -16.0055  -39.6944   -6.7029 O   0  0  0  0  0  0  0  0  0  0  0  0
  -17.8400  -39.5810   -8.2872 C   0  0  2  0  0  0  0  0  0  0  0  0
  -18.6740  -39.6974   -7.0622 C   0  0  0  0  0  0  0  0  0  0  0  0
  -20.0707  -39.1387   -7.2650 C   0  0  2  0  0  0  0  0  0  0  0  0
  -19.8759  -37.6923   -7.7471 C   0  0  0  0  0  0  0  0  0  0  0  0
  -20.8508  -39.1099   -5.9786 C   0  0  0  0  0  0  0  0  0  0  0  0
  -22.3014  -39.4617   -6.2558 C   0  0  0  0  0  0  0  0  0  0  0  0
  -23.0575  -39.9360   -5.0646 C   0  0  0  0  0  0  0  0  0  0  0  0
  -23.4534  -41.4201   -5.1254 C   0  0  0  0  0  0  0  0  0  0  0  0
  -22.4915  -42.1524   -6.0572 C   0  0  0  0  0  0  0  0  0  0  0  0
  -22.4502  -43.6034   -5.6692 C   0  0  0  0  0  0  0  0  0  0  0  0
  -21.2383  -44.2700   -6.0795 N   0  0  0  0  0  0  0  0  0  0  0  0
  -21.1444  -45.5666   -5.3209 C   0  0  0  0  0  0  0  0  0  0  0  0
  -20.2002  -43.9061   -6.9989 C   0  0  0  0  0  0  0  0  0  0  0  0
  -20.0291  -42.8384   -7.8482 C   0  0  0  0  0  0  0  0  0  0  0  0
  -18.8559  -42.7737   -8.5670 C   0  0  0  0  0  0  0  0  0  0  0  0
  -17.8838  -43.7996   -8.4115 C   0  0  0  0  0  0  0  0  0  0  0  0
  -18.0571  -44.8651   -7.5660 C   0  0  0  0  0  0  0  0  0  0  0  0
  -17.0312  -45.9391   -7.4226 C   0  0  0  0  0  0  0  0  0  0  0  0
  -19.2001  -44.8571   -6.9106 N   0  0  0  0  0  0  0  0  0  0  0  0
  -18.3383  -41.7737   -9.5090 C   0  0  0  0  0  0  0  0  0  0  0  0
  -17.7912  -42.1621  -10.6439 O   0  0  0  0  0  0  0  0  0  0  0  0
  -18.3081  -40.3470   -9.4270 N   0  0  0  0  0  0  0  0  0  0  0  0
  -14.2511  -37.3075  -12.3481 C   0  0  0  0  0  0  0  0  0  0  0  0
  1  2  1  0
  2  3  1  0
  2  4  1  0
  4  5  2  0
  5  6  1  0
  6  7  2  0
  7  8  1  0
  8  9  1  0
  9 10  1  0
 10 11  1  0
 11 12  1  0
 12 13  1  1
 12 14  1  0
 14 15  1  1
 15 16  1  0
 16 17  1  1
 16 18  1  0
 18 19  1  0
 19 20  1  0
 20 21  1  0
 21 22  1  0
 22 23  1  0
 23 24  1  0
 24 25  1  0
 24 26  1  0
 26 27  1  0
 27 28  2  0
 28 29  1  0
 29 30  2  0
 30 31  1  0
 30 32  1  0
 28 33  1  0
 33 34  2  0
 33 35  1  0
  8 36  2  0
 32 26  2  0
 35 14  1  0
 36  4  1  0
M  END
$$$$
