
     RDKit          3D

 36 38  0  0  0  0  0  0  0  0999 V2000
  -11.4806  -34.9340  -10.7564 C   0  0  0  0  0  0  0  0  0  0  0  0
  -12.2765  -35.0917  -12.0520 C   0  0  0  0  0  0  0  0  0  0  0  0
  -11.3299  -34.9971  -13.2339 C   0  0  0  0  0  0  0  0  0  0  0  0
  -12.9317  -36.4130  -11.9784 C   0  0  0  0  0  0  0  0  0  0  0  0
  -13.6903  -36.8935  -13.0036 C   0  0  0  0  0  0  0  0  0  0  0  0
  -14.2976  -38.1446  -12.8914 C   0  0  0  0  0  0  0  0  0  0  0  0
  -14.1156  -38.8871  -11.7228 C   0  0  0  0  0  0  0  0  0  0  0  0
  -13.3497  -38.4066  -10.6835 C   0  0  0  0  0  0  0  0  0  0  0  0
  -13.1608  -39.1904   -9.4495 C   0  0  0  0  0  0  0  0  0  0  0  0
  -14.1989  -40.1361   -9.1648 N   0  0  0  0  0  0  0  0  0  0  0  0
  -15.4771  -39.4320   -9.1693 C   0  0  0  0  0  0  0  0  0  0  0  0
  -16.2890  -39.7414   -7.9532 C   0  0  1  0  0  0  0  0  0  0  0  0
  -15.8151  -39.0913   -6.8158 O   0  0  0  0  0  0  0  0  0  0  0  0
  -17.7566  -39.5446   -8.1990 C   0  0  2  0  0  0  0  0  0  0  0  0
  -18.6051  -39.7814   -7.0017 C   0  0  0  0  0  0  0  0  0  0  0  0
  -20.0071  -39.2256   -7.1743 C   0  0  2  0  0  0  0  0  0  0  0  0
  -19.8272  -37.7394   -7.5226 C   0  0  0  0  0  0  0  0  0  0  0  0
  -20.8048  -39.3225   -5.9022 C   0  0  0  0  0  0  0  0  0  0  0  0
  -22.2461  -39.6677   -6.2311 C   0  0  0  0  0  0  0  0  0  0  0  0
  -23.0112  -40.2568   -5.0982 C   0  0  0  0  0  0  0  0  0  0  0  0
  -23.3842  -41.7347   -5.2970 C   0  0  0  0  0  0  0  0  0  0  0  0
  -22.3992  -42.3677   -6.2762 C   0  0  0  0  0  0  0  0  0  0  0  0
  -22.3417  -43.8469   -6.0187 C   0  0  0  0  0  0  0  0  0  0  0  0
  -21.1146  -44.4577   -6.4689 N   0  0  0  0  0  0  0  0  0  0  0  0
  -21.0119  -45.8156   -5.8277 C   0  0  0  0  0  0  0  0  0  0  0  0
  -20.0697  -43.9991   -7.3368 C   0  0  0  0  0  0  0  0  0  0  0  0
  -19.9031  -42.8574   -8.0848 C   0  0  0  0  0  0  0  0  0  0  0  0
  -18.7214  -42.7129   -8.7775 C   0  0  0  0  0  0  0  0  0  0  0  0
  -17.7364  -43.7353   -8.6999 C   0  0  0  0  0  0  0  0  0  0  0  0
  -17.9053  -44.8744   -7.9556 C   0  0  0  0  0  0  0  0  0  0  0  0
  -16.8657  -45.9431   -7.8935 C   0  0  0  0  0  0  0  0  0  0  0  0
  -19.0570  -44.9406   -7.3189 N   0  0  0  0  0  0  0  0  0  0  0  0
  -18.2059  -41.6258   -9.6188 C   0  0  0  0  0  0  0  0  0  0  0  0
  -17.6379  -41.9036  -10.7757 O   0  0  0  0  0  0  0  0  0  0  0  0
  -18.1979  -40.2118   -9.4094 N   0  0  0  0  0  0  0  0  0  0  0  0
  -12.7733  -37.1709  -10.8405 C   0  0  0  0  0  0  0  0  0  0  0  0
  1  2  1  0
  2  3  1  0
  2  4  1  0
  4  5  2  0
  5  6  1  0
  6  7  2  0
  7  8  1  0
  8  9  1  0
  9 10  1  0
 10 11  1  0
 11 12  1  0
 12 13  1  1
 12 14  1  0
 14 15  1  1
 15 16  1  0
 16 17  1  1
 16 18  1  0
 18 19  1  0
 19 20  1  0
 20 21  1  0
 21 22  1  0
 22 23  1  0
 23 24  1  0
 24 25  1  0
 24 26  1  0
 26 27  1  0
 27 28  2  0
 28 29  1  0
 29 30  2  0
 30 31  1  0
 30 32  1  0
 28 33  1  0
 33 34  2  0
 33 35  1  0
  8 36  2  0
 32 26  2  0
 35 14  1  0
 36  4  1  0
M  END
$$$$
