
     RDKit          3D

 36 38  0  0  0  0  0  0  0  0999 V2000
  -14.4076  -34.2471  -11.2976 C   0  0  0  0  0  0  0  0  0  0  0  0
  -13.3001  -34.7862  -12.2029 C   0  0  0  0  0  0  0  0  0  0  0  0
  -11.9517  -34.4783  -11.5794 C   0  0  0  0  0  0  0  0  0  0  0  0
  -13.5310  -36.2400  -12.3202 C   0  0  0  0  0  0  0  0  0  0  0  0
  -13.9288  -36.8088  -13.4931 C   0  0  0  0  0  0  0  0  0  0  0  0
  -14.1422  -38.1860  -13.5601 C   0  0  0  0  0  0  0  0  0  0  0  0
  -13.9426  -38.9621  -12.4165 C   0  0  0  0  0  0  0  0  0  0  0  0
  -13.5401  -38.3927  -11.2285 C   0  0  0  0  0  0  0  0  0  0  0  0
  -13.3324  -39.2128  -10.0214 C   0  0  0  0  0  0  0  0  0  0  0  0
  -14.1851  -38.8935   -8.9151 N   0  0  0  0  0  0  0  0  0  0  0  0
  -15.3338  -39.7931   -8.9444 C   0  0  0  0  0  0  0  0  0  0  0  0
  -16.2612  -39.5517   -7.7976 C   0  0  1  0  0  0  0  0  0  0  0  0
  -15.8334  -38.5115   -6.9755 O   0  0  0  0  0  0  0  0  0  0  0  0
  -17.6858  -39.4211   -8.2519 C   0  0  2  0  0  0  0  0  0  0  0  0
  -18.6793  -39.4949   -7.1486 C   0  0  0  0  0  0  0  0  0  0  0  0
  -20.0481  -38.9974   -7.5763 C   0  0  2  0  0  0  0  0  0  0  0  0
  -19.8257  -37.5756   -8.1163 C   0  0  0  0  0  0  0  0  0  0  0  0
  -21.0007  -38.9208   -6.4140 C   0  0  0  0  0  0  0  0  0  0  0  0
  -22.3886  -39.3379   -6.8660 C   0  0  0  0  0  0  0  0  0  0  0  0
  -23.2910  -39.7680   -5.7630 C   0  0  0  0  0  0  0  0  0  0  0  0
  -23.6356  -41.2659   -5.7852 C   0  0  0  0  0  0  0  0  0  0  0  0
  -22.5343  -42.0175   -6.5280 C   0  0  0  0  0  0  0  0  0  0  0  0
  -22.5097  -43.4412   -6.0483 C   0  0  0  0  0  0  0  0  0  0  0  0
  -21.2354  -44.0883   -6.2454 N   0  0  0  0  0  0  0  0  0  0  0  0
  -21.2146  -45.3346   -5.4017 C   0  0  0  0  0  0  0  0  0  0  0  0
  -20.0890  -43.7429   -7.0339 C   0  0  0  0  0  0  0  0  0  0  0  0
  -19.8290  -42.7210   -7.9164 C   0  0  0  0  0  0  0  0  0  0  0  0
  -18.5690  -42.6578   -8.4693 C   0  0  0  0  0  0  0  0  0  0  0  0
  -17.6018  -43.6388   -8.1178 C   0  0  0  0  0  0  0  0  0  0  0  0
  -17.8635  -44.6587   -7.2395 C   0  0  0  0  0  0  0  0  0  0  0  0
  -16.8399  -45.6866   -6.8894 C   0  0  0  0  0  0  0  0  0  0  0  0
  -19.0866  -44.6521   -6.7495 N   0  0  0  0  0  0  0  0  0  0  0  0
  -17.9512  -41.6970   -9.3916 C   0  0  0  0  0  0  0  0  0  0  0  0
  -17.2411  -42.1316  -10.4139 O   0  0  0  0  0  0  0  0  0  0  0  0
  -17.9700  -40.2678   -9.3953 N   0  0  0  0  0  0  0  0  0  0  0  0
  -13.3437  -37.0344  -11.2120 C   0  0  0  0  0  0  0  0  0  0  0  0
  1  2  1  0
  2  3  1  0
  2  4  1  0
  4  5  2  0
  5  6  1  0
  6  7  2  0
  7  8  1  0
  8  9  1  0
  9 10  1  0
 10 11  1  0
 11 12  1  0
 12 13  1  6
 12 14  1  0
 14 15  1  1
 15 16  1  0
 16 17  1  1
 16 18  1  0
 18 19  1  0
 19 20  1  0
 20 21  1  0
 21 22  1  0
 22 23  1  0
 23 24  1  0
 24 25  1  0
 24 26  1  0
 26 27  1  0
 27 28  2  0
 28 29  1  0
 29 30  2  0
 30 31  1  0
 30 32  1  0
 28 33  1  0
 33 34  2  0
 33 35  1  0
  8 36  2  0
 32 26  2  0
 35 14  1  0
 36  4  1  0
M  END
$$$$
