
     RDKit          3D

 36 38  0  0  0  0  0  0  0  0999 V2000
  -21.2059  -39.9837   -3.7409 C   0  0  0  0  0  0  0  0  0  0  0  0
  -22.3420  -40.4896   -4.6299 C   0  0  0  0  0  0  0  0  0  0  0  0
  -23.3494  -39.3741   -4.8357 C   0  0  0  0  0  0  0  0  0  0  0  0
  -21.7190  -40.9076   -5.9018 C   0  0  0  0  0  0  0  0  0  0  0  0
  -21.8461  -42.1787   -6.3770 C   0  0  0  0  0  0  0  0  0  0  0  0
  -21.2361  -42.5347   -7.5803 C   0  0  0  0  0  0  0  0  0  0  0  0
  -20.5018  -41.5756   -8.2810 C   0  0  0  0  0  0  0  0  0  0  0  0
  -20.3703  -40.2894   -7.8057 C   0  0  0  0  0  0  0  0  0  0  0  0
  -19.5926  -39.2789   -8.5452 C   0  0  0  0  0  0  0  0  0  0  0  0
  -18.8303  -38.3813   -7.7290 N   0  0  0  0  0  0  0  0  0  0  0  0
  -17.4215  -38.7467   -7.8345 C   0  0  0  0  0  0  0  0  0  0  0  0
  -16.6150  -37.6759   -8.4952 C   0  0  1  0  0  0  0  0  0  0  0  0
  -16.7919  -36.4297   -7.8980 O   0  0  0  0  0  0  0  0  0  0  0  0
  -15.1770  -38.0775   -8.6498 C   0  0  2  0  0  0  0  0  0  0  0  0
  -14.5932  -37.7304   -9.9720 C   0  0  0  0  0  0  0  0  0  0  0  0
  -13.0771  -37.8054   -9.9661 C   0  0  2  0  0  0  0  0  0  0  0  0
  -12.6179  -36.8843   -8.8246 C   0  0  0  0  0  0  0  0  0  0  0  0
  -12.4896  -37.2952  -11.2540 C   0  0  0  0  0  0  0  0  0  0  0  0
  -11.2862  -38.1394  -11.6332 C   0  0  0  0  0  0  0  0  0  0  0  0
  -10.9146  -38.0687  -13.0729 C   0  0  0  0  0  0  0  0  0  0  0  0
  -11.1505  -39.3770  -13.8446 C   0  0  0  0  0  0  0  0  0  0  0  0
  -12.2249  -40.1896  -13.1269 C   0  0  0  0  0  0  0  0  0  0  0  0
  -12.8907  -41.0987  -14.1208 C   0  0  0  0  0  0  0  0  0  0  0  0
  -14.2194  -41.4999  -13.7270 N   0  0  0  0  0  0  0  0  0  0  0  0
  -14.9086  -42.0682  -14.9384 C   0  0  0  0  0  0  0  0  0  0  0  0
  -14.9199  -41.4260  -12.4783 C   0  0  0  0  0  0  0  0  0  0  0  0
  -14.5547  -41.0109  -11.2194 C   0  0  0  0  0  0  0  0  0  0  0  0
  -15.5199  -41.0215  -10.2368 C   0  0  0  0  0  0  0  0  0  0  0  0
  -16.8348  -41.4599  -10.5538 C   0  0  0  0  0  0  0  0  0  0  0  0
  -17.1967  -41.8759  -11.8092 C   0  0  0  0  0  0  0  0  0  0  0  0
  -18.5788  -42.3432  -12.1225 C   0  0  0  0  0  0  0  0  0  0  0  0
  -16.2230  -41.8348  -12.6959 N   0  0  0  0  0  0  0  0  0  0  0  0
  -15.4874  -40.6115   -8.8275 C   0  0  0  0  0  0  0  0  0  0  0  0
  -16.0247  -41.3861   -7.9057 O   0  0  0  0  0  0  0  0  0  0  0  0
  -14.9449  -39.4411   -8.2119 N   0  0  0  0  0  0  0  0  0  0  0  0
  -20.9878  -39.9872   -6.6178 C   0  0  0  0  0  0  0  0  0  0  0  0
  1  2  1  0
  2  3  1  0
  2  4  1  0
  4  5  2  0
  5  6  1  0
  6  7  2  0
  7  8  1  0
  8  9  1  0
  9 10  1  0
 10 11  1  0
 11 12  1  0
 12 13  1  1
 12 14  1  0
 14 15  1  6
 15 16  1  0
 16 17  1  1
 16 18  1  0
 18 19  1  0
 19 20  1  0
 20 21  1  0
 21 22  1  0
 22 23  1  0
 23 24  1  0
 24 25  1  0
 24 26  1  0
 26 27  1  0
 27 28  2  0
 28 29  1  0
 29 30  2  0
 30 31  1  0
 30 32  1  0
 28 33  1  0
 33 34  2  0
 33 35  1  0
  8 36  2  0
 32 26  2  0
 35 14  1  0
 36  4  1  0
M  END
$$$$
