
     RDKit          3D

 36 38  0  0  0  0  0  0  0  0999 V2000
  -22.1254  -41.7625   -3.6582 C   0  0  0  0  0  0  0  0  0  0  0  0
  -23.4155  -41.1454   -4.1982 C   0  0  0  0  0  0  0  0  0  0  0  0
  -24.0462  -40.2841   -3.1201 C   0  0  0  0  0  0  0  0  0  0  0  0
  -23.0314  -40.3495   -5.3812 C   0  0  0  0  0  0  0  0  0  0  0  0
  -23.9590  -39.6933   -6.1340 C   0  0  0  0  0  0  0  0  0  0  0  0
  -23.5547  -38.9571   -7.2481 C   0  0  0  0  0  0  0  0  0  0  0  0
  -22.1978  -38.9052   -7.5739 C   0  0  0  0  0  0  0  0  0  0  0  0
  -21.2559  -39.5661   -6.8165 C   0  0  0  0  0  0  0  0  0  0  0  0
  -19.8242  -39.5127   -7.1632 C   0  0  0  0  0  0  0  0  0  0  0  0
  -19.2321  -40.7737   -7.4980 N   0  0  0  0  0  0  0  0  0  0  0  0
  -19.6548  -41.1374   -8.8465 C   0  0  0  0  0  0  0  0  0  0  0  0
  -18.5661  -40.9268   -9.8486 C   0  0  1  0  0  0  0  0  0  0  0  0
  -19.0188  -41.0451  -11.1608 O   0  0  0  0  0  0  0  0  0  0  0  0
  -17.8002  -39.6640   -9.5811 C   0  0  2  0  0  0  0  0  0  0  0  0
  -17.2838  -39.0013  -10.8074 C   0  0  0  0  0  0  0  0  0  0  0  0
  -16.8498  -37.5705  -10.5456 C   0  0  2  0  0  0  0  0  0  0  0  0
  -18.0712  -36.8696   -9.9297 C   0  0  0  0  0  0  0  0  0  0  0  0
  -16.4851  -36.8575  -11.8196 C   0  0  0  0  0  0  0  0  0  0  0  0
  -15.2973  -35.9457  -11.5695 C   0  0  0  0  0  0  0  0  0  0  0  0
  -14.5453  -35.5652  -12.7965 C   0  0  0  0  0  0  0  0  0  0  0  0
  -13.1318  -36.1642  -12.8744 C   0  0  0  0  0  0  0  0  0  0  0  0
  -13.0809  -37.4287  -12.0210 C   0  0  0  0  0  0  0  0  0  0  0  0
  -11.9942  -38.3244  -12.5449 C   0  0  0  0  0  0  0  0  0  0  0  0
  -12.1861  -39.7134  -12.2056 N   0  0  0  0  0  0  0  0  0  0  0  0
  -11.2795  -40.5332  -13.0841 C   0  0  0  0  0  0  0  0  0  0  0  0
  -13.0441  -40.3670  -11.2612 C   0  0  0  0  0  0  0  0  0  0  0  0
  -13.9272  -39.9018  -10.3155 C   0  0  0  0  0  0  0  0  0  0  0  0
  -14.6477  -40.8323   -9.5997 C   0  0  0  0  0  0  0  0  0  0  0  0
  -14.4503  -42.2168   -9.8566 C   0  0  0  0  0  0  0  0  0  0  0  0
  -13.5673  -42.6791  -10.7982 C   0  0  0  0  0  0  0  0  0  0  0  0
  -13.3644  -44.1362  -11.0478 C   0  0  0  0  0  0  0  0  0  0  0  0
  -12.9180  -41.7319  -11.4442 N   0  0  0  0  0  0  0  0  0  0  0  0
  -15.6839  -40.6877   -8.5699 C   0  0  0  0  0  0  0  0  0  0  0  0
  -15.6338  -41.4273   -7.4796 O   0  0  0  0  0  0  0  0  0  0  0  0
  -16.8291  -39.8340   -8.5166 N   0  0  0  0  0  0  0  0  0  0  0  0
  -21.7021  -40.2774   -5.7307 C   0  0  0  0  0  0  0  0  0  0  0  0
  1  2  1  0
  2  3  1  0
  2  4  1  0
  4  5  2  0
  5  6  1  0
  6  7  2  0
  7  8  1  0
  8  9  1  0
  9 10  1  0
 10 11  1  0
 11 12  1  0
 12 13  1  6
 12 14  1  0
 14 15  1  6
 15 16  1  0
 16 17  1  6
 16 18  1  0
 18 19  1  0
 19 20  1  0
 20 21  1  0
 21 22  1  0
 22 23  1  0
 23 24  1  0
 24 25  1  0
 24 26  1  0
 26 27  1  0
 27 28  2  0
 28 29  1  0
 29 30  2  0
 30 31  1  0
 30 32  1  0
 28 33  1  0
 33 34  2  0
 33 35  1  0
  8 36  2  0
 32 26  2  0
 35 14  1  0
 36  4  1  0
M  END
$$$$
