
     RDKit          3D

 36 38  0  0  0  0  0  0  0  0999 V2000
  -12.3764  -34.9471   -9.7372 C   0  0  0  0  0  0  0  0  0  0  0  0
  -12.8861  -34.9068  -11.1779 C   0  0  0  0  0  0  0  0  0  0  0  0
  -11.7059  -34.7702  -12.1213 C   0  0  0  0  0  0  0  0  0  0  0  0
  -13.6182  -36.1708  -11.3946 C   0  0  0  0  0  0  0  0  0  0  0  0
  -14.5952  -36.2788  -12.3387 C   0  0  0  0  0  0  0  0  0  0  0  0
  -15.2674  -37.4898  -12.5072 C   0  0  0  0  0  0  0  0  0  0  0  0
  -14.9244  -38.5768  -11.7004 C   0  0  0  0  0  0  0  0  0  0  0  0
  -13.9375  -38.4734  -10.7450 C   0  0  0  0  0  0  0  0  0  0  0  0
  -13.5784  -39.6208   -9.8922 C   0  0  0  0  0  0  0  0  0  0  0  0
  -14.2601  -39.6798   -8.6334 N   0  0  0  0  0  0  0  0  0  0  0  0
  -15.5444  -40.3424   -8.8358 C   0  0  0  0  0  0  0  0  0  0  0  0
  -16.4466  -40.1838   -7.6549 C   0  0  1  0  0  0  0  0  0  0  0  0
  -15.9035  -39.3542   -6.6763 O   0  0  0  0  0  0  0  0  0  0  0  0
  -17.8404  -39.8075   -8.0658 C   0  0  2  0  0  0  0  0  0  0  0  0
  -18.8518  -39.9744   -6.9894 C   0  0  0  0  0  0  0  0  0  0  0  0
  -20.1487  -39.2517   -7.3051 C   0  0  2  0  0  0  0  0  0  0  0  0
  -19.7583  -37.7884   -7.5673 C   0  0  0  0  0  0  0  0  0  0  0  0
  -21.1033  -39.2879   -6.1425 C   0  0  0  0  0  0  0  0  0  0  0  0
  -22.5229  -39.4504   -6.6553 C   0  0  0  0  0  0  0  0  0  0  0  0
  -23.4844  -39.9752   -5.6474 C   0  0  0  0  0  0  0  0  0  0  0  0
  -23.9968  -41.3924   -5.9505 C   0  0  0  0  0  0  0  0  0  0  0  0
  -22.9774  -42.1109   -6.8304 C   0  0  0  0  0  0  0  0  0  0  0  0
  -23.1219  -43.5929   -6.6295 C   0  0  0  0  0  0  0  0  0  0  0  0
  -21.9267  -44.3326   -6.9549 N   0  0  0  0  0  0  0  0  0  0  0  0
  -22.0600  -45.7100   -6.3629 C   0  0  0  0  0  0  0  0  0  0  0  0
  -20.7370  -43.9778   -7.6719 C   0  0  0  0  0  0  0  0  0  0  0  0
  -20.3496  -42.8440   -8.3465 C   0  0  0  0  0  0  0  0  0  0  0  0
  -19.0827  -42.8219   -8.8866 C   0  0  0  0  0  0  0  0  0  0  0  0
  -18.2385  -43.9558   -8.7344 C   0  0  0  0  0  0  0  0  0  0  0  0
  -18.6273  -45.0866   -8.0635 C   0  0  0  0  0  0  0  0  0  0  0  0
  -17.7325  -46.2724   -7.9220 C   0  0  0  0  0  0  0  0  0  0  0  0
  -19.8487  -45.0330   -7.5723 N   0  0  0  0  0  0  0  0  0  0  0  0
  -18.3462  -41.7812   -9.6144 C   0  0  0  0  0  0  0  0  0  0  0  0
  -17.6752  -42.0929  -10.7057 O   0  0  0  0  0  0  0  0  0  0  0  0
  -18.2023  -40.3844   -9.3470 N   0  0  0  0  0  0  0  0  0  0  0  0
  -13.3053  -37.2619  -10.6162 C   0  0  0  0  0  0  0  0  0  0  0  0
  1  2  1  0
  2  3  1  0
  2  4  1  0
  4  5  2  0
  5  6  1  0
  6  7  2  0
  7  8  1  0
  8  9  1  0
  9 10  1  0
 10 11  1  0
 11 12  1  0
 12 13  1  1
 12 14  1  0
 14 15  1  1
 15 16  1  0
 16 17  1  1
 16 18  1  0
 18 19  1  0
 19 20  1  0
 20 21  1  0
 21 22  1  0
 22 23  1  0
 23 24  1  0
 24 25  1  0
 24 26  1  0
 26 27  1  0
 27 28  2  0
 28 29  1  0
 29 30  2  0
 30 31  1  0
 30 32  1  0
 28 33  1  0
 33 34  2  0
 33 35  1  0
  8 36  2  0
 32 26  2  0
 35 14  1  0
 36  4  1  0
M  END
$$$$
