
     RDKit          3D

 36 38  0  0  0  0  0  0  0  0999 V2000
  -24.0277  -39.6743   -4.3630 C   0  0  0  0  0  0  0  0  0  0  0  0
  -22.5276  -39.9113   -4.5376 C   0  0  0  0  0  0  0  0  0  0  0  0
  -21.9546  -40.4571   -3.2433 C   0  0  0  0  0  0  0  0  0  0  0  0
  -22.3861  -40.8734   -5.6489 C   0  0  0  0  0  0  0  0  0  0  0  0
  -23.4273  -41.1670   -6.4779 C   0  0  0  0  0  0  0  0  0  0  0  0
  -23.2535  -42.0869   -7.5125 C   0  0  0  0  0  0  0  0  0  0  0  0
  -22.0073  -42.6940   -7.6813 C   0  0  0  0  0  0  0  0  0  0  0  0
  -20.9514  -42.4008   -6.8467 C   0  0  0  0  0  0  0  0  0  0  0  0
  -19.6373  -43.0445   -7.0244 C   0  0  0  0  0  0  0  0  0  0  0  0
  -18.9266  -42.6596   -8.2075 N   0  0  0  0  0  0  0  0  0  0  0  0
  -18.2717  -41.3802   -7.9556 C   0  0  0  0  0  0  0  0  0  0  0  0
  -17.5111  -40.8980   -9.1483 C   0  0  1  0  0  0  0  0  0  0  0  0
  -17.9581  -41.4750  -10.3350 O   0  0  0  0  0  0  0  0  0  0  0  0
  -17.4354  -39.3995   -9.1917 C   0  0  2  0  0  0  0  0  0  0  0  0
  -17.1117  -38.8511  -10.5348 C   0  0  0  0  0  0  0  0  0  0  0  0
  -17.4040  -37.3648  -10.6322 C   0  0  2  0  0  0  0  0  0  0  0  0
  -18.8800  -37.2026  -10.2357 C   0  0  0  0  0  0  0  0  0  0  0  0
  -17.2302  -36.8542  -12.0370 C   0  0  0  0  0  0  0  0  0  0  0  0
  -16.6222  -35.4636  -12.0008 C   0  0  0  0  0  0  0  0  0  0  0  0
  -15.9635  -35.0475  -13.2692 C   0  0  0  0  0  0  0  0  0  0  0  0
  -14.4352  -34.9179  -13.1668 C   0  0  0  0  0  0  0  0  0  0  0  0
  -13.9382  -35.7972  -12.0225 C   0  0  0  0  0  0  0  0  0  0  0  0
  -12.5062  -36.1699  -12.2835 C   0  0  0  0  0  0  0  0  0  0  0  0
  -12.0990  -37.3792  -11.6102 N   0  0  0  0  0  0  0  0  0  0  0  0
  -10.8128  -37.8464  -12.2369 C   0  0  0  0  0  0  0  0  0  0  0  0
  -12.6913  -38.1394  -10.5487 C   0  0  0  0  0  0  0  0  0  0  0  0
  -13.8070  -37.9510   -9.7675 C   0  0  0  0  0  0  0  0  0  0  0  0
  -14.1229  -38.9335   -8.8552 C   0  0  0  0  0  0  0  0  0  0  0  0
  -13.2939  -40.0840   -8.7523 C   0  0  0  0  0  0  0  0  0  0  0  0
  -12.1802  -40.2691   -9.5304 C   0  0  0  0  0  0  0  0  0  0  0  0
  -11.3147  -41.4779   -9.4023 C   0  0  0  0  0  0  0  0  0  0  0  0
  -11.9439  -39.2907  -10.3808 N   0  0  0  0  0  0  0  0  0  0  0  0
  -15.2416  -39.0738   -7.9149 C   0  0  0  0  0  0  0  0  0  0  0  0
  -15.0120  -39.4526   -6.6731 O   0  0  0  0  0  0  0  0  0  0  0  0
  -16.6434  -38.8648   -8.0999 N   0  0  0  0  0  0  0  0  0  0  0  0
  -21.1712  -41.4903   -5.8434 C   0  0  0  0  0  0  0  0  0  0  0  0
  1  2  1  0
  2  3  1  0
  2  4  1  0
  4  5  2  0
  5  6  1  0
  6  7  2  0
  7  8  1  0
  8  9  1  0
  9 10  1  0
 10 11  1  0
 11 12  1  0
 12 13  1  6
 12 14  1  0
 14 15  1  6
 15 16  1  0
 16 17  1  6
 16 18  1  0
 18 19  1  0
 19 20  1  0
 20 21  1  0
 21 22  1  0
 22 23  1  0
 23 24  1  0
 24 25  1  0
 24 26  1  0
 26 27  1  0
 27 28  2  0
 28 29  1  0
 29 30  2  0
 30 31  1  0
 30 32  1  0
 28 33  1  0
 33 34  2  0
 33 35  1  0
  8 36  2  0
 32 26  2  0
 35 14  1  0
 36  4  1  0
M  END
$$$$
