
     RDKit          3D

 36 38  0  0  0  0  0  0  0  0999 V2000
  -11.6000  -34.3518  -10.8502 C   0  0  0  0  0  0  0  0  0  0  0  0
  -13.0539  -34.6336  -11.2295 C   0  0  0  0  0  0  0  0  0  0  0  0
  -13.4645  -33.7054  -12.3570 C   0  0  0  0  0  0  0  0  0  0  0  0
  -13.1086  -36.0514  -11.6387 C   0  0  0  0  0  0  0  0  0  0  0  0
  -13.2061  -36.4147  -12.9486 C   0  0  0  0  0  0  0  0  0  0  0  0
  -13.2616  -37.7658  -13.2926 C   0  0  0  0  0  0  0  0  0  0  0  0
  -13.2156  -38.7279  -12.2815 C   0  0  0  0  0  0  0  0  0  0  0  0
  -13.1167  -38.3665  -10.9560 C   0  0  0  0  0  0  0  0  0  0  0  0
  -13.0709  -39.3833   -9.8897 C   0  0  0  0  0  0  0  0  0  0  0  0
  -13.9967  -39.1798   -8.8152 N   0  0  0  0  0  0  0  0  0  0  0  0
  -15.3132  -39.6358   -9.2491 C   0  0  0  0  0  0  0  0  0  0  0  0
  -16.2830  -39.7024   -8.1139 C   0  0  1  0  0  0  0  0  0  0  0  0
  -15.8896  -38.9209   -7.0297 O   0  0  0  0  0  0  0  0  0  0  0  0
  -17.6905  -39.4470   -8.5686 C   0  0  2  0  0  0  0  0  0  0  0  0
  -18.6985  -39.5203   -7.4786 C   0  0  0  0  0  0  0  0  0  0  0  0
  -20.0257  -38.9050   -7.8836 C   0  0  2  0  0  0  0  0  0  0  0  0
  -19.7016  -37.4713   -8.3329 C   0  0  0  0  0  0  0  0  0  0  0  0
  -20.9834  -38.8350   -6.7251 C   0  0  0  0  0  0  0  0  0  0  0  0
  -22.3915  -39.1277   -7.2112 C   0  0  0  0  0  0  0  0  0  0  0  0
  -23.3329  -39.5620   -6.1431 C   0  0  0  0  0  0  0  0  0  0  0  0
  -23.7781  -41.0286   -6.2604 C   0  0  0  0  0  0  0  0  0  0  0  0
  -22.7224  -41.8067   -7.0412 C   0  0  0  0  0  0  0  0  0  0  0  0
  -22.7996  -43.2555   -6.6506 C   0  0  0  0  0  0  0  0  0  0  0  0
  -21.5701  -43.9749   -6.8790 N   0  0  0  0  0  0  0  0  0  0  0  0
  -21.6430  -45.2692   -6.1141 C   0  0  0  0  0  0  0  0  0  0  0  0
  -20.3945  -43.6610   -7.6370 C   0  0  0  0  0  0  0  0  0  0  0  0
  -20.0562  -42.6070   -8.4527 C   0  0  0  0  0  0  0  0  0  0  0  0
  -18.7889  -42.5962   -8.9923 C   0  0  0  0  0  0  0  0  0  0  0  0
  -17.8943  -43.6608   -8.6959 C   0  0  0  0  0  0  0  0  0  0  0  0
  -18.2341  -44.7125   -7.8843 C   0  0  0  0  0  0  0  0  0  0  0  0
  -17.2865  -45.8275   -7.5919 C   0  0  0  0  0  0  0  0  0  0  0  0
  -19.4592  -44.6524   -7.4029 N   0  0  0  0  0  0  0  0  0  0  0  0
  -18.0974  -41.6251   -9.8491 C   0  0  0  0  0  0  0  0  0  0  0  0
  -17.4074  -42.0436  -10.8916 O   0  0  0  0  0  0  0  0  0  0  0  0
  -18.0191  -40.2004   -9.7642 N   0  0  0  0  0  0  0  0  0  0  0  0
  -13.0658  -37.0257  -10.6674 C   0  0  0  0  0  0  0  0  0  0  0  0
  1  2  1  0
  2  3  1  0
  2  4  1  0
  4  5  2  0
  5  6  1  0
  6  7  2  0
  7  8  1  0
  8  9  1  0
  9 10  1  0
 10 11  1  0
 11 12  1  0
 12 13  1  1
 12 14  1  0
 14 15  1  1
 15 16  1  0
 16 17  1  1
 16 18  1  0
 18 19  1  0
 19 20  1  0
 20 21  1  0
 21 22  1  0
 22 23  1  0
 23 24  1  0
 24 25  1  0
 24 26  1  0
 26 27  1  0
 27 28  2  0
 28 29  1  0
 29 30  2  0
 30 31  1  0
 30 32  1  0
 28 33  1  0
 33 34  2  0
 33 35  1  0
  8 36  2  0
 32 26  2  0
 35 14  1  0
 36  4  1  0
M  END
$$$$
