
     RDKit          3D

 38 41  0  0  0  0  0  0  0  0999 V2000
  -11.5031  -36.6794  -10.8000 C   0  0  0  0  0  0  0  0  0  0  0  0
  -12.8914  -37.2525  -11.0162 C   0  0  0  0  0  0  0  0  0  0  0  0
  -13.8731  -36.5533  -10.1064 C   0  0  0  0  0  0  0  0  0  0  0  0
  -12.8793  -38.6905  -10.6677 C   0  0  0  0  0  0  0  0  0  0  0  0
  -12.2299  -39.6329  -11.4525 C   0  0  0  0  0  0  0  0  0  0  0  0
  -12.2562  -40.9584  -11.0644 C   0  0  0  0  0  0  0  0  0  0  0  0
  -12.8949  -41.3452   -9.9488 N   0  0  0  0  0  0  0  0  0  0  0  0
  -13.5348  -40.4568   -9.1650 C   0  0  0  0  0  0  0  0  0  0  0  0
  -14.2429  -40.8545   -7.9216 C   0  0  0  0  0  0  0  0  0  0  0  0
  -15.4013  -40.0153   -7.6888 N   0  0  0  0  0  0  0  0  0  0  0  0
  -16.1275  -39.9213   -8.9425 C   0  0  0  0  0  0  0  0  0  0  0  0
  -17.5252  -39.4120   -8.7509 C   0  0  1  0  0  0  0  0  0  0  0  0
  -17.5645  -38.4879   -7.7539 O   0  0  0  0  0  0  0  0  0  0  0  0
  -18.3115  -39.1539   -9.9820 C   0  0  2  0  0  0  0  0  0  0  0  0
  -19.5971  -38.4244   -9.8603 C   0  0  0  0  0  0  0  0  0  0  0  0
  -20.3538  -38.5597   -8.5720 C   0  0  0  0  0  0  0  0  0  0  0  0
  -20.5156  -37.2871   -7.9710 C   0  0  0  0  0  0  0  0  0  0  0  0
  -21.1758  -37.0721   -6.7910 C   0  0  0  0  0  0  0  0  0  0  0  0
  -21.6898  -38.1981   -6.2042 C   0  0  0  0  0  0  0  0  0  0  0  0
  -21.5529  -39.4905   -6.7704 C   0  0  0  0  0  0  0  0  0  0  0  0
  -20.8768  -39.6741   -7.9661 C   0  0  0  0  0  0  0  0  0  0  0  0
  -22.1694  -40.4366   -5.9647 O   0  0  0  0  0  0  0  0  0  0  0  0
  -23.1163  -41.4315   -6.1217 C   0  0  0  0  0  0  0  0  0  0  0  0
  -22.7713  -42.7066   -5.3804 C   0  0  0  0  0  0  0  0  0  0  0  0
  -21.4586  -43.2733   -5.8128 C   0  0  0  0  0  0  0  0  0  0  0  0
  -21.6150  -44.4439   -6.7569 C   0  0  0  0  0  0  0  0  0  0  0  0
  -20.5080  -44.7708   -7.4969 O   0  0  0  0  0  0  0  0  0  0  0  0
  -19.4325  -44.1640   -8.1053 C   0  0  0  0  0  0  0  0  0  0  0  0
  -18.2144  -44.6645   -7.6389 C   0  0  0  0  0  0  0  0  0  0  0  0
  -16.9871  -44.2240   -8.0863 C   0  0  0  0  0  0  0  0  0  0  0  0
  -17.0375  -43.2459   -9.0352 C   0  0  0  0  0  0  0  0  0  0  0  0
  -18.2241  -42.6774   -9.5692 C   0  0  0  0  0  0  0  0  0  0  0  0
  -19.4069  -43.1696   -9.0737 C   0  0  0  0  0  0  0  0  0  0  0  0
  -17.9210  -41.6453  -10.5692 C   0  0  0  0  0  0  0  0  0  0  0  0
  -16.9988  -42.0005  -11.4551 O   0  0  0  0  0  0  0  0  0  0  0  0
  -18.3746  -40.3396  -10.8285 N   0  0  0  0  0  0  0  0  0  0  0  0
  -19.0098  -40.0892  -12.1377 C   0  0  0  0  0  0  0  0  0  0  0  0
  -13.5174  -39.1342   -9.5398 C   0  0  0  0  0  0  0  0  0  0  0  0
  1  2  1  0
  2  3  1  0
  2  4  1  0
  4  5  2  0
  5  6  1  0
  6  7  2  0
  7  8  1  0
  8  9  1  0
  9 10  1  0
 10 11  1  0
 11 12  1  0
 12 13  1  6
 12 14  1  0
 14 15  1  1
 15 16  1  0
 16 17  2  0
 17 18  1  0
 18 19  2  0
 19 20  1  0
 20 21  2  0
 20 22  1  0
 22 23  1  0
 23 24  1  0
 24 25  1  0
 25 26  1  0
 26 27  1  0
 27 28  1  0
 28 29  2  0
 29 30  1  0
 30 31  2  0
 31 32  1  0
 32 33  2  0
 32 34  1  0
 34 35  2  0
 34 36  1  0
 36 37  1  0
  8 38  2  0
 21 16  1  0
 33 28  1  0
 36 14  1  0
 38  4  1  0
M  END
$$$$
