
     RDKit          3D

 38 41  0  0  0  0  0  0  0  0999 V2000
  -13.2782  -34.9696  -10.3318 C   0  0  0  0  0  0  0  0  0  0  0  0
  -14.5137  -35.2261  -11.1744 C   0  0  0  0  0  0  0  0  0  0  0  0
  -15.7242  -34.6420  -10.4858 C   0  0  0  0  0  0  0  0  0  0  0  0
  -14.7141  -36.6863  -11.3048 C   0  0  0  0  0  0  0  0  0  0  0  0
  -15.2666  -37.2549  -12.4438 C   0  0  0  0  0  0  0  0  0  0  0  0
  -15.4207  -38.6266  -12.4985 C   0  0  0  0  0  0  0  0  0  0  0  0
  -15.0472  -39.4111  -11.4752 N   0  0  0  0  0  0  0  0  0  0  0  0
  -14.5082  -38.8920  -10.3558 C   0  0  0  0  0  0  0  0  0  0  0  0
  -14.0788  -39.7356   -9.2115 C   0  0  0  0  0  0  0  0  0  0  0  0
  -14.8473  -39.4317   -8.0210 N   0  0  0  0  0  0  0  0  0  0  0  0
  -15.8775  -40.4474   -7.8990 C   0  0  0  0  0  0  0  0  0  0  0  0
  -17.2511  -39.8924   -8.1335 C   0  0  1  0  0  0  0  0  0  0  0  0
  -17.5241  -38.9011   -7.2433 O   0  0  0  0  0  0  0  0  0  0  0  0
  -17.6564  -39.7007   -9.5476 C   0  0  2  0  0  0  0  0  0  0  0  0
  -18.7756  -38.7735   -9.8431 C   0  0  0  0  0  0  0  0  0  0  0  0
  -19.8316  -38.6011   -8.7915 C   0  0  0  0  0  0  0  0  0  0  0  0
  -19.8948  -37.2445   -8.3884 C   0  0  0  0  0  0  0  0  0  0  0  0
  -20.7679  -36.7603   -7.4516 C   0  0  0  0  0  0  0  0  0  0  0  0
  -21.6072  -37.6961   -6.9073 C   0  0  0  0  0  0  0  0  0  0  0  0
  -21.5797  -39.0632   -7.2814 C   0  0  0  0  0  0  0  0  0  0  0  0
  -20.6818  -39.5214   -8.2324 C   0  0  0  0  0  0  0  0  0  0  0  0
  -22.5360  -39.7755   -6.5725 O   0  0  0  0  0  0  0  0  0  0  0  0
  -23.5846  -40.6262   -6.8688 C   0  0  0  0  0  0  0  0  0  0  0  0
  -23.6701  -41.8163   -5.9357 C   0  0  0  0  0  0  0  0  0  0  0  0
  -22.4202  -42.6340   -5.9478 C   0  0  0  0  0  0  0  0  0  0  0  0
  -22.5587  -43.8928   -6.7740 C   0  0  0  0  0  0  0  0  0  0  0  0
  -21.3864  -44.4899   -7.1601 O   0  0  0  0  0  0  0  0  0  0  0  0
  -20.1030  -44.1505   -7.5243 C   0  0  0  0  0  0  0  0  0  0  0  0
  -19.1472  -44.7573   -6.7057 C   0  0  0  0  0  0  0  0  0  0  0  0
  -17.7886  -44.5798   -6.8586 C   0  0  0  0  0  0  0  0  0  0  0  0
  -17.4274  -43.7555   -7.8831 C   0  0  0  0  0  0  0  0  0  0  0  0
  -18.3244  -43.0970   -8.7652 C   0  0  0  0  0  0  0  0  0  0  0  0
  -19.6616  -43.3247   -8.5493 C   0  0  0  0  0  0  0  0  0  0  0  0
  -17.6041  -42.2814   -9.7517 C   0  0  0  0  0  0  0  0  0  0  0  0
  -16.5779  -42.8994  -10.3232 O   0  0  0  0  0  0  0  0  0  0  0  0
  -17.7323  -40.9741  -10.2541 N   0  0  0  0  0  0  0  0  0  0  0  0
  -17.9762  -40.8245  -11.7026 C   0  0  0  0  0  0  0  0  0  0  0  0
  -14.3496  -37.5281  -10.2875 C   0  0  0  0  0  0  0  0  0  0  0  0
  1  2  1  0
  2  3  1  0
  2  4  1  0
  4  5  2  0
  5  6  1  0
  6  7  2  0
  7  8  1  0
  8  9  1  0
  9 10  1  0
 10 11  1  0
 11 12  1  0
 12 13  1  1
 12 14  1  0
 14 15  1  1
 15 16  1  0
 16 17  2  0
 17 18  1  0
 18 19  2  0
 19 20  1  0
 20 21  2  0
 20 22  1  0
 22 23  1  0
 23 24  1  0
 24 25  1  0
 25 26  1  0
 26 27  1  0
 27 28  1  0
 28 29  2  0
 29 30  1  0
 30 31  2  0
 31 32  1  0
 32 33  2  0
 32 34  1  0
 34 35  2  0
 34 36  1  0
 36 37  1  0
  8 38  2  0
 21 16  1  0
 33 28  1  0
 36 14  1  0
 38  4  1  0
M  END
$$$$
