
     RDKit          3D

 38 41  0  0  0  0  0  0  0  0999 V2000
  -16.1418  -36.5999  -10.8066 C   0  0  0  0  0  0  0  0  0  0  0  0
  -14.8374  -36.5933  -11.5818 C   0  0  0  0  0  0  0  0  0  0  0  0
  -15.0397  -37.2722  -12.9155 C   0  0  0  0  0  0  0  0  0  0  0  0
  -13.8214  -37.3558  -10.8229 C   0  0  0  0  0  0  0  0  0  0  0  0
  -12.4627  -37.2216  -11.0715 C   0  0  0  0  0  0  0  0  0  0  0  0
  -11.5697  -37.9620  -10.3214 C   0  0  0  0  0  0  0  0  0  0  0  0
  -11.9929  -38.8020   -9.3636 N   0  0  0  0  0  0  0  0  0  0  0  0
  -13.3038  -38.9560   -9.0969 C   0  0  0  0  0  0  0  0  0  0  0  0
  -13.8005  -39.8718   -8.0386 C   0  0  0  0  0  0  0  0  0  0  0  0
  -15.1666  -40.2794   -8.2993 N   0  0  0  0  0  0  0  0  0  0  0  0
  -16.0026  -39.6707   -7.2803 C   0  0  0  0  0  0  0  0  0  0  0  0
  -17.4534  -39.6743   -7.6610 C   0  0  1  0  0  0  0  0  0  0  0  0
  -18.2021  -39.0768   -6.6956 O   0  0  0  0  0  0  0  0  0  0  0  0
  -17.7673  -39.3780   -9.0802 C   0  0  2  0  0  0  0  0  0  0  0  0
  -18.9109  -38.4824   -9.3796 C   0  0  0  0  0  0  0  0  0  0  0  0
  -20.0465  -38.4537   -8.3996 C   0  0  0  0  0  0  0  0  0  0  0  0
  -20.2108  -37.1425   -7.8892 C   0  0  0  0  0  0  0  0  0  0  0  0
  -21.1728  -36.7848   -6.9831 C   0  0  0  0  0  0  0  0  0  0  0  0
  -21.9970  -37.8037   -6.5845 C   0  0  0  0  0  0  0  0  0  0  0  0
  -21.8697  -39.1296   -7.0697 C   0  0  0  0  0  0  0  0  0  0  0  0
  -20.8835  -39.4590   -7.9858 C   0  0  0  0  0  0  0  0  0  0  0  0
  -22.8342  -39.9462   -6.4975 O   0  0  0  0  0  0  0  0  0  0  0  0
  -23.8120  -40.8161   -6.9427 C   0  0  0  0  0  0  0  0  0  0  0  0
  -23.8993  -42.0866   -6.1226 C   0  0  0  0  0  0  0  0  0  0  0  0
  -22.6095  -42.8399   -6.1098 C   0  0  0  0  0  0  0  0  0  0  0  0
  -22.6214  -44.0260   -7.0476 C   0  0  0  0  0  0  0  0  0  0  0  0
  -21.3944  -44.5305   -7.3935 O   0  0  0  0  0  0  0  0  0  0  0  0
  -20.1085  -44.0998   -7.6302 C   0  0  0  0  0  0  0  0  0  0  0  0
  -19.1818  -44.7306   -6.7963 C   0  0  0  0  0  0  0  0  0  0  0  0
  -17.8273  -44.4762   -6.8310 C   0  0  0  0  0  0  0  0  0  0  0  0
  -17.4393  -43.5484   -7.7521 C   0  0  0  0  0  0  0  0  0  0  0  0
  -18.3056  -42.8579   -8.6403 C   0  0  0  0  0  0  0  0  0  0  0  0
  -19.6406  -43.1669   -8.5456 C   0  0  0  0  0  0  0  0  0  0  0  0
  -17.5621  -41.9252   -9.4973 C   0  0  0  0  0  0  0  0  0  0  0  0
  -16.4663  -42.4411  -10.0403 O   0  0  0  0  0  0  0  0  0  0  0  0
  -17.7244  -40.5862   -9.8956 N   0  0  0  0  0  0  0  0  0  0  0  0
  -17.8729  -40.3211  -11.3405 C   0  0  0  0  0  0  0  0  0  0  0  0
  -14.2037  -38.2258   -9.8364 C   0  0  0  0  0  0  0  0  0  0  0  0
  1  2  1  0
  2  3  1  0
  2  4  1  0
  4  5  2  0
  5  6  1  0
  6  7  2  0
  7  8  1  0
  8  9  1  0
  9 10  1  0
 10 11  1  0
 11 12  1  0
 12 13  1  1
 12 14  1  0
 14 15  1  1
 15 16  1  0
 16 17  2  0
 17 18  1  0
 18 19  2  0
 19 20  1  0
 20 21  2  0
 20 22  1  0
 22 23  1  0
 23 24  1  0
 24 25  1  0
 25 26  1  0
 26 27  1  0
 27 28  1  0
 28 29  2  0
 29 30  1  0
 30 31  2  0
 31 32  1  0
 32 33  2  0
 32 34  1  0
 34 35  2  0
 34 36  1  0
 36 37  1  0
  8 38  2  0
 21 16  1  0
 33 28  1  0
 36 14  1  0
 38  4  1  0
M  END
$$$$
