
     RDKit          3D

 38 41  0  0  0  0  0  0  0  0999 V2000
  -24.2584  -40.8706   -5.4760 C   0  0  0  0  0  0  0  0  0  0  0  0
  -23.0994  -39.9651   -5.1030 C   0  0  0  0  0  0  0  0  0  0  0  0
  -22.8684  -38.9607   -6.2068 C   0  0  0  0  0  0  0  0  0  0  0  0
  -21.8753  -40.7836   -4.9573 C   0  0  0  0  0  0  0  0  0  0  0  0
  -21.7179  -41.6952   -3.9229 C   0  0  0  0  0  0  0  0  0  0  0  0
  -20.5497  -42.4290   -3.8507 C   0  0  0  0  0  0  0  0  0  0  0  0
  -19.5729  -42.2749   -4.7585 N   0  0  0  0  0  0  0  0  0  0  0  0
  -19.6933  -41.3992   -5.7744 C   0  0  0  0  0  0  0  0  0  0  0  0
  -18.6329  -41.2131   -6.7973 C   0  0  0  0  0  0  0  0  0  0  0  0
  -18.3476  -39.8074   -7.0044 N   0  0  0  0  0  0  0  0  0  0  0  0
  -16.9832  -39.5729   -6.5669 C   0  0  0  0  0  0  0  0  0  0  0  0
  -16.0609  -39.2887   -7.7151 C   0  0  1  0  0  0  0  0  0  0  0  0
  -15.2639  -38.2229   -7.4350 O   0  0  0  0  0  0  0  0  0  0  0  0
  -15.4546  -40.4649   -8.3856 C   0  0  2  0  0  0  0  0  0  0  0  0
  -14.2107  -40.2692   -9.1692 C   0  0  0  0  0  0  0  0  0  0  0  0
  -13.9890  -38.9248   -9.7970 C   0  0  0  0  0  0  0  0  0  0  0  0
  -12.7934  -38.3506   -9.2991 C   0  0  0  0  0  0  0  0  0  0  0  0
  -12.3059  -37.1315   -9.6873 C   0  0  0  0  0  0  0  0  0  0  0  0
  -13.0673  -36.4757  -10.6182 C   0  0  0  0  0  0  0  0  0  0  0  0
  -14.2691  -37.0127  -11.1444 C   0  0  0  0  0  0  0  0  0  0  0  0
  -14.7361  -38.2495  -10.7289 C   0  0  0  0  0  0  0  0  0  0  0  0
  -14.8256  -36.1363  -12.0645 O   0  0  0  0  0  0  0  0  0  0  0  0
  -15.2623  -36.1935  -13.3749 C   0  0  0  0  0  0  0  0  0  0  0  0
  -16.5577  -35.4432  -13.6059 C   0  0  0  0  0  0  0  0  0  0  0  0
  -17.6674  -35.9554  -12.7471 C   0  0  0  0  0  0  0  0  0  0  0  0
  -18.6213  -36.8509  -13.5051 C   0  0  0  0  0  0  0  0  0  0  0  0
  -19.4201  -37.6614  -12.7404 O   0  0  0  0  0  0  0  0  0  0  0  0
  -19.3798  -38.3654  -11.5581 C   0  0  0  0  0  0  0  0  0  0  0  0
  -20.3950  -37.9765  -10.6807 C   0  0  0  0  0  0  0  0  0  0  0  0
  -20.5739  -38.5265   -9.4293 C   0  0  0  0  0  0  0  0  0  0  0  0
  -19.6767  -39.4970   -9.0934 C   0  0  0  0  0  0  0  0  0  0  0  0
  -18.6155  -39.9576   -9.9167 C   0  0  0  0  0  0  0  0  0  0  0  0
  -18.5035  -39.3615  -11.1492 C   0  0  0  0  0  0  0  0  0  0  0  0
  -17.8350  -41.0069   -9.2483 C   0  0  0  0  0  0  0  0  0  0  0  0
  -18.5714  -41.9483   -8.6711 O   0  0  0  0  0  0  0  0  0  0  0  0
  -16.4662  -41.2696   -9.0605 N   0  0  0  0  0  0  0  0  0  0  0  0
  -15.9365  -42.5347   -9.6075 C   0  0  0  0  0  0  0  0  0  0  0  0
  -20.8504  -40.6617   -5.8579 C   0  0  0  0  0  0  0  0  0  0  0  0
  1  2  1  0
  2  3  1  0
  2  4  1  0
  4  5  2  0
  5  6  1  0
  6  7  2  0
  7  8  1  0
  8  9  1  0
  9 10  1  0
 10 11  1  0
 11 12  1  0
 12 13  1  1
 12 14  1  0
 14 15  1  6
 15 16  1  0
 16 17  2  0
 17 18  1  0
 18 19  2  0
 19 20  1  0
 20 21  2  0
 20 22  1  0
 22 23  1  0
 23 24  1  0
 24 25  1  0
 25 26  1  0
 26 27  1  0
 27 28  1  0
 28 29  2  0
 29 30  1  0
 30 31  2  0
 31 32  1  0
 32 33  2  0
 32 34  1  0
 34 35  2  0
 34 36  1  0
 36 37  1  0
  8 38  2  0
 21 16  1  0
 33 28  1  0
 36 14  1  0
 38  4  1  0
M  END
$$$$
