
     RDKit          3D

 38 41  0  0  0  0  0  0  0  0999 V2000
  -22.0850  -42.5889   -3.2119 C   0  0  0  0  0  0  0  0  0  0  0  0
  -21.0632  -41.7892   -3.9987 C   0  0  0  0  0  0  0  0  0  0  0  0
  -20.6365  -40.5850   -3.1934 C   0  0  0  0  0  0  0  0  0  0  0  0
  -21.6865  -41.3112   -5.2527 C   0  0  0  0  0  0  0  0  0  0  0  0
  -22.5008  -42.1253   -6.0271 C   0  0  0  0  0  0  0  0  0  0  0  0
  -23.0530  -41.6115   -7.1844 C   0  0  0  0  0  0  0  0  0  0  0  0
  -22.8158  -40.3470   -7.5678 N   0  0  0  0  0  0  0  0  0  0  0  0
  -22.0305  -39.5306   -6.8398 C   0  0  0  0  0  0  0  0  0  0  0  0
  -21.7567  -38.1255   -7.2351 C   0  0  0  0  0  0  0  0  0  0  0  0
  -20.3331  -37.8871   -7.3648 N   0  0  0  0  0  0  0  0  0  0  0  0
  -19.7739  -38.9984   -8.1134 C   0  0  0  0  0  0  0  0  0  0  0  0
  -18.3766  -39.3282   -7.6791 C   0  0  1  0  0  0  0  0  0  0  0  0
  -18.1269  -38.8164   -6.4441 O   0  0  0  0  0  0  0  0  0  0  0  0
  -17.8923  -40.6964   -7.9860 C   0  0  2  0  0  0  0  0  0  0  0  0
  -16.4502  -40.9930   -7.8069 C   0  0  0  0  0  0  0  0  0  0  0  0
  -15.4810  -39.8611   -7.9804 C   0  0  0  0  0  0  0  0  0  0  0  0
  -14.7503  -39.6632   -6.7829 C   0  0  0  0  0  0  0  0  0  0  0  0
  -13.7777  -38.7129   -6.6236 C   0  0  0  0  0  0  0  0  0  0  0  0
  -13.5428  -37.9371   -7.7278 C   0  0  0  0  0  0  0  0  0  0  0  0
  -14.2489  -38.1007   -8.9462 C   0  0  0  0  0  0  0  0  0  0  0  0
  -15.2292  -39.0718   -9.0741 C   0  0  0  0  0  0  0  0  0  0  0  0
  -13.8043  -37.1832   -9.8869 O   0  0  0  0  0  0  0  0  0  0  0  0
  -13.3235  -37.2202  -11.1825 C   0  0  0  0  0  0  0  0  0  0  0  0
  -13.8775  -36.1143  -12.0569 C   0  0  0  0  0  0  0  0  0  0  0  0
  -15.3685  -36.1518  -12.1373 C   0  0  0  0  0  0  0  0  0  0  0  0
  -15.8644  -36.7556  -13.4318 C   0  0  0  0  0  0  0  0  0  0  0  0
  -17.1669  -37.1841  -13.4346 O   0  0  0  0  0  0  0  0  0  0  0  0
  -18.0913  -37.7460  -12.5833 C   0  0  0  0  0  0  0  0  0  0  0  0
  -19.2444  -36.9651  -12.4712 C   0  0  0  0  0  0  0  0  0  0  0  0
  -20.3213  -37.3041  -11.6801 C   0  0  0  0  0  0  0  0  0  0  0  0
  -20.1877  -38.4772  -10.9977 C   0  0  0  0  0  0  0  0  0  0  0  0
  -19.0575  -39.3354  -11.0491 C   0  0  0  0  0  0  0  0  0  0  0  0
  -18.0261  -38.9294  -11.8604 C   0  0  0  0  0  0  0  0  0  0  0  0
  -19.2388  -40.5126  -10.1900 C   0  0  0  0  0  0  0  0  0  0  0  0
  -20.4209  -41.1025  -10.3179 O   0  0  0  0  0  0  0  0  0  0  0  0
  -18.4528  -41.1880   -9.2391 N   0  0  0  0  0  0  0  0  0  0  0  0
  -18.1280  -42.6029   -9.5088 C   0  0  0  0  0  0  0  0  0  0  0  0
  -21.4737  -40.0293   -5.6860 C   0  0  0  0  0  0  0  0  0  0  0  0
  1  2  1  0
  2  3  1  0
  2  4  1  0
  4  5  2  0
  5  6  1  0
  6  7  2  0
  7  8  1  0
  8  9  1  0
  9 10  1  0
 10 11  1  0
 11 12  1  0
 12 13  1  1
 12 14  1  0
 14 15  1  6
 15 16  1  0
 16 17  2  0
 17 18  1  0
 18 19  2  0
 19 20  1  0
 20 21  2  0
 20 22  1  0
 22 23  1  0
 23 24  1  0
 24 25  1  0
 25 26  1  0
 26 27  1  0
 27 28  1  0
 28 29  2  0
 29 30  1  0
 30 31  2  0
 31 32  1  0
 32 33  2  0
 32 34  1  0
 34 35  2  0
 34 36  1  0
 36 37  1  0
  8 38  2  0
 21 16  1  0
 33 28  1  0
 36 14  1  0
 38  4  1  0
M  END
$$$$
