
     RDKit          3D

 38 41  0  0  0  0  0  0  0  0999 V2000
  -22.9492  -38.6817   -4.9046 C   0  0  0  0  0  0  0  0  0  0  0  0
  -23.1351  -39.9650   -4.1164 C   0  0  0  0  0  0  0  0  0  0  0  0
  -23.5420  -39.6329   -2.7005 C   0  0  0  0  0  0  0  0  0  0  0  0
  -21.8481  -40.6935   -4.0702 C   0  0  0  0  0  0  0  0  0  0  0  0
  -21.7446  -41.9727   -3.5422 C   0  0  0  0  0  0  0  0  0  0  0  0
  -20.5114  -42.5951   -3.5350 C   0  0  0  0  0  0  0  0  0  0  0  0
  -19.4208  -41.9863   -4.0270 N   0  0  0  0  0  0  0  0  0  0  0  0
  -19.4862  -40.7456   -4.5463 C   0  0  0  0  0  0  0  0  0  0  0  0
  -18.2984  -40.0506   -5.1045 C   0  0  0  0  0  0  0  0  0  0  0  0
  -17.9454  -40.5823   -6.4056 N   0  0  0  0  0  0  0  0  0  0  0  0
  -18.7190  -39.8548   -7.3957 C   0  0  0  0  0  0  0  0  0  0  0  0
  -19.2007  -40.7437   -8.5036 C   0  0  1  0  0  0  0  0  0  0  0  0
  -20.1590  -40.1164   -9.2369 O   0  0  0  0  0  0  0  0  0  0  0  0
  -18.1665  -41.5294   -9.2205 C   0  0  2  0  0  0  0  0  0  0  0  0
  -17.8978  -41.2122  -10.6442 C   0  0  0  0  0  0  0  0  0  0  0  0
  -19.0277  -40.6521  -11.4567 C   0  0  0  0  0  0  0  0  0  0  0  0
  -18.6765  -39.3733  -11.9551 C   0  0  0  0  0  0  0  0  0  0  0  0
  -19.4899  -38.6056  -12.7448 C   0  0  0  0  0  0  0  0  0  0  0  0
  -20.7058  -39.1651  -13.0363 C   0  0  0  0  0  0  0  0  0  0  0  0
  -21.0983  -40.4415  -12.5604 C   0  0  0  0  0  0  0  0  0  0  0  0
  -20.2514  -41.1927  -11.7612 C   0  0  0  0  0  0  0  0  0  0  0  0
  -22.3731  -40.7519  -13.0110 O   0  0  0  0  0  0  0  0  0  0  0  0
  -22.9767  -41.7944  -13.6890 C   0  0  0  0  0  0  0  0  0  0  0  0
  -24.3328  -42.1670  -13.1264 C   0  0  0  0  0  0  0  0  0  0  0  0
  -24.2583  -42.5597  -11.6872 C   0  0  0  0  0  0  0  0  0  0  0  0
  -24.3104  -44.0581  -11.4915 C   0  0  0  0  0  0  0  0  0  0  0  0
  -23.8651  -44.5215  -10.2803 O   0  0  0  0  0  0  0  0  0  0  0  0
  -22.9200  -44.2265   -9.3239 C   0  0  0  0  0  0  0  0  0  0  0  0
  -23.4932  -44.0125   -8.0680 C   0  0  0  0  0  0  0  0  0  0  0  0
  -22.7645  -43.7002   -6.9401 C   0  0  0  0  0  0  0  0  0  0  0  0
  -21.4173  -43.6109   -7.1315 C   0  0  0  0  0  0  0  0  0  0  0  0
  -20.7462  -43.8117   -8.3667 C   0  0  0  0  0  0  0  0  0  0  0  0
  -21.5409  -44.1207   -9.4437 C   0  0  0  0  0  0  0  0  0  0  0  0
  -19.2953  -43.6356   -8.2233 C   0  0  0  0  0  0  0  0  0  0  0  0
  -18.7732  -44.2559   -7.1724 O   0  0  0  0  0  0  0  0  0  0  0  0
  -18.2944  -42.9545   -8.9392 N   0  0  0  0  0  0  0  0  0  0  0  0
  -17.1932  -43.7617   -9.5011 C   0  0  0  0  0  0  0  0  0  0  0  0
  -20.7072  -40.1141   -4.5592 C   0  0  0  0  0  0  0  0  0  0  0  0
  1  2  1  0
  2  3  1  0
  2  4  1  0
  4  5  2  0
  5  6  1  0
  6  7  2  0
  7  8  1  0
  8  9  1  0
  9 10  1  0
 10 11  1  0
 11 12  1  0
 12 13  1  6
 12 14  1  0
 14 15  1  6
 15 16  1  0
 16 17  2  0
 17 18  1  0
 18 19  2  0
 19 20  1  0
 20 21  2  0
 20 22  1  0
 22 23  1  0
 23 24  1  0
 24 25  1  0
 25 26  1  0
 26 27  1  0
 27 28  1  0
 28 29  2  0
 29 30  1  0
 30 31  2  0
 31 32  1  0
 32 33  2  0
 32 34  1  0
 34 35  2  0
 34 36  1  0
 36 37  1  0
  8 38  2  0
 21 16  1  0
 33 28  1  0
 36 14  1  0
 38  4  1  0
M  END
$$$$
