
     RDKit          3D

 38 41  0  0  0  0  0  0  0  0999 V2000
  -23.2400  -43.3747   -1.3152 C   0  0  0  0  0  0  0  0  0  0  0  0
  -22.9082  -42.0209   -1.9148 C   0  0  0  0  0  0  0  0  0  0  0  0
  -23.7972  -41.7664   -3.1087 C   0  0  0  0  0  0  0  0  0  0  0  0
  -21.5026  -42.0295   -2.3770 C   0  0  0  0  0  0  0  0  0  0  0  0
  -20.4386  -42.1608   -1.4958 C   0  0  0  0  0  0  0  0  0  0  0  0
  -19.1516  -42.1648   -1.9978 C   0  0  0  0  0  0  0  0  0  0  0  0
  -18.9168  -42.0448   -3.3141 N   0  0  0  0  0  0  0  0  0  0  0  0
  -19.9260  -41.9155   -4.1961 C   0  0  0  0  0  0  0  0  0  0  0  0
  -19.6967  -41.7886   -5.6579 C   0  0  0  0  0  0  0  0  0  0  0  0
  -20.2489  -40.5495   -6.1678 N   0  0  0  0  0  0  0  0  0  0  0  0
  -19.2097  -39.5401   -6.0722 C   0  0  0  0  0  0  0  0  0  0  0  0
  -18.6833  -39.1394   -7.4184 C   0  0  1  0  0  0  0  0  0  0  0  0
  -18.4213  -37.8053   -7.4511 O   0  0  0  0  0  0  0  0  0  0  0  0
  -17.7119  -40.0640   -8.0525 C   0  0  2  0  0  0  0  0  0  0  0  0
  -16.6740  -39.4952   -8.9465 C   0  0  0  0  0  0  0  0  0  0  0  0
  -17.0072  -38.2308   -9.6821 C   0  0  0  0  0  0  0  0  0  0  0  0
  -16.0937  -37.2089   -9.3243 C   0  0  0  0  0  0  0  0  0  0  0  0
  -16.1220  -35.9388   -9.8346 C   0  0  0  0  0  0  0  0  0  0  0  0
  -17.1194  -35.7045  -10.7438 C   0  0  0  0  0  0  0  0  0  0  0  0
  -18.0541  -36.6972  -11.1318 C   0  0  0  0  0  0  0  0  0  0  0  0
  -17.9988  -37.9735  -10.5948 C   0  0  0  0  0  0  0  0  0  0  0  0
  -18.9447  -36.1821  -12.0623 O   0  0  0  0  0  0  0  0  0  0  0  0
  -19.3916  -36.5216  -13.3257 C   0  0  0  0  0  0  0  0  0  0  0  0
  -20.8841  -36.3323  -13.5021 C   0  0  0  0  0  0  0  0  0  0  0  0
  -21.6747  -37.1362  -12.5224 C   0  0  0  0  0  0  0  0  0  0  0  0
  -22.2563  -38.3897  -13.1362 C   0  0  0  0  0  0  0  0  0  0  0  0
  -22.6516  -39.3625  -12.2546 O   0  0  0  0  0  0  0  0  0  0  0  0
  -22.2903  -39.8854  -11.0335 C   0  0  0  0  0  0  0  0  0  0  0  0
  -23.3326  -39.8204  -10.1055 C   0  0  0  0  0  0  0  0  0  0  0  0
  -23.2289  -40.2760   -8.8085 C   0  0  0  0  0  0  0  0  0  0  0  0
  -22.0164  -40.8068   -8.4801 C   0  0  0  0  0  0  0  0  0  0  0  0
  -20.9018  -40.9158   -9.3531 C   0  0  0  0  0  0  0  0  0  0  0  0
  -21.0839  -40.4407  -10.6290 C   0  0  0  0  0  0  0  0  0  0  0  0
  -19.7512  -41.5313   -8.6791 C   0  0  0  0  0  0  0  0  0  0  0  0
  -20.0485  -42.6196   -7.9799 O   0  0  0  0  0  0  0  0  0  0  0  0
  -18.3769  -41.2472   -8.5854 N   0  0  0  0  0  0  0  0  0  0  0  0
  -17.4368  -42.2705   -9.0845 C   0  0  0  0  0  0  0  0  0  0  0  0
  -21.2120  -41.9092   -3.7102 C   0  0  0  0  0  0  0  0  0  0  0  0
  1  2  1  0
  2  3  1  0
  2  4  1  0
  4  5  2  0
  5  6  1  0
  6  7  2  0
  7  8  1  0
  8  9  1  0
  9 10  1  0
 10 11  1  0
 11 12  1  0
 12 13  1  1
 12 14  1  0
 14 15  1  6
 15 16  1  0
 16 17  2  0
 17 18  1  0
 18 19  2  0
 19 20  1  0
 20 21  2  0
 20 22  1  0
 22 23  1  0
 23 24  1  0
 24 25  1  0
 25 26  1  0
 26 27  1  0
 27 28  1  0
 28 29  2  0
 29 30  1  0
 30 31  2  0
 31 32  1  0
 32 33  2  0
 32 34  1  0
 34 35  2  0
 34 36  1  0
 36 37  1  0
  8 38  2  0
 21 16  1  0
 33 28  1  0
 36 14  1  0
 38  4  1  0
M  END
$$$$
