
     RDKit          3D

 38 41  0  0  0  0  0  0  0  0999 V2000
  -13.2912  -35.7775  -10.0866 C   0  0  0  0  0  0  0  0  0  0  0  0
  -12.5998  -36.4472  -11.2597 C   0  0  0  0  0  0  0  0  0  0  0  0
  -13.1408  -35.8844  -12.5524 C   0  0  0  0  0  0  0  0  0  0  0  0
  -12.8913  -37.8975  -11.2275 C   0  0  0  0  0  0  0  0  0  0  0  0
  -12.8365  -38.6850  -12.3688 C   0  0  0  0  0  0  0  0  0  0  0  0
  -13.1169  -40.0336  -12.2644 C   0  0  0  0  0  0  0  0  0  0  0  0
  -13.4387  -40.5891  -11.0855 N   0  0  0  0  0  0  0  0  0  0  0  0
  -13.5011  -39.8538   -9.9591 C   0  0  0  0  0  0  0  0  0  0  0  0
  -13.8467  -40.4423   -8.6402 C   0  0  0  0  0  0  0  0  0  0  0  0
  -14.9596  -39.7419   -8.0309 N   0  0  0  0  0  0  0  0  0  0  0  0
  -16.0999  -39.8848   -8.9183 C   0  0  0  0  0  0  0  0  0  0  0  0
  -17.3879  -39.5011   -8.2523 C   0  0  1  0  0  0  0  0  0  0  0  0
  -17.1546  -39.0242   -7.0002 O   0  0  0  0  0  0  0  0  0  0  0  0
  -18.3890  -38.8041   -9.0965 C   0  0  2  0  0  0  0  0  0  0  0  0
  -19.5438  -38.1526   -8.4321 C   0  0  0  0  0  0  0  0  0  0  0  0
  -20.0197  -38.7368   -7.1348 C   0  0  0  0  0  0  0  0  0  0  0  0
  -19.9280  -37.7671   -6.1061 C   0  0  0  0  0  0  0  0  0  0  0  0
  -20.2995  -37.9867   -4.8068 C   0  0  0  0  0  0  0  0  0  0  0  0
  -20.7825  -39.2423   -4.5493 C   0  0  0  0  0  0  0  0  0  0  0  0
  -20.8928  -40.2429   -5.5476 C   0  0  0  0  0  0  0  0  0  0  0  0
  -20.5062  -39.9885   -6.8538 C   0  0  0  0  0  0  0  0  0  0  0  0
  -21.4120  -41.4091   -5.0048 O   0  0  0  0  0  0  0  0  0  0  0  0
  -22.4612  -42.2675   -5.2758 C   0  0  0  0  0  0  0  0  0  0  0  0
  -22.0902  -43.7288   -5.1299 C   0  0  0  0  0  0  0  0  0  0  0  0
  -20.9593  -44.1162   -6.0254 C   0  0  0  0  0  0  0  0  0  0  0  0
  -21.4233  -44.8625   -7.2559 C   0  0  0  0  0  0  0  0  0  0  0  0
  -20.5348  -44.9123   -8.2989 O   0  0  0  0  0  0  0  0  0  0  0  0
  -19.5597  -44.1395   -8.8881 C   0  0  0  0  0  0  0  0  0  0  0  0
  -18.3239  -44.7902   -8.9230 C   0  0  0  0  0  0  0  0  0  0  0  0
  -17.1831  -44.2325   -9.4596 C   0  0  0  0  0  0  0  0  0  0  0  0
  -17.3398  -42.9762   -9.9663 C   0  0  0  0  0  0  0  0  0  0  0  0
  -18.5528  -42.2381   -9.9763 C   0  0  0  0  0  0  0  0  0  0  0  0
  -19.6451  -42.8619   -9.4246 C   0  0  0  0  0  0  0  0  0  0  0  0
  -18.3715  -40.9174  -10.5926 C   0  0  0  0  0  0  0  0  0  0  0  0
  -17.6962  -40.9383  -11.7351 O   0  0  0  0  0  0  0  0  0  0  0  0
  -18.7430  -39.6010  -10.2653 N   0  0  0  0  0  0  0  0  0  0  0  0
  -19.6144  -38.8848  -11.2181 C   0  0  0  0  0  0  0  0  0  0  0  0
  -13.2251  -38.5100  -10.0487 C   0  0  0  0  0  0  0  0  0  0  0  0
  1  2  1  0
  2  3  1  0
  2  4  1  0
  4  5  2  0
  5  6  1  0
  6  7  2  0
  7  8  1  0
  8  9  1  0
  9 10  1  0
 10 11  1  0
 11 12  1  0
 12 13  1  1
 12 14  1  0
 14 15  1  1
 15 16  1  0
 16 17  2  0
 17 18  1  0
 18 19  2  0
 19 20  1  0
 20 21  2  0
 20 22  1  0
 22 23  1  0
 23 24  1  0
 24 25  1  0
 25 26  1  0
 26 27  1  0
 27 28  1  0
 28 29  2  0
 29 30  1  0
 30 31  2  0
 31 32  1  0
 32 33  2  0
 32 34  1  0
 34 35  2  0
 34 36  1  0
 36 37  1  0
  8 38  2  0
 21 16  1  0
 33 28  1  0
 36 14  1  0
 38  4  1  0
M  END
$$$$
