
     RDKit          3D

 38 41  0  0  0  0  0  0  0  0999 V2000
  -23.7164  -41.9373   -7.3623 C   0  0  0  0  0  0  0  0  0  0  0  0
  -23.2536  -40.4932   -7.3091 C   0  0  0  0  0  0  0  0  0  0  0  0
  -22.7595  -40.0712   -8.6723 C   0  0  0  0  0  0  0  0  0  0  0  0
  -22.1294  -40.3818   -6.3535 C   0  0  0  0  0  0  0  0  0  0  0  0
  -22.2596  -39.7279   -5.1364 C   0  0  0  0  0  0  0  0  0  0  0  0
  -21.1688  -39.6657   -4.2911 C   0  0  0  0  0  0  0  0  0  0  0  0
  -19.9948  -40.2237   -4.6263 N   0  0  0  0  0  0  0  0  0  0  0  0
  -19.8344  -40.8653   -5.7993 C   0  0  0  0  0  0  0  0  0  0  0  0
  -18.5502  -41.4985   -6.1934 C   0  0  0  0  0  0  0  0  0  0  0  0
  -18.1656  -41.1089   -7.5353 N   0  0  0  0  0  0  0  0  0  0  0  0
  -18.2312  -39.6600   -7.6016 C   0  0  0  0  0  0  0  0  0  0  0  0
  -16.9279  -39.0528   -8.0289 C   0  0  1  0  0  0  0  0  0  0  0  0
  -16.4706  -38.1890   -7.0833 O   0  0  0  0  0  0  0  0  0  0  0  0
  -15.9549  -39.9625   -8.6818 C   0  0  2  0  0  0  0  0  0  0  0  0
  -14.5763  -39.4703   -8.9202 C   0  0  0  0  0  0  0  0  0  0  0  0
  -14.3906  -37.9959   -9.1263 C   0  0  0  0  0  0  0  0  0  0  0  0
  -13.5275  -37.4742   -8.1313 C   0  0  0  0  0  0  0  0  0  0  0  0
  -13.1493  -36.1608   -8.0530 C   0  0  0  0  0  0  0  0  0  0  0  0
  -13.6714  -35.3511   -9.0267 C   0  0  0  0  0  0  0  0  0  0  0  0
  -14.5375  -35.8302  -10.0417 C   0  0  0  0  0  0  0  0  0  0  0  0
  -14.9023  -37.1662  -10.0918 C   0  0  0  0  0  0  0  0  0  0  0  0
  -14.9081  -34.7944  -10.8867 O   0  0  0  0  0  0  0  0  0  0  0  0
  -14.8890  -34.5466  -12.2466 C   0  0  0  0  0  0  0  0  0  0  0  0
  -16.1483  -33.8704  -12.7481 C   0  0  0  0  0  0  0  0  0  0  0  0
  -17.3734  -34.6756  -12.4623 C   0  0  0  0  0  0  0  0  0  0  0  0
  -17.8752  -35.4197  -13.6792 C   0  0  0  0  0  0  0  0  0  0  0  0
  -18.7312  -36.4625  -13.4350 O   0  0  0  0  0  0  0  0  0  0  0  0
  -18.9542  -37.4422  -12.4940 C   0  0  0  0  0  0  0  0  0  0  0  0
  -20.2454  -37.3772  -11.9644 C   0  0  0  0  0  0  0  0  0  0  0  0
  -20.7205  -38.2445  -11.0038 C   0  0  0  0  0  0  0  0  0  0  0  0
  -19.8302  -39.1923  -10.5930 C   0  0  0  0  0  0  0  0  0  0  0  0
  -18.5015  -39.3365  -11.0726 C   0  0  0  0  0  0  0  0  0  0  0  0
  -18.1025  -38.4353  -12.0294 C   0  0  0  0  0  0  0  0  0  0  0  0
  -17.8132  -40.4556  -10.4162 C   0  0  0  0  0  0  0  0  0  0  0  0
  -18.5296  -41.5709  -10.3494 O   0  0  0  0  0  0  0  0  0  0  0  0
  -16.5519  -40.6453   -9.8236 N   0  0  0  0  0  0  0  0  0  0  0  0
  -15.6751  -41.6787  -10.4098 C   0  0  0  0  0  0  0  0  0  0  0  0
  -20.9116  -40.9341   -6.6507 C   0  0  0  0  0  0  0  0  0  0  0  0
  1  2  1  0
  2  3  1  0
  2  4  1  0
  4  5  2  0
  5  6  1  0
  6  7  2  0
  7  8  1  0
  8  9  1  0
  9 10  1  0
 10 11  1  0
 11 12  1  0
 12 13  1  1
 12 14  1  0
 14 15  1  6
 15 16  1  0
 16 17  2  0
 17 18  1  0
 18 19  2  0
 19 20  1  0
 20 21  2  0
 20 22  1  0
 22 23  1  0
 23 24  1  0
 24 25  1  0
 25 26  1  0
 26 27  1  0
 27 28  1  0
 28 29  2  0
 29 30  1  0
 30 31  2  0
 31 32  1  0
 32 33  2  0
 32 34  1  0
 34 35  2  0
 34 36  1  0
 36 37  1  0
  8 38  2  0
 21 16  1  0
 33 28  1  0
 36 14  1  0
 38  4  1  0
M  END
$$$$
