
     RDKit          3D

 38 41  0  0  0  0  0  0  0  0999 V2000
  -15.0808  -34.3853  -10.8065 C   0  0  0  0  0  0  0  0  0  0  0  0
  -15.8939  -35.5261  -11.3893 C   0  0  0  0  0  0  0  0  0  0  0  0
  -17.3299  -35.4043  -10.9379 C   0  0  0  0  0  0  0  0  0  0  0  0
  -15.3564  -36.8089  -10.8843 C   0  0  0  0  0  0  0  0  0  0  0  0
  -14.8763  -37.7927  -11.7370 C   0  0  0  0  0  0  0  0  0  0  0  0
  -14.3849  -38.9649  -11.1957 C   0  0  0  0  0  0  0  0  0  0  0  0
  -14.3651  -39.1647   -9.8684 N   0  0  0  0  0  0  0  0  0  0  0  0
  -14.8233  -38.2310   -9.0131 C   0  0  0  0  0  0  0  0  0  0  0  0
  -14.8067  -38.4212   -7.5404 C   0  0  0  0  0  0  0  0  0  0  0  0
  -16.1331  -38.2633   -6.9782 N   0  0  0  0  0  0  0  0  0  0  0  0
  -16.7394  -39.5813   -6.9210 C   0  0  0  0  0  0  0  0  0  0  0  0
  -17.7536  -39.7860   -8.0069 C   0  0  1  0  0  0  0  0  0  0  0  0
  -18.0184  -38.6123   -8.6407 O   0  0  0  0  0  0  0  0  0  0  0  0
  -17.6075  -41.0128   -8.8280 C   0  0  2  0  0  0  0  0  0  0  0  0
  -18.1361  -41.0036  -10.2137 C   0  0  0  0  0  0  0  0  0  0  0  0
  -19.3065  -40.1115  -10.5053 C   0  0  0  0  0  0  0  0  0  0  0  0
  -18.9586  -39.1695  -11.5045 C   0  0  0  0  0  0  0  0  0  0  0  0
  -19.8146  -38.2234  -12.0010 C   0  0  0  0  0  0  0  0  0  0  0  0
  -21.0717  -38.2407  -11.4573 C   0  0  0  0  0  0  0  0  0  0  0  0
  -21.4635  -39.1656  -10.4568 C   0  0  0  0  0  0  0  0  0  0  0  0
  -20.5717  -40.1102   -9.9744 C   0  0  0  0  0  0  0  0  0  0  0  0
  -22.7858  -38.9523  -10.0956 O   0  0  0  0  0  0  0  0  0  0  0  0
  -23.9396  -39.7079  -10.0015 C   0  0  0  0  0  0  0  0  0  0  0  0
  -24.7548  -39.4011   -8.7622 C   0  0  0  0  0  0  0  0  0  0  0  0
  -23.9774  -39.6226   -7.5061 C   0  0  0  0  0  0  0  0  0  0  0  0
  -24.3361  -40.9233   -6.8239 C   0  0  0  0  0  0  0  0  0  0  0  0
  -23.4287  -41.3919   -5.9091 O   0  0  0  0  0  0  0  0  0  0  0  0
  -22.0690  -41.4214   -5.6961 C   0  0  0  0  0  0  0  0  0  0  0  0
  -21.7164  -40.8431   -4.4742 C   0  0  0  0  0  0  0  0  0  0  0  0
  -20.4173  -40.7454   -4.0231 C   0  0  0  0  0  0  0  0  0  0  0  0
  -19.4756  -41.2607   -4.8641 C   0  0  0  0  0  0  0  0  0  0  0  0
  -19.7378  -41.8665   -6.1213 C   0  0  0  0  0  0  0  0  0  0  0  0
  -21.0567  -41.9272   -6.5003 C   0  0  0  0  0  0  0  0  0  0  0  0
  -18.4979  -42.3101   -6.7715 C   0  0  0  0  0  0  0  0  0  0  0  0
  -17.6701  -42.9704   -5.9713 O   0  0  0  0  0  0  0  0  0  0  0  0
  -17.9532  -42.2058   -8.0640 N   0  0  0  0  0  0  0  0  0  0  0  0
  -17.6724  -43.4630   -8.7856 C   0  0  0  0  0  0  0  0  0  0  0  0
  -15.3158  -37.0599   -9.5383 C   0  0  0  0  0  0  0  0  0  0  0  0
  1  2  1  0
  2  3  1  0
  2  4  1  0
  4  5  2  0
  5  6  1  0
  6  7  2  0
  7  8  1  0
  8  9  1  0
  9 10  1  0
 10 11  1  0
 11 12  1  0
 12 13  1  6
 12 14  1  0
 14 15  1  6
 15 16  1  0
 16 17  2  0
 17 18  1  0
 18 19  2  0
 19 20  1  0
 20 21  2  0
 20 22  1  0
 22 23  1  0
 23 24  1  0
 24 25  1  0
 25 26  1  0
 26 27  1  0
 27 28  1  0
 28 29  2  0
 29 30  1  0
 30 31  2  0
 31 32  1  0
 32 33  2  0
 32 34  1  0
 34 35  2  0
 34 36  1  0
 36 37  1  0
  8 38  2  0
 21 16  1  0
 33 28  1  0
 36 14  1  0
 38  4  1  0
M  END
$$$$
