
     RDKit          3D

 38 41  0  0  0  0  0  0  0  0999 V2000
  -21.2200  -41.1316  -13.1464 C   0  0  0  0  0  0  0  0  0  0  0  0
  -19.7961  -41.6511  -13.0750 C   0  0  0  0  0  0  0  0  0  0  0  0
  -19.3717  -42.1484  -14.4364 C   0  0  0  0  0  0  0  0  0  0  0  0
  -19.7442  -42.7880  -12.1293 C   0  0  0  0  0  0  0  0  0  0  0  0
  -20.4225  -43.9750  -12.3670 C   0  0  0  0  0  0  0  0  0  0  0  0
  -20.3260  -44.9967  -11.4422 C   0  0  0  0  0  0  0  0  0  0  0  0
  -19.5920  -44.8596  -10.3266 N   0  0  0  0  0  0  0  0  0  0  0  0
  -18.9217  -43.7214  -10.0653 C   0  0  0  0  0  0  0  0  0  0  0  0
  -18.0961  -43.5441   -8.8437 C   0  0  0  0  0  0  0  0  0  0  0  0
  -17.6973  -42.1606   -8.6787 N   0  0  0  0  0  0  0  0  0  0  0  0
  -18.8833  -41.3430   -8.8602 C   0  0  0  0  0  0  0  0  0  0  0  0
  -18.6461  -39.9098   -8.4869 C   0  0  1  0  0  0  0  0  0  0  0  0
  -19.7263  -39.1479   -8.8065 O   0  0  0  0  0  0  0  0  0  0  0  0
  -17.9709  -39.6657   -7.1888 C   0  0  2  0  0  0  0  0  0  0  0  0
  -18.2550  -38.3993   -6.4709 C   0  0  0  0  0  0  0  0  0  0  0  0
  -18.6240  -37.2010   -7.2947 C   0  0  0  0  0  0  0  0  0  0  0  0
  -19.9136  -36.7423   -6.9293 C   0  0  0  0  0  0  0  0  0  0  0  0
  -20.5307  -35.6559   -7.4891 C   0  0  0  0  0  0  0  0  0  0  0  0
  -19.8036  -35.0147   -8.4568 C   0  0  0  0  0  0  0  0  0  0  0  0
  -18.5099  -35.4379   -8.8530 C   0  0  0  0  0  0  0  0  0  0  0  0
  -17.9139  -36.5434   -8.2672 C   0  0  0  0  0  0  0  0  0  0  0  0
  -18.0144  -34.6056   -9.8460 O   0  0  0  0  0  0  0  0  0  0  0  0
  -16.8716  -33.8569  -10.0566 C   0  0  0  0  0  0  0  0  0  0  0  0
  -16.3504  -33.9490  -11.4759 C   0  0  0  0  0  0  0  0  0  0  0  0
  -16.0373  -35.3548  -11.8721 C   0  0  0  0  0  0  0  0  0  0  0  0
  -14.5557  -35.6531  -11.8292 C   0  0  0  0  0  0  0  0  0  0  0  0
  -14.2108  -36.9796  -11.7927 O   0  0  0  0  0  0  0  0  0  0  0  0
  -14.6711  -38.1726  -11.2828 C   0  0  0  0  0  0  0  0  0  0  0  0
  -14.8653  -39.1302  -12.2815 C   0  0  0  0  0  0  0  0  0  0  0  0
  -15.3221  -40.4074  -12.0351 C   0  0  0  0  0  0  0  0  0  0  0  0
  -15.5786  -40.6843  -10.7247 C   0  0  0  0  0  0  0  0  0  0  0  0
  -15.4112  -39.7787   -9.6439 C   0  0  0  0  0  0  0  0  0  0  0  0
  -14.9515  -38.5261   -9.9699 C   0  0  0  0  0  0  0  0  0  0  0  0
  -15.7827  -40.3966   -8.3644 C   0  0  0  0  0  0  0  0  0  0  0  0
  -15.2853  -41.6137   -8.1833 O   0  0  0  0  0  0  0  0  0  0  0  0
  -16.5558  -40.0114   -7.2544 N   0  0  0  0  0  0  0  0  0  0  0  0
  -15.8753  -39.9372   -5.9462 C   0  0  0  0  0  0  0  0  0  0  0  0
  -19.0096  -42.6960  -10.9768 C   0  0  0  0  0  0  0  0  0  0  0  0
  1  2  1  0
  2  3  1  0
  2  4  1  0
  4  5  2  0
  5  6  1  0
  6  7  2  0
  7  8  1  0
  8  9  1  0
  9 10  1  0
 10 11  1  0
 11 12  1  0
 12 13  1  1
 12 14  1  0
 14 15  1  6
 15 16  1  0
 16 17  2  0
 17 18  1  0
 18 19  2  0
 19 20  1  0
 20 21  2  0
 20 22  1  0
 22 23  1  0
 23 24  1  0
 24 25  1  0
 25 26  1  0
 26 27  1  0
 27 28  1  0
 28 29  2  0
 29 30  1  0
 30 31  2  0
 31 32  1  0
 32 33  2  0
 32 34  1  0
 34 35  2  0
 34 36  1  0
 36 37  1  0
  8 38  2  0
 21 16  1  0
 33 28  1  0
 36 14  1  0
 38  4  1  0
M  END
$$$$
