
     RDKit          3D

 38 41  0  0  0  0  0  0  0  0999 V2000
  -23.0173  -39.9340   -4.8478 C   0  0  0  0  0  0  0  0  0  0  0  0
  -23.3986  -39.5724   -6.2713 C   0  0  0  0  0  0  0  0  0  0  0  0
  -24.0361  -40.7662   -6.9414 C   0  0  0  0  0  0  0  0  0  0  0  0
  -22.1747  -39.2174   -7.0232 C   0  0  0  0  0  0  0  0  0  0  0  0
  -22.0679  -38.0336   -7.7394 C   0  0  0  0  0  0  0  0  0  0  0  0
  -20.8934  -37.7649   -8.4153 C   0  0  0  0  0  0  0  0  0  0  0  0
  -19.8626  -38.6244   -8.3897 N   0  0  0  0  0  0  0  0  0  0  0  0
  -19.9331  -39.7817   -7.7049 C   0  0  0  0  0  0  0  0  0  0  0  0
  -18.8063  -40.7477   -7.6524 C   0  0  0  0  0  0  0  0  0  0  0  0
  -17.7465  -40.2679   -6.7882 N   0  0  0  0  0  0  0  0  0  0  0  0
  -17.2739  -39.0105   -7.3390 C   0  0  0  0  0  0  0  0  0  0  0  0
  -16.0154  -39.1790   -8.1375 C   0  0  1  0  0  0  0  0  0  0  0  0
  -14.9859  -38.5093   -7.5535 O   0  0  0  0  0  0  0  0  0  0  0  0
  -15.7545  -40.5322   -8.6863 C   0  0  2  0  0  0  0  0  0  0  0  0
  -14.3533  -41.0155   -8.7404 C   0  0  0  0  0  0  0  0  0  0  0  0
  -13.2692  -39.9889   -8.8869 C   0  0  0  0  0  0  0  0  0  0  0  0
  -12.3868  -40.0572   -7.7806 C   0  0  0  0  0  0  0  0  0  0  0  0
  -11.2853  -39.2591   -7.6250 C   0  0  0  0  0  0  0  0  0  0  0  0
  -11.0777  -38.3590   -8.6364 C   0  0  0  0  0  0  0  0  0  0  0  0
  -11.9336  -38.2567   -9.7618 C   0  0  0  0  0  0  0  0  0  0  0  0
  -13.0419  -39.0790   -9.8883 C   0  0  0  0  0  0  0  0  0  0  0  0
  -11.4821  -37.2659  -10.6213 O   0  0  0  0  0  0  0  0  0  0  0  0
  -11.1614  -37.1635  -11.9621 C   0  0  0  0  0  0  0  0  0  0  0  0
  -11.6606  -35.8833  -12.5995 C   0  0  0  0  0  0  0  0  0  0  0  0
  -13.1429  -35.7373  -12.4868 C   0  0  0  0  0  0  0  0  0  0  0  0
  -13.8588  -36.0800  -13.7738 C   0  0  0  0  0  0  0  0  0  0  0  0
  -15.1982  -36.3512  -13.6622 O   0  0  0  0  0  0  0  0  0  0  0  0
  -16.0855  -36.9245  -12.7795 C   0  0  0  0  0  0  0  0  0  0  0  0
  -17.1047  -36.0424  -12.4125 C   0  0  0  0  0  0  0  0  0  0  0  0
  -18.1196  -36.3703  -11.5389 C   0  0  0  0  0  0  0  0  0  0  0  0
  -18.0652  -37.6397  -11.0437 C   0  0  0  0  0  0  0  0  0  0  0  0
  -17.0717  -38.6042  -11.3584 C   0  0  0  0  0  0  0  0  0  0  0  0
  -16.0951  -38.2023  -12.2368 C   0  0  0  0  0  0  0  0  0  0  0  0
  -17.3077  -39.8681  -10.6486 C   0  0  0  0  0  0  0  0  0  0  0  0
  -18.5642  -40.2929  -10.6974 O   0  0  0  0  0  0  0  0  0  0  0  0
  -16.5145  -40.7636   -9.9090 N   0  0  0  0  0  0  0  0  0  0  0  0
  -16.4125  -42.1500  -10.4065 C   0  0  0  0  0  0  0  0  0  0  0  0
  -21.0964  -40.0622   -7.0283 C   0  0  0  0  0  0  0  0  0  0  0  0
  1  2  1  0
  2  3  1  0
  2  4  1  0
  4  5  2  0
  5  6  1  0
  6  7  2  0
  7  8  1  0
  8  9  1  0
  9 10  1  0
 10 11  1  0
 11 12  1  0
 12 13  1  1
 12 14  1  0
 14 15  1  6
 15 16  1  0
 16 17  2  0
 17 18  1  0
 18 19  2  0
 19 20  1  0
 20 21  2  0
 20 22  1  0
 22 23  1  0
 23 24  1  0
 24 25  1  0
 25 26  1  0
 26 27  1  0
 27 28  1  0
 28 29  2  0
 29 30  1  0
 30 31  2  0
 31 32  1  0
 32 33  2  0
 32 34  1  0
 34 35  2  0
 34 36  1  0
 36 37  1  0
  8 38  2  0
 21 16  1  0
 33 28  1  0
 36 14  1  0
 38  4  1  0
M  END
$$$$
