
     RDKit          3D

 38 41  0  0  0  0  0  0  0  0999 V2000
  -22.1504  -39.3354   -6.1826 C   0  0  0  0  0  0  0  0  0  0  0  0
  -21.2669  -38.4955   -7.0862 C   0  0  0  0  0  0  0  0  0  0  0  0
  -22.1304  -37.6524   -7.9939 C   0  0  0  0  0  0  0  0  0  0  0  0
  -20.4468  -39.3935   -7.9290 C   0  0  0  0  0  0  0  0  0  0  0  0
  -20.7876  -39.6854   -9.2422 C   0  0  0  0  0  0  0  0  0  0  0  0
  -19.9732  -40.5292   -9.9723 C   0  0  0  0  0  0  0  0  0  0  0  0
  -18.8663  -41.0663   -9.4352 N   0  0  0  0  0  0  0  0  0  0  0  0
  -18.5069  -40.8040   -8.1643 C   0  0  0  0  0  0  0  0  0  0  0  0
  -17.2844  -41.3775   -7.5462 C   0  0  0  0  0  0  0  0  0  0  0  0
  -17.0395  -40.8004   -6.2396 N   0  0  0  0  0  0  0  0  0  0  0  0
  -16.4258  -39.5011   -6.4477 C   0  0  0  0  0  0  0  0  0  0  0  0
  -16.6272  -38.9966   -7.8458 C   0  0  1  0  0  0  0  0  0  0  0  0
  -16.8234  -37.6509   -7.8444 O   0  0  0  0  0  0  0  0  0  0  0  0
  -15.7540  -39.5802   -8.8935 C   0  0  2  0  0  0  0  0  0  0  0  0
  -15.4068  -38.7466  -10.0700 C   0  0  0  0  0  0  0  0  0  0  0  0
  -16.3938  -37.7002  -10.4961 C   0  0  0  0  0  0  0  0  0  0  0  0
  -15.7936  -36.4182  -10.4386 C   0  0  0  0  0  0  0  0  0  0  0  0
  -16.4303  -35.2550  -10.7790 C   0  0  0  0  0  0  0  0  0  0  0  0
  -17.7269  -35.4071  -11.1937 C   0  0  0  0  0  0  0  0  0  0  0  0
  -18.3668  -36.6699  -11.2678 C   0  0  0  0  0  0  0  0  0  0  0  0
  -17.6943  -37.8288  -10.9142 C   0  0  0  0  0  0  0  0  0  0  0  0
  -19.6704  -36.5231  -11.7189 O   0  0  0  0  0  0  0  0  0  0  0  0
  -20.4541  -37.0527  -12.7270 C   0  0  0  0  0  0  0  0  0  0  0  0
  -21.8654  -37.3739  -12.2801 C   0  0  0  0  0  0  0  0  0  0  0  0
  -21.8908  -38.3437  -11.1444 C   0  0  0  0  0  0  0  0  0  0  0  0
  -22.2355  -39.7475  -11.5882 C   0  0  0  0  0  0  0  0  0  0  0  0
  -21.9074  -40.7514  -10.7139 O   0  0  0  0  0  0  0  0  0  0  0  0
  -20.9380  -41.0653   -9.7883 C   0  0  0  0  0  0  0  0  0  0  0  0
  -21.4783  -41.3011   -8.5217 C   0  0  0  0  0  0  0  0  0  0  0  0
  -20.7206  -41.6326   -7.4187 C   0  0  0  0  0  0  0  0  0  0  0  0
  -19.3788  -41.7181   -7.6467 C   0  0  0  0  0  0  0  0  0  0  0  0
  -18.7403  -41.4973   -8.8956 C   0  0  0  0  0  0  0  0  0  0  0  0
  -19.5629  -41.1722   -9.9465 C   0  0  0  0  0  0  0  0  0  0  0  0
  -17.2851  -41.6659   -8.7909 C   0  0  0  0  0  0  0  0  0  0  0  0
  -16.9097  -42.7555   -8.1325 O   0  0  0  0  0  0  0  0  0  0  0  0
  -16.1602  -40.9412   -9.2239 N   0  0  0  0  0  0  0  0  0  0  0  0
  -15.2277  -41.6216  -10.1447 C   0  0  0  0  0  0  0  0  0  0  0  0
  -19.3088  -39.9664   -7.4258 C   0  0  0  0  0  0  0  0  0  0  0  0
  1  2  1  0
  2  3  1  0
  2  4  1  0
  4  5  2  0
  5  6  1  0
  6  7  2  0
  7  8  1  0
  8  9  1  0
  9 10  1  0
 10 11  1  0
 11 12  1  0
 12 13  1  1
 12 14  1  0
 14 15  1  6
 15 16  1  0
 16 17  2  0
 17 18  1  0
 18 19  2  0
 19 20  1  0
 20 21  2  0
 20 22  1  0
 22 23  1  0
 23 24  1  0
 24 25  1  0
 25 26  1  0
 26 27  1  0
 27 28  1  0
 28 29  2  0
 29 30  1  0
 30 31  2  0
 31 32  1  0
 32 33  2  0
 32 34  1  0
 34 35  2  0
 34 36  1  0
 36 37  1  0
  8 38  2  0
 21 16  1  0
 33 28  1  0
 36 14  1  0
 38  4  1  0
M  END
$$$$
