
     RDKit          3D

 38 41  0  0  0  0  0  0  0  0999 V2000
  -11.9115  -44.6113  -10.5581 C   0  0  0  0  0  0  0  0  0  0  0  0
  -12.8093  -43.4068  -10.7716 C   0  0  0  0  0  0  0  0  0  0  0  0
  -11.9652  -42.2035  -11.1181 C   0  0  0  0  0  0  0  0  0  0  0  0
  -13.5352  -43.1175   -9.5150 C   0  0  0  0  0  0  0  0  0  0  0  0
  -14.3437  -44.0614   -8.8977 C   0  0  0  0  0  0  0  0  0  0  0  0
  -14.9887  -43.7238   -7.7237 C   0  0  0  0  0  0  0  0  0  0  0  0
  -14.8461  -42.5066   -7.1756 N   0  0  0  0  0  0  0  0  0  0  0  0
  -14.0695  -41.5676   -7.7486 C   0  0  0  0  0  0  0  0  0  0  0  0
  -13.8871  -40.2159   -7.1612 C   0  0  0  0  0  0  0  0  0  0  0  0
  -14.3956  -39.1881   -8.0474 N   0  0  0  0  0  0  0  0  0  0  0  0
  -15.5395  -38.5787   -7.3931 C   0  0  0  0  0  0  0  0  0  0  0  0
  -16.7413  -38.5228   -8.2889 C   0  0  1  0  0  0  0  0  0  0  0  0
  -17.5489  -37.4856   -7.9405 O   0  0  0  0  0  0  0  0  0  0  0  0
  -16.5059  -38.7789   -9.7310 C   0  0  2  0  0  0  0  0  0  0  0  0
  -17.1167  -37.8595  -10.7216 C   0  0  0  0  0  0  0  0  0  0  0  0
  -18.3980  -37.1785  -10.3401 C   0  0  0  0  0  0  0  0  0  0  0  0
  -18.2234  -35.7728  -10.3641 C   0  0  0  0  0  0  0  0  0  0  0  0
  -19.2118  -34.8701  -10.0768 C   0  0  0  0  0  0  0  0  0  0  0  0
  -20.4225  -35.4236   -9.7539 C   0  0  0  0  0  0  0  0  0  0  0  0
  -20.6424  -36.8236   -9.7186 C   0  0  0  0  0  0  0  0  0  0  0  0
  -19.6195  -37.7109  -10.0134 C   0  0  0  0  0  0  0  0  0  0  0  0
  -21.9556  -37.0957   -9.3637 O   0  0  0  0  0  0  0  0  0  0  0  0
  -23.0066  -37.8328   -9.8766 C   0  0  0  0  0  0  0  0  0  0  0  0
  -23.7734  -38.5967   -8.8169 C   0  0  0  0  0  0  0  0  0  0  0  0
  -22.8994  -39.5412   -8.0585 C   0  0  0  0  0  0  0  0  0  0  0  0
  -23.0629  -40.9741   -8.5125 C   0  0  0  0  0  0  0  0  0  0  0  0
  -22.0527  -41.8334   -8.1648 O   0  0  0  0  0  0  0  0  0  0  0  0
  -20.6880  -41.8343   -7.9834 C   0  0  0  0  0  0  0  0  0  0  0  0
  -20.3295  -42.2508   -6.6990 C   0  0  0  0  0  0  0  0  0  0  0  0
  -19.0249  -42.3390   -6.2620 C   0  0  0  0  0  0  0  0  0  0  0  0
  -18.0840  -41.9859   -7.1838 C   0  0  0  0  0  0  0  0  0  0  0  0
  -18.3519  -41.5523   -8.5091 C   0  0  0  0  0  0  0  0  0  0  0  0
  -19.6759  -41.4918   -8.8698 C   0  0  0  0  0  0  0  0  0  0  0  0
  -17.1118  -41.2468   -9.2341 C   0  0  0  0  0  0  0  0  0  0  0  0
  -16.1655  -42.1686   -9.1059 O   0  0  0  0  0  0  0  0  0  0  0  0
  -16.6639  -40.1928  -10.0506 N   0  0  0  0  0  0  0  0  0  0  0  0
  -16.2852  -40.5235  -11.4389 C   0  0  0  0  0  0  0  0  0  0  0  0
  -13.4223  -41.8899   -8.9179 C   0  0  0  0  0  0  0  0  0  0  0  0
  1  2  1  0
  2  3  1  0
  2  4  1  0
  4  5  2  0
  5  6  1  0
  6  7  2  0
  7  8  1  0
  8  9  1  0
  9 10  1  0
 10 11  1  0
 11 12  1  0
 12 13  1  6
 12 14  1  0
 14 15  1  6
 15 16  1  0
 16 17  2  0
 17 18  1  0
 18 19  2  0
 19 20  1  0
 20 21  2  0
 20 22  1  0
 22 23  1  0
 23 24  1  0
 24 25  1  0
 25 26  1  0
 26 27  1  0
 27 28  1  0
 28 29  2  0
 29 30  1  0
 30 31  2  0
 31 32  1  0
 32 33  2  0
 32 34  1  0
 34 35  2  0
 34 36  1  0
 36 37  1  0
  8 38  2  0
 21 16  1  0
 33 28  1  0
 36 14  1  0
 38  4  1  0
M  END
$$$$
