
     RDKit          3D

 38 41  0  0  0  0  0  0  0  0999 V2000
  -23.3971  -41.2209   -4.4094 C   0  0  0  0  0  0  0  0  0  0  0  0
  -23.1332  -39.7439   -4.6359 C   0  0  0  0  0  0  0  0  0  0  0  0
  -24.4146  -39.0601   -5.0492 C   0  0  0  0  0  0  0  0  0  0  0  0
  -22.1518  -39.5920   -5.7329 C   0  0  0  0  0  0  0  0  0  0  0  0
  -22.5413  -39.4993   -7.0616 C   0  0  0  0  0  0  0  0  0  0  0  0
  -21.5709  -39.3546   -8.0340 C   0  0  0  0  0  0  0  0  0  0  0  0
  -20.2678  -39.3027   -7.7156 N   0  0  0  0  0  0  0  0  0  0  0  0
  -19.8558  -39.3898   -6.4366 C   0  0  0  0  0  0  0  0  0  0  0  0
  -18.4222  -39.3276   -6.0541 C   0  0  0  0  0  0  0  0  0  0  0  0
  -17.7559  -40.5872   -6.3180 N   0  0  0  0  0  0  0  0  0  0  0  0
  -16.3554  -40.2936   -6.5638 C   0  0  0  0  0  0  0  0  0  0  0  0
  -16.1217  -39.7643   -7.9476 C   0  0  1  0  0  0  0  0  0  0  0  0
  -16.1933  -38.4062   -7.9579 O   0  0  0  0  0  0  0  0  0  0  0  0
  -15.0490  -40.4192   -8.7357 C   0  0  2  0  0  0  0  0  0  0  0  0
  -14.2664  -39.5940   -9.6877 C   0  0  0  0  0  0  0  0  0  0  0  0
  -14.9470  -38.4054  -10.2998 C   0  0  0  0  0  0  0  0  0  0  0  0
  -14.2440  -37.2216   -9.9662 C   0  0  0  0  0  0  0  0  0  0  0  0
  -14.6051  -35.9689  -10.3844 C   0  0  0  0  0  0  0  0  0  0  0  0
  -15.7246  -35.9244  -11.1725 C   0  0  0  0  0  0  0  0  0  0  0  0
  -16.4579  -37.0831  -11.5321 C   0  0  0  0  0  0  0  0  0  0  0  0
  -16.0663  -38.3369  -11.0903 C   0  0  0  0  0  0  0  0  0  0  0  0
  -17.5374  -36.7402  -12.3329 O   0  0  0  0  0  0  0  0  0  0  0  0
  -18.0376  -37.1155  -13.5658 C   0  0  0  0  0  0  0  0  0  0  0  0
  -19.5456  -37.2576  -13.5803 C   0  0  0  0  0  0  0  0  0  0  0  0
  -20.0278  -38.2601  -12.5836 C   0  0  0  0  0  0  0  0  0  0  0  0
  -20.3870  -39.5839  -13.2198 C   0  0  0  0  0  0  0  0  0  0  0  0
  -20.4599  -40.6581  -12.3710 O   0  0  0  0  0  0  0  0  0  0  0  0
  -19.8595  -41.1398  -11.2297 C   0  0  0  0  0  0  0  0  0  0  0  0
  -20.7809  -41.3504  -10.2008 C   0  0  0  0  0  0  0  0  0  0  0  0
  -20.4363  -41.8275   -8.9541 C   0  0  0  0  0  0  0  0  0  0  0  0
  -19.1085  -42.0873   -8.7839 C   0  0  0  0  0  0  0  0  0  0  0  0
  -18.1014  -41.9058   -9.7683 C   0  0  0  0  0  0  0  0  0  0  0  0
  -18.5238  -41.4282  -10.9850 C   0  0  0  0  0  0  0  0  0  0  0  0
  -16.7765  -42.2770   -9.2546 C   0  0  0  0  0  0  0  0  0  0  0  0
  -16.7497  -43.4337   -8.6044 O   0  0  0  0  0  0  0  0  0  0  0  0
  -15.4955  -41.6968   -9.2786 N   0  0  0  0  0  0  0  0  0  0  0  0
  -14.4166  -42.4609   -9.9362 C   0  0  0  0  0  0  0  0  0  0  0  0
  -20.8110  -39.5348   -5.4586 C   0  0  0  0  0  0  0  0  0  0  0  0
  1  2  1  0
  2  3  1  0
  2  4  1  0
  4  5  2  0
  5  6  1  0
  6  7  2  0
  7  8  1  0
  8  9  1  0
  9 10  1  0
 10 11  1  0
 11 12  1  0
 12 13  1  1
 12 14  1  0
 14 15  1  6
 15 16  1  0
 16 17  2  0
 17 18  1  0
 18 19  2  0
 19 20  1  0
 20 21  2  0
 20 22  1  0
 22 23  1  0
 23 24  1  0
 24 25  1  0
 25 26  1  0
 26 27  1  0
 27 28  1  0
 28 29  2  0
 29 30  1  0
 30 31  2  0
 31 32  1  0
 32 33  2  0
 32 34  1  0
 34 35  2  0
 34 36  1  0
 36 37  1  0
  8 38  2  0
 21 16  1  0
 33 28  1  0
 36 14  1  0
 38  4  1  0
M  END
$$$$
