
     RDKit          3D

 38 41  0  0  0  0  0  0  0  0999 V2000
  -12.9119  -44.1533   -9.1343 C   0  0  0  0  0  0  0  0  0  0  0  0
  -11.8021  -43.1833   -9.4948 C   0  0  0  0  0  0  0  0  0  0  0  0
  -10.8702  -43.0228   -8.3173 C   0  0  0  0  0  0  0  0  0  0  0  0
  -12.3958  -41.8627   -9.7995 C   0  0  0  0  0  0  0  0  0  0  0  0
  -12.2295  -41.2474  -11.0322 C   0  0  0  0  0  0  0  0  0  0  0  0
  -12.8158  -40.0155  -11.2489 C   0  0  0  0  0  0  0  0  0  0  0  0
  -13.5379  -39.4098  -10.2930 N   0  0  0  0  0  0  0  0  0  0  0  0
  -13.7188  -39.9789   -9.0861 C   0  0  0  0  0  0  0  0  0  0  0  0
  -14.5187  -39.3361   -8.0126 C   0  0  0  0  0  0  0  0  0  0  0  0
  -15.7944  -40.0021   -7.8415 N   0  0  0  0  0  0  0  0  0  0  0  0
  -16.7931  -39.2113   -8.5380 C   0  0  0  0  0  0  0  0  0  0  0  0
  -18.0428  -39.0353   -7.7274 C   0  0  1  0  0  0  0  0  0  0  0  0
  -17.7368  -38.7758   -6.4280 O   0  0  0  0  0  0  0  0  0  0  0  0
  -19.1406  -38.2638   -8.3603 C   0  0  2  0  0  0  0  0  0  0  0  0
  -20.3630  -37.9915   -7.5658 C   0  0  0  0  0  0  0  0  0  0  0  0
  -20.7373  -38.9832   -6.5042 C   0  0  0  0  0  0  0  0  0  0  0  0
  -20.7624  -38.3486   -5.2378 C   0  0  0  0  0  0  0  0  0  0  0  0
  -21.0823  -38.9813   -4.0666 C   0  0  0  0  0  0  0  0  0  0  0  0
  -21.3882  -40.3104   -4.1940 C   0  0  0  0  0  0  0  0  0  0  0  0
  -21.3771  -40.9855   -5.4406 C   0  0  0  0  0  0  0  0  0  0  0  0
  -21.0469  -40.3158   -6.6080 C   0  0  0  0  0  0  0  0  0  0  0  0
  -21.7268  -42.3170   -5.2699 O   0  0  0  0  0  0  0  0  0  0  0  0
  -22.6547  -43.1921   -5.8031 C   0  0  0  0  0  0  0  0  0  0  0  0
  -22.0883  -44.5704   -6.0748 C   0  0  0  0  0  0  0  0  0  0  0  0
  -20.9285  -44.5288   -7.0150 C   0  0  0  0  0  0  0  0  0  0  0  0
  -21.3053  -44.9428   -8.4196 C   0  0  0  0  0  0  0  0  0  0  0  0
  -20.4332  -44.5708   -9.4099 O   0  0  0  0  0  0  0  0  0  0  0  0
  -19.5795  -43.5383   -9.7267 C   0  0  0  0  0  0  0  0  0  0  0  0
  -18.2680  -43.9809   -9.9162 C   0  0  0  0  0  0  0  0  0  0  0  0
  -17.2203  -43.1456  -10.2404 C   0  0  0  0  0  0  0  0  0  0  0  0
  -17.5520  -41.8290  -10.3678 C   0  0  0  0  0  0  0  0  0  0  0  0
  -18.8533  -41.2875  -10.1955 C   0  0  0  0  0  0  0  0  0  0  0  0
  -19.8437  -42.1835   -9.8746 C   0  0  0  0  0  0  0  0  0  0  0  0
  -18.8602  -39.8332  -10.4006 C   0  0  0  0  0  0  0  0  0  0  0  0
  -18.2046  -39.4334  -11.4832 O   0  0  0  0  0  0  0  0  0  0  0  0
  -19.4008  -38.7290   -9.7176 N   0  0  0  0  0  0  0  0  0  0  0  0
  -20.3741  -37.8907  -10.4456 C   0  0  0  0  0  0  0  0  0  0  0  0
  -13.1402  -41.2047   -8.8566 C   0  0  0  0  0  0  0  0  0  0  0  0
  1  2  1  0
  2  3  1  0
  2  4  1  0
  4  5  2  0
  5  6  1  0
  6  7  2  0
  7  8  1  0
  8  9  1  0
  9 10  1  0
 10 11  1  0
 11 12  1  0
 12 13  1  1
 12 14  1  0
 14 15  1  1
 15 16  1  0
 16 17  2  0
 17 18  1  0
 18 19  2  0
 19 20  1  0
 20 21  2  0
 20 22  1  0
 22 23  1  0
 23 24  1  0
 24 25  1  0
 25 26  1  0
 26 27  1  0
 27 28  1  0
 28 29  2  0
 29 30  1  0
 30 31  2  0
 31 32  1  0
 32 33  2  0
 32 34  1  0
 34 35  2  0
 34 36  1  0
 36 37  1  0
  8 38  2  0
 21 16  1  0
 33 28  1  0
 36 14  1  0
 38  4  1  0
M  END
$$$$
