
     RDKit          3D

 38 41  0  0  0  0  0  0  0  0999 V2000
  -17.0843  -38.3873  -10.2892 C   0  0  0  0  0  0  0  0  0  0  0  0
  -18.4108  -37.6537  -10.2203 C   0  0  0  0  0  0  0  0  0  0  0  0
  -18.8534  -37.5458   -8.7805 C   0  0  0  0  0  0  0  0  0  0  0  0
  -19.4299  -38.4289  -10.9618 C   0  0  0  0  0  0  0  0  0  0  0  0
  -20.5468  -37.8277  -11.5246 C   0  0  0  0  0  0  0  0  0  0  0  0
  -21.4559  -38.6127  -12.2070 C   0  0  0  0  0  0  0  0  0  0  0  0
  -21.2765  -39.9371  -12.3330 N   0  0  0  0  0  0  0  0  0  0  0  0
  -20.2042  -40.5520  -11.7990 C   0  0  0  0  0  0  0  0  0  0  0  0
  -19.9757  -42.0137  -11.9289 C   0  0  0  0  0  0  0  0  0  0  0  0
  -19.9529  -42.6564  -10.6302 N   0  0  0  0  0  0  0  0  0  0  0  0
  -21.2629  -43.2438  -10.4141 C   0  0  0  0  0  0  0  0  0  0  0  0
  -21.7038  -43.1355   -8.9846 C   0  0  1  0  0  0  0  0  0  0  0  0
  -22.9953  -42.7152   -8.9136 O   0  0  0  0  0  0  0  0  0  0  0  0
  -21.2641  -44.2185   -8.0711 C   0  0  2  0  0  0  0  0  0  0  0  0
  -21.9642  -44.3768   -6.7732 C   0  0  0  0  0  0  0  0  0  0  0  0
  -22.5641  -43.1496   -6.1528 C   0  0  0  0  0  0  0  0  0  0  0  0
  -23.9614  -43.3219   -5.9956 C   0  0  0  0  0  0  0  0  0  0  0  0
  -24.7947  -42.3853   -5.4453 C   0  0  0  0  0  0  0  0  0  0  0  0
  -24.1779  -41.2312   -5.0406 C   0  0  0  0  0  0  0  0  0  0  0  0
  -22.7833  -41.0165   -5.1773 C   0  0  0  0  0  0  0  0  0  0  0  0
  -21.9675  -41.9849   -5.7405 C   0  0  0  0  0  0  0  0  0  0  0  0
  -22.4381  -39.7667   -4.6843 O   0  0  0  0  0  0  0  0  0  0  0  0
  -21.5341  -39.2578   -3.7706 C   0  0  0  0  0  0  0  0  0  0  0  0
  -20.8615  -37.9848   -4.2415 C   0  0  0  0  0  0  0  0  0  0  0  0
  -20.1288  -38.1766   -5.5289 C   0  0  0  0  0  0  0  0  0  0  0  0
  -18.6358  -38.3119   -5.3318 C   0  0  0  0  0  0  0  0  0  0  0  0
  -17.9403  -38.8684   -6.3741 O   0  0  0  0  0  0  0  0  0  0  0  0
  -18.1003  -39.8183   -7.3576 C   0  0  0  0  0  0  0  0  0  0  0  0
  -17.9134  -39.2868   -8.6360 C   0  0  0  0  0  0  0  0  0  0  0  0
  -18.0189  -40.0284   -9.7934 C   0  0  0  0  0  0  0  0  0  0  0  0
  -18.3243  -41.3445   -9.6080 C   0  0  0  0  0  0  0  0  0  0  0  0
  -18.5310  -41.9725   -8.3513 C   0  0  0  0  0  0  0  0  0  0  0  0
  -18.4074  -41.1675   -7.2452 C   0  0  0  0  0  0  0  0  0  0  0  0
  -18.8478  -43.3977   -8.5099 C   0  0  0  0  0  0  0  0  0  0  0  0
  -18.0524  -44.0410   -9.3556 O   0  0  0  0  0  0  0  0  0  0  0  0
  -19.8100  -44.2742   -7.9769 N   0  0  0  0  0  0  0  0  0  0  0  0
  -19.3188  -45.4340   -7.2064 C   0  0  0  0  0  0  0  0  0  0  0  0
  -19.2916  -39.7829  -11.1165 C   0  0  0  0  0  0  0  0  0  0  0  0
  1  2  1  0
  2  3  1  0
  2  4  1  0
  4  5  2  0
  5  6  1  0
  6  7  2  0
  7  8  1  0
  8  9  1  0
  9 10  1  0
 10 11  1  0
 11 12  1  0
 12 13  1  6
 12 14  1  0
 14 15  1  1
 15 16  1  0
 16 17  2  0
 17 18  1  0
 18 19  2  0
 19 20  1  0
 20 21  2  0
 20 22  1  0
 22 23  1  0
 23 24  1  0
 24 25  1  0
 25 26  1  0
 26 27  1  0
 27 28  1  0
 28 29  2  0
 29 30  1  0
 30 31  2  0
 31 32  1  0
 32 33  2  0
 32 34  1  0
 34 35  2  0
 34 36  1  0
 36 37  1  0
  8 38  2  0
 21 16  1  0
 33 28  1  0
 36 14  1  0
 38  4  1  0
M  END
$$$$
