
     RDKit          3D

 40 43  0  0  0  0  0  0  0  0999 V2000
  -15.1151  -35.4551  -14.3610 C   0  0  0  0  0  0  0  0  0  0  0  0
  -15.4403  -35.9753  -12.9903 C   0  0  0  0  0  0  0  0  0  0  0  0
  -15.5147  -34.8270  -11.9739 C   0  0  0  0  0  0  0  0  0  0  0  0
  -14.5037  -37.0002  -12.5036 C   0  0  0  0  0  0  0  0  0  0  0  0
  -14.9060  -38.2025  -11.9636 C   0  0  0  0  0  0  0  0  0  0  0  0
  -14.0014  -39.1531  -11.5184 C   0  0  0  0  0  0  0  0  0  0  0  0
  -14.4424  -40.4235  -10.9412 C   0  0  0  0  0  0  0  0  0  0  0  0
  -14.6964  -40.5838   -9.6041 N   0  0  0  0  0  0  0  0  0  0  0  0
  -15.1949  -39.6994   -8.6815 C   0  0  0  0  0  0  0  0  0  0  0  0
  -15.9880  -40.0886   -7.5148 C   0  0  1  0  0  0  0  0  0  0  0  0
  -15.6118  -39.4836   -6.3476 O   0  0  0  0  0  0  0  0  0  0  0  0
  -17.4833  -39.8586   -7.6689 C   0  0  2  0  0  0  0  0  0  0  0  0
  -18.2089  -39.9771   -6.3582 C   0  0  0  0  0  0  0  0  0  0  0  0
  -19.5113  -39.1869   -6.4984 C   0  0  2  0  0  0  0  0  0  0  0  0
  -19.2462  -37.7045   -6.5167 C   0  0  0  0  0  0  0  0  0  0  0  0
  -20.3817  -39.5646   -5.3154 C   0  0  0  0  0  0  0  0  0  0  0  0
  -21.7157  -38.8907   -5.3659 C   0  0  0  0  0  0  0  0  0  0  0  0
  -22.8258  -39.8130   -5.7519 C   0  0  0  0  0  0  0  0  0  0  0  0
  -22.9399  -40.9289   -4.7629 C   0  0  0  0  0  0  0  0  0  0  0  0
  -24.2797  -41.6092   -4.9782 C   0  0  0  0  0  0  0  0  0  0  0  0
  -24.0691  -43.0987   -4.8616 C   0  0  0  0  0  0  0  0  0  0  0  0
  -23.4333  -43.6559   -6.1251 C   0  0  0  0  0  0  0  0  0  0  0  0
  -22.0869  -43.8186   -5.9013 O   0  0  0  0  0  0  0  0  0  0  0  0
  -20.9050  -43.7371   -6.6103 C   0  0  0  0  0  0  0  0  0  0  0  0
  -20.3930  -42.6803   -7.3563 C   0  0  0  0  0  0  0  0  0  0  0  0
  -19.1839  -42.8580   -7.9714 C   0  0  0  0  0  0  0  0  0  0  0  0
  -18.4947  -44.0978   -7.8333 C   0  0  0  0  0  0  0  0  0  0  0  0
  -18.9729  -45.1506   -7.1060 C   0  0  0  0  0  0  0  0  0  0  0  0
  -20.1817  -44.9504   -6.5005 C   0  0  0  0  0  0  0  0  0  0  0  0
  -18.2295  -46.4099   -6.9882 C   0  0  0  0  0  0  0  0  0  0  0  0
  -18.8351  -47.6077   -7.0498 N   0  0  0  0  0  0  0  0  0  0  0  0
  -17.8987  -48.5326   -6.9118 C   0  0  0  0  0  0  0  0  0  0  0  0
  -16.7115  -47.8506   -6.7654 C   0  0  0  0  0  0  0  0  0  0  0  0
  -16.9457  -46.5667   -6.8158 O   0  0  0  0  0  0  0  0  0  0  0  0
  -18.3798  -41.9660   -8.8272 C   0  0  0  0  0  0  0  0  0  0  0  0
  -17.8067  -42.4844   -9.9037 O   0  0  0  0  0  0  0  0  0  0  0  0
  -18.0648  -40.5919   -8.7452 N   0  0  0  0  0  0  0  0  0  0  0  0
  -12.6624  -38.8565  -11.6330 C   0  0  0  0  0  0  0  0  0  0  0  0
  -12.2126  -37.6673  -12.1662 C   0  0  0  0  0  0  0  0  0  0  0  0
  -13.1492  -36.7636  -12.5905 C   0  0  0  0  0  0  0  0  0  0  0  0
  1  2  1  0
  2  3  1  0
  2  4  1  0
  4  5  2  0
  5  6  1  0
  6  7  1  0
  7  8  1  0
  8  9  1  0
  9 10  1  0
 10 11  1  1
 10 12  1  0
 12 13  1  1
 13 14  1  0
 14 15  1  1
 14 16  1  0
 16 17  1  0
 17 18  1  0
 18 19  1  0
 19 20  1  0
 20 21  1  0
 21 22  1  0
 22 23  1  0
 23 24  1  0
 24 25  2  0
 25 26  1  0
 26 27  2  0
 27 28  1  0
 28 29  2  0
 28 30  1  0
 30 31  2  0
 31 32  1  0
 32 33  2  0
 33 34  1  0
 26 35  1  0
 35 36  2  0
 35 37  1  0
  6 38  2  0
 38 39  1  0
 39 40  2  0
 29 24  1  0
 34 30  1  0
 37 12  1  0
 40  4  1  0
M  END
$$$$
