
     RDKit          3D

 40 43  0  0  0  0  0  0  0  0999 V2000
  -11.9007  -45.2417  -12.5489 C   0  0  0  0  0  0  0  0  0  0  0  0
  -13.1175  -44.7369  -11.8281 C   0  0  0  0  0  0  0  0  0  0  0  0
  -14.3856  -45.4310  -12.3452 C   0  0  0  0  0  0  0  0  0  0  0  0
  -13.2927  -43.2780  -11.9029 C   0  0  0  0  0  0  0  0  0  0  0  0
  -13.1514  -42.4388  -10.8190 C   0  0  0  0  0  0  0  0  0  0  0  0
  -13.3159  -41.0667  -10.9194 C   0  0  0  0  0  0  0  0  0  0  0  0
  -13.1690  -40.1876   -9.7587 C   0  0  0  0  0  0  0  0  0  0  0  0
  -14.0993  -40.1208   -8.7546 N   0  0  0  0  0  0  0  0  0  0  0  0
  -15.2963  -39.4534   -8.6945 C   0  0  0  0  0  0  0  0  0  0  0  0
  -16.1821  -39.4577   -7.5296 C   0  0  1  0  0  0  0  0  0  0  0  0
  -15.8273  -38.5767   -6.5458 O   0  0  0  0  0  0  0  0  0  0  0  0
  -17.6440  -39.1920   -7.8534 C   0  0  2  0  0  0  0  0  0  0  0  0
  -18.4975  -39.1600   -6.6170 C   0  0  0  0  0  0  0  0  0  0  0  0
  -19.7444  -38.3421   -6.9589 C   0  0  2  0  0  0  0  0  0  0  0  0
  -19.4141  -36.8783   -7.0858 C   0  0  0  0  0  0  0  0  0  0  0  0
  -20.7409  -38.5752   -5.8397 C   0  0  0  0  0  0  0  0  0  0  0  0
  -22.0330  -37.8635   -6.0852 C   0  0  0  0  0  0  0  0  0  0  0  0
  -23.1398  -38.7795   -6.4949 C   0  0  0  0  0  0  0  0  0  0  0  0
  -23.3978  -39.7915   -5.4246 C   0  0  0  0  0  0  0  0  0  0  0  0
  -24.7389  -40.4426   -5.7103 C   0  0  0  0  0  0  0  0  0  0  0  0
  -24.6061  -41.9206   -5.4375 C   0  0  0  0  0  0  0  0  0  0  0  0
  -23.8760  -42.6172   -6.5746 C   0  0  0  0  0  0  0  0  0  0  0  0
  -22.5660  -42.8043   -6.2027 O   0  0  0  0  0  0  0  0  0  0  0  0
  -21.3185  -42.8315   -6.7939 C   0  0  0  0  0  0  0  0  0  0  0  0
  -20.6910  -41.8689   -7.5781 C   0  0  0  0  0  0  0  0  0  0  0  0
  -19.4370  -42.1460   -8.0499 C   0  0  0  0  0  0  0  0  0  0  0  0
  -18.8194  -43.3900   -7.7306 C   0  0  0  0  0  0  0  0  0  0  0  0
  -19.4113  -44.3517   -6.9619 C   0  0  0  0  0  0  0  0  0  0  0  0
  -20.6631  -44.0531   -6.5017 C   0  0  0  0  0  0  0  0  0  0  0  0
  -18.7386  -45.6189   -6.6554 C   0  0  0  0  0  0  0  0  0  0  0  0
  -17.7218  -45.6968   -5.7806 N   0  0  0  0  0  0  0  0  0  0  0  0
  -17.3398  -46.9628   -5.7288 C   0  0  0  0  0  0  0  0  0  0  0  0
  -18.1607  -47.6420   -6.6012 C   0  0  0  0  0  0  0  0  0  0  0  0
  -18.9968  -46.7997   -7.1467 O   0  0  0  0  0  0  0  0  0  0  0  0
  -18.5156  -41.3679   -8.8985 C   0  0  0  0  0  0  0  0  0  0  0  0
  -17.8643  -42.0060   -9.8602 O   0  0  0  0  0  0  0  0  0  0  0  0
  -18.1502  -40.0039   -8.9112 N   0  0  0  0  0  0  0  0  0  0  0  0
  -13.6312  -40.5550  -12.1575 C   0  0  0  0  0  0  0  0  0  0  0  0
  -13.7829  -41.3548  -13.2701 C   0  0  0  0  0  0  0  0  0  0  0  0
  -13.6091  -42.7038  -13.1148 C   0  0  0  0  0  0  0  0  0  0  0  0
  1  2  1  0
  2  3  1  0
  2  4  1  0
  4  5  2  0
  5  6  1  0
  6  7  1  0
  7  8  1  0
  8  9  1  0
  9 10  1  0
 10 11  1  1
 10 12  1  0
 12 13  1  1
 13 14  1  0
 14 15  1  1
 14 16  1  0
 16 17  1  0
 17 18  1  0
 18 19  1  0
 19 20  1  0
 20 21  1  0
 21 22  1  0
 22 23  1  0
 23 24  1  0
 24 25  2  0
 25 26  1  0
 26 27  2  0
 27 28  1  0
 28 29  2  0
 28 30  1  0
 30 31  2  0
 31 32  1  0
 32 33  2  0
 33 34  1  0
 26 35  1  0
 35 36  2  0
 35 37  1  0
  6 38  2  0
 38 39  1  0
 39 40  2  0
 29 24  1  0
 34 30  1  0
 37 12  1  0
 40  4  1  0
M  END
$$$$
