
     RDKit          3D

 40 43  0  0  0  0  0  0  0  0999 V2000
  -13.6551  -35.0041  -12.2909 C   0  0  0  0  0  0  0  0  0  0  0  0
  -13.0691  -35.7464  -11.1244 C   0  0  0  0  0  0  0  0  0  0  0  0
  -11.6798  -35.1973  -10.7700 C   0  0  0  0  0  0  0  0  0  0  0  0
  -12.9840  -37.2013  -11.3250 C   0  0  0  0  0  0  0  0  0  0  0  0
  -13.7847  -38.1079  -10.6646 C   0  0  0  0  0  0  0  0  0  0  0  0
  -13.6874  -39.4736  -10.8776 C   0  0  0  0  0  0  0  0  0  0  0  0
  -14.5399  -40.4258  -10.1648 C   0  0  0  0  0  0  0  0  0  0  0  0
  -15.3678  -40.0571   -9.1368 N   0  0  0  0  0  0  0  0  0  0  0  0
  -15.2220  -40.2056   -7.7809 C   0  0  0  0  0  0  0  0  0  0  0  0
  -16.3388  -40.3027   -6.8400 C   0  0  1  0  0  0  0  0  0  0  0  0
  -16.1490  -39.6291   -5.6651 O   0  0  0  0  0  0  0  0  0  0  0  0
  -17.6739  -39.8405   -7.4027 C   0  0  2  0  0  0  0  0  0  0  0  0
  -18.8120  -40.1382   -6.4677 C   0  0  0  0  0  0  0  0  0  0  0  0
  -19.9393  -39.1642   -6.8157 C   0  0  2  0  0  0  0  0  0  0  0  0
  -19.6003  -37.7642   -6.3764 C   0  0  0  0  0  0  0  0  0  0  0  0
  -21.1839  -39.6649   -6.1085 C   0  0  0  0  0  0  0  0  0  0  0  0
  -22.3783  -38.8184   -6.4138 C   0  0  0  0  0  0  0  0  0  0  0  0
  -23.3379  -39.4730   -7.3532 C   0  0  0  0  0  0  0  0  0  0  0  0
  -23.8490  -40.7496   -6.7656 C   0  0  0  0  0  0  0  0  0  0  0  0
  -25.0690  -41.1755   -7.5621 C   0  0  0  0  0  0  0  0  0  0  0  0
  -24.9965  -42.6694   -7.7608 C   0  0  0  0  0  0  0  0  0  0  0  0
  -23.9971  -43.0225   -8.8506 C   0  0  0  0  0  0  0  0  0  0  0  0
  -22.8218  -43.4142   -8.2551 O   0  0  0  0  0  0  0  0  0  0  0  0
  -21.4654  -43.3453   -8.5034 C   0  0  0  0  0  0  0  0  0  0  0  0
  -20.6685  -42.2334   -8.7563 C   0  0  0  0  0  0  0  0  0  0  0  0
  -19.3337  -42.4391   -8.9749 C   0  0  0  0  0  0  0  0  0  0  0  0
  -18.8060  -43.7625   -8.9380 C   0  0  0  0  0  0  0  0  0  0  0  0
  -19.5645  -44.8712   -8.6904 C   0  0  0  0  0  0  0  0  0  0  0  0
  -20.8944  -44.6417   -8.4748 C   0  0  0  0  0  0  0  0  0  0  0  0
  -18.9800  -46.2165   -8.6595 C   0  0  0  0  0  0  0  0  0  0  0  0
  -19.4027  -47.1616   -7.8031 N   0  0  0  0  0  0  0  0  0  0  0  0
  -18.6825  -48.2492   -8.0264 C   0  0  0  0  0  0  0  0  0  0  0  0
  -17.8139  -47.9258   -9.0447 C   0  0  0  0  0  0  0  0  0  0  0  0
  -18.0191  -46.6875   -9.4060 O   0  0  0  0  0  0  0  0  0  0  0  0
  -18.2347  -41.5030   -9.2757 C   0  0  0  0  0  0  0  0  0  0  0  0
  -17.3563  -41.8504  -10.2051 O   0  0  0  0  0  0  0  0  0  0  0  0
  -17.8897  -40.2361   -8.7560 N   0  0  0  0  0  0  0  0  0  0  0  0
  -12.7492  -39.9081  -11.7860 C   0  0  0  0  0  0  0  0  0  0  0  0
  -11.9262  -39.0392  -12.4703 C   0  0  0  0  0  0  0  0  0  0  0  0
  -12.0644  -37.7001  -12.2217 C   0  0  0  0  0  0  0  0  0  0  0  0
  1  2  1  0
  2  3  1  0
  2  4  1  0
  4  5  2  0
  5  6  1  0
  6  7  1  0
  7  8  1  0
  8  9  1  0
  9 10  1  0
 10 11  1  1
 10 12  1  0
 12 13  1  1
 13 14  1  0
 14 15  1  1
 14 16  1  0
 16 17  1  0
 17 18  1  0
 18 19  1  0
 19 20  1  0
 20 21  1  0
 21 22  1  0
 22 23  1  0
 23 24  1  0
 24 25  2  0
 25 26  1  0
 26 27  2  0
 27 28  1  0
 28 29  2  0
 28 30  1  0
 30 31  2  0
 31 32  1  0
 32 33  2  0
 33 34  1  0
 26 35  1  0
 35 36  2  0
 35 37  1  0
  6 38  2  0
 38 39  1  0
 39 40  2  0
 29 24  1  0
 34 30  1  0
 37 12  1  0
 40  4  1  0
M  END
$$$$
