
     RDKit          3D

 40 43  0  0  0  0  0  0  0  0999 V2000
  -14.8115  -35.9405  -13.3857 C   0  0  0  0  0  0  0  0  0  0  0  0
  -14.4683  -36.2245  -11.9516 C   0  0  0  0  0  0  0  0  0  0  0  0
  -13.3829  -35.2620  -11.4490 C   0  0  0  0  0  0  0  0  0  0  0  0
  -14.0461  -37.6116  -11.7026 C   0  0  0  0  0  0  0  0  0  0  0  0
  -13.9648  -38.1674  -10.4442 C   0  0  0  0  0  0  0  0  0  0  0  0
  -13.5699  -39.4796  -10.2390 C   0  0  0  0  0  0  0  0  0  0  0  0
  -13.4820  -40.0553   -8.8965 C   0  0  0  0  0  0  0  0  0  0  0  0
  -14.3544  -41.0075   -8.4378 N   0  0  0  0  0  0  0  0  0  0  0  0
  -15.3799  -40.9111   -7.5317 C   0  0  0  0  0  0  0  0  0  0  0  0
  -15.9202  -39.6455   -7.0335 C   0  0  1  0  0  0  0  0  0  0  0  0
  -15.1842  -38.5438   -7.3720 O   0  0  0  0  0  0  0  0  0  0  0  0
  -17.3535  -39.3660   -7.4581 C   0  0  2  0  0  0  0  0  0  0  0  0
  -18.3295  -39.6156   -6.3431 C   0  0  0  0  0  0  0  0  0  0  0  0
  -19.5772  -38.7854   -6.6507 C   0  0  2  0  0  0  0  0  0  0  0  0
  -19.3152  -37.3168   -6.4441 C   0  0  0  0  0  0  0  0  0  0  0  0
  -20.6690  -39.2748   -5.7188 C   0  0  0  0  0  0  0  0  0  0  0  0
  -21.9657  -38.5697   -5.9589 C   0  0  0  0  0  0  0  0  0  0  0  0
  -22.9736  -39.4172   -6.6643 C   0  0  0  0  0  0  0  0  0  0  0  0
  -23.2849  -40.6349   -5.8540 C   0  0  0  0  0  0  0  0  0  0  0  0
  -24.5526  -41.2562   -6.4117 C   0  0  0  0  0  0  0  0  0  0  0  0
  -24.3687  -42.7537   -6.4276 C   0  0  0  0  0  0  0  0  0  0  0  0
  -23.4895  -43.1786   -7.5928 C   0  0  0  0  0  0  0  0  0  0  0  0
  -22.2163  -43.3959   -7.1226 O   0  0  0  0  0  0  0  0  0  0  0  0
  -20.9152  -43.2613   -7.5648 C   0  0  0  0  0  0  0  0  0  0  0  0
  -20.2636  -42.1387   -8.0654 C   0  0  0  0  0  0  0  0  0  0  0  0
  -18.9547  -42.2729   -8.4407 C   0  0  0  0  0  0  0  0  0  0  0  0
  -18.3068  -43.5355   -8.3105 C   0  0  0  0  0  0  0  0  0  0  0  0
  -18.9215  -44.6528   -7.8208 C   0  0  0  0  0  0  0  0  0  0  0  0
  -20.2282  -44.4952   -7.4522 C   0  0  0  0  0  0  0  0  0  0  0  0
  -18.2163  -45.9338   -7.7016 C   0  0  0  0  0  0  0  0  0  0  0  0
  -18.7598  -46.9958   -7.0835 N   0  0  0  0  0  0  0  0  0  0  0  0
  -17.8808  -47.9832   -7.1462 C   0  0  0  0  0  0  0  0  0  0  0  0
  -16.7922  -47.4788   -7.8220 C   0  0  0  0  0  0  0  0  0  0  0  0
  -17.0266  -46.2350   -8.1446 O   0  0  0  0  0  0  0  0  0  0  0  0
  -17.9947  -41.3082   -9.0083 C   0  0  0  0  0  0  0  0  0  0  0  0
  -17.2148  -41.7143   -9.9998 O   0  0  0  0  0  0  0  0  0  0  0  0
  -17.7041  -39.9595   -8.7067 N   0  0  0  0  0  0  0  0  0  0  0  0
  -13.2544  -40.2276  -11.3503 C   0  0  0  0  0  0  0  0  0  0  0  0
  -13.3205  -39.7152  -12.6284 C   0  0  0  0  0  0  0  0  0  0  0  0
  -13.7168  -38.4129  -12.7740 C   0  0  0  0  0  0  0  0  0  0  0  0
  1  2  1  0
  2  3  1  0
  2  4  1  0
  4  5  2  0
  5  6  1  0
  6  7  1  0
  7  8  1  0
  8  9  1  0
  9 10  1  0
 10 11  1  6
 10 12  1  0
 12 13  1  1
 13 14  1  0
 14 15  1  1
 14 16  1  0
 16 17  1  0
 17 18  1  0
 18 19  1  0
 19 20  1  0
 20 21  1  0
 21 22  1  0
 22 23  1  0
 23 24  1  0
 24 25  2  0
 25 26  1  0
 26 27  2  0
 27 28  1  0
 28 29  2  0
 28 30  1  0
 30 31  2  0
 31 32  1  0
 32 33  2  0
 33 34  1  0
 26 35  1  0
 35 36  2  0
 35 37  1  0
  6 38  2  0
 38 39  1  0
 39 40  2  0
 29 24  1  0
 34 30  1  0
 37 12  1  0
 40  4  1  0
M  END
$$$$
