
     RDKit          3D

 40 43  0  0  0  0  0  0  0  0999 V2000
  -22.4035  -41.5505   -5.6162 C   0  0  0  0  0  0  0  0  0  0  0  0
  -22.3446  -40.0500   -5.6087 C   0  0  0  0  0  0  0  0  0  0  0  0
  -23.7268  -39.4509   -5.3121 C   0  0  0  0  0  0  0  0  0  0  0  0
  -21.8150  -39.4676   -6.8515 C   0  0  0  0  0  0  0  0  0  0  0  0
  -20.6583  -38.7205   -6.9083 C   0  0  0  0  0  0  0  0  0  0  0  0
  -20.1786  -38.1888   -8.0946 C   0  0  0  0  0  0  0  0  0  0  0  0
  -18.9521  -37.3918   -8.1397 C   0  0  0  0  0  0  0  0  0  0  0  0
  -17.7749  -37.8072   -7.5741 N   0  0  0  0  0  0  0  0  0  0  0  0
  -17.2790  -39.0714   -7.3802 C   0  0  0  0  0  0  0  0  0  0  0  0
  -16.2186  -39.6716   -8.1908 C   0  0  1  0  0  0  0  0  0  0  0  0
  -15.0134  -39.0304   -8.1103 O   0  0  0  0  0  0  0  0  0  0  0  0
  -15.9577  -41.1400   -7.8931 C   0  0  2  0  0  0  0  0  0  0  0  0
  -16.0453  -41.9891   -9.1298 C   0  0  0  0  0  0  0  0  0  0  0  0
  -15.2284  -43.2540   -8.8591 C   0  0  2  0  0  0  0  0  0  0  0  0
  -13.7525  -42.9545   -8.8523 C   0  0  0  0  0  0  0  0  0  0  0  0
  -15.5734  -44.2411   -9.9574 C   0  0  0  0  0  0  0  0  0  0  0  0
  -14.8712  -45.5485   -9.7741 C   0  0  0  0  0  0  0  0  0  0  0  0
  -15.7734  -46.6377   -9.2929 C   0  0  0  0  0  0  0  0  0  0  0  0
  -16.8751  -46.8706  -10.2769 C   0  0  0  0  0  0  0  0  0  0  0  0
  -17.5284  -48.1991   -9.9416 C   0  0  0  0  0  0  0  0  0  0  0  0
  -19.0208  -48.0347  -10.0915 C   0  0  0  0  0  0  0  0  0  0  0  0
  -19.6061  -47.2947   -8.8994 C   0  0  0  0  0  0  0  0  0  0  0  0
  -19.7957  -45.9797   -9.2518 O   0  0  0  0  0  0  0  0  0  0  0  0
  -19.7481  -44.7343   -8.6577 C   0  0  0  0  0  0  0  0  0  0  0  0
  -18.7114  -44.1299   -7.9539 C   0  0  0  0  0  0  0  0  0  0  0  0
  -18.9225  -42.8722   -7.4583 C   0  0  0  0  0  0  0  0  0  0  0  0
  -20.1754  -42.2278   -7.6728 C   0  0  0  0  0  0  0  0  0  0  0  0
  -21.2091  -42.7967   -8.3611 C   0  0  0  0  0  0  0  0  0  0  0  0
  -20.9756  -44.0526   -8.8470 C   0  0  0  0  0  0  0  0  0  0  0  0
  -22.4829  -42.0967   -8.5608 C   0  0  0  0  0  0  0  0  0  0  0  0
  -23.0178  -41.9168   -9.7802 N   0  0  0  0  0  0  0  0  0  0  0  0
  -24.1546  -41.2583   -9.6208 C   0  0  0  0  0  0  0  0  0  0  0  0
  -24.2844  -41.0492   -8.2660 C   0  0  0  0  0  0  0  0  0  0  0  0
  -23.2555  -41.5687   -7.6516 O   0  0  0  0  0  0  0  0  0  0  0  0
  -18.0582  -41.9704   -6.6744 C   0  0  0  0  0  0  0  0  0  0  0  0
  -18.6013  -41.3098   -5.6622 O   0  0  0  0  0  0  0  0  0  0  0  0
  -16.6904  -41.6334   -6.7732 N   0  0  0  0  0  0  0  0  0  0  0  0
  -20.9048  -38.4327   -9.2379 C   0  0  0  0  0  0  0  0  0  0  0  0
  -22.0672  -39.1740   -9.2303 C   0  0  0  0  0  0  0  0  0  0  0  0
  -22.4960  -39.6758   -8.0310 C   0  0  0  0  0  0  0  0  0  0  0  0
  1  2  1  0
  2  3  1  0
  2  4  1  0
  4  5  2  0
  5  6  1  0
  6  7  1  0
  7  8  1  0
  8  9  1  0
  9 10  1  0
 10 11  1  1
 10 12  1  0
 12 13  1  6
 13 14  1  0
 14 15  1  6
 14 16  1  0
 16 17  1  0
 17 18  1  0
 18 19  1  0
 19 20  1  0
 20 21  1  0
 21 22  1  0
 22 23  1  0
 23 24  1  0
 24 25  2  0
 25 26  1  0
 26 27  2  0
 27 28  1  0
 28 29  2  0
 28 30  1  0
 30 31  2  0
 31 32  1  0
 32 33  2  0
 33 34  1  0
 26 35  1  0
 35 36  2  0
 35 37  1  0
  6 38  2  0
 38 39  1  0
 39 40  2  0
 29 24  1  0
 34 30  1  0
 37 12  1  0
 40  4  1  0
M  END
$$$$
