
     RDKit          3D

 40 43  0  0  0  0  0  0  0  0999 V2000
  -22.4943  -39.6805   -3.7721 C   0  0  0  0  0  0  0  0  0  0  0  0
  -23.2594  -39.6342   -5.0635 C   0  0  0  0  0  0  0  0  0  0  0  0
  -24.0253  -40.9451   -5.2916 C   0  0  0  0  0  0  0  0  0  0  0  0
  -22.4260  -39.3428   -6.2404 C   0  0  0  0  0  0  0  0  0  0  0  0
  -21.0763  -39.0743   -6.1684 C   0  0  0  0  0  0  0  0  0  0  0  0
  -20.3137  -38.8092   -7.2945 C   0  0  0  0  0  0  0  0  0  0  0  0
  -18.8822  -38.5194   -7.2032 C   0  0  0  0  0  0  0  0  0  0  0  0
  -18.0000  -39.3333   -6.5419 N   0  0  0  0  0  0  0  0  0  0  0  0
  -16.7197  -39.7052   -6.8650 C   0  0  0  0  0  0  0  0  0  0  0  0
  -16.3039  -40.1486   -8.1963 C   0  0  1  0  0  0  0  0  0  0  0  0
  -15.3715  -39.3466   -8.7941 O   0  0  0  0  0  0  0  0  0  0  0  0
  -15.7594  -41.5678   -8.2420 C   0  0  2  0  0  0  0  0  0  0  0  0
  -16.0833  -42.2533   -9.5395 C   0  0  0  0  0  0  0  0  0  0  0  0
  -15.0504  -43.3667   -9.7238 C   0  0  2  0  0  0  0  0  0  0  0  0
  -13.6964  -42.7992  -10.0596 C   0  0  0  0  0  0  0  0  0  0  0  0
  -15.5573  -44.2524  -10.8455 C   0  0  0  0  0  0  0  0  0  0  0  0
  -14.6522  -45.4176  -11.0894 C   0  0  0  0  0  0  0  0  0  0  0  0
  -15.2075  -46.7090  -10.5835 C   0  0  0  0  0  0  0  0  0  0  0  0
  -16.5041  -47.0167  -11.2619 C   0  0  0  0  0  0  0  0  0  0  0  0
  -16.8326  -48.4758  -11.0029 C   0  0  0  0  0  0  0  0  0  0  0  0
  -18.3107  -48.5763  -10.7168 C   0  0  0  0  0  0  0  0  0  0  0  0
  -18.6202  -48.1176   -9.3009 C   0  0  0  0  0  0  0  0  0  0  0  0
  -19.0914  -46.8274   -9.3529 O   0  0  0  0  0  0  0  0  0  0  0  0
  -19.0506  -45.6814   -8.5839 C   0  0  0  0  0  0  0  0  0  0  0  0
  -17.9510  -44.9882   -8.0883 C   0  0  0  0  0  0  0  0  0  0  0  0
  -18.1854  -43.8662   -7.3413 C   0  0  0  0  0  0  0  0  0  0  0  0
  -19.5250  -43.4461   -7.0961 C   0  0  0  0  0  0  0  0  0  0  0  0
  -20.6224  -44.1060   -7.5716 C   0  0  0  0  0  0  0  0  0  0  0  0
  -20.3642  -45.2234   -8.3151 C   0  0  0  0  0  0  0  0  0  0  0  0
  -21.9853  -43.6376   -7.2970 C   0  0  0  0  0  0  0  0  0  0  0  0
  -22.8579  -44.3579   -6.5723 N   0  0  0  0  0  0  0  0  0  0  0  0
  -23.9849  -43.6671   -6.5084 C   0  0  0  0  0  0  0  0  0  0  0  0
  -23.7600  -42.5089   -7.2184 C   0  0  0  0  0  0  0  0  0  0  0  0
  -22.5396  -42.5215   -7.6836 O   0  0  0  0  0  0  0  0  0  0  0  0
  -17.2678  -42.9260   -6.6715 C   0  0  0  0  0  0  0  0  0  0  0  0
  -17.5788  -42.5137   -5.4511 O   0  0  0  0  0  0  0  0  0  0  0  0
  -16.0524  -42.3287   -7.0717 N   0  0  0  0  0  0  0  0  0  0  0  0
  -20.9555  -38.8218   -8.5120 C   0  0  0  0  0  0  0  0  0  0  0  0
  -22.3033  -39.0850   -8.6334 C   0  0  0  0  0  0  0  0  0  0  0  0
  -23.0092  -39.3404   -7.4887 C   0  0  0  0  0  0  0  0  0  0  0  0
  1  2  1  0
  2  3  1  0
  2  4  1  0
  4  5  2  0
  5  6  1  0
  6  7  1  0
  7  8  1  0
  8  9  1  0
  9 10  1  0
 10 11  1  1
 10 12  1  0
 12 13  1  6
 13 14  1  0
 14 15  1  6
 14 16  1  0
 16 17  1  0
 17 18  1  0
 18 19  1  0
 19 20  1  0
 20 21  1  0
 21 22  1  0
 22 23  1  0
 23 24  1  0
 24 25  2  0
 25 26  1  0
 26 27  2  0
 27 28  1  0
 28 29  2  0
 28 30  1  0
 30 31  2  0
 31 32  1  0
 32 33  2  0
 33 34  1  0
 26 35  1  0
 35 36  2  0
 35 37  1  0
  6 38  2  0
 38 39  1  0
 39 40  2  0
 29 24  1  0
 34 30  1  0
 37 12  1  0
 40  4  1  0
M  END
$$$$
