
     RDKit          3D

 40 43  0  0  0  0  0  0  0  0999 V2000
  -12.8202  -33.1368  -10.9672 C   0  0  0  0  0  0  0  0  0  0  0  0
  -12.3139  -34.5313  -10.7346 C   0  0  0  0  0  0  0  0  0  0  0  0
  -10.8408  -34.6536  -11.1495 C   0  0  0  0  0  0  0  0  0  0  0  0
  -13.1016  -35.5727  -11.4125 C   0  0  0  0  0  0  0  0  0  0  0  0
  -13.4864  -36.7495  -10.8073 C   0  0  0  0  0  0  0  0  0  0  0  0
  -14.2341  -37.7111  -11.4678 C   0  0  0  0  0  0  0  0  0  0  0  0
  -14.6308  -38.9593  -10.8150 C   0  0  0  0  0  0  0  0  0  0  0  0
  -15.4836  -38.9988   -9.7430 N   0  0  0  0  0  0  0  0  0  0  0  0
  -15.2707  -39.4116   -8.4522 C   0  0  0  0  0  0  0  0  0  0  0  0
  -16.2953  -40.0246   -7.6058 C   0  0  1  0  0  0  0  0  0  0  0  0
  -16.2622  -39.6253   -6.2983 O   0  0  0  0  0  0  0  0  0  0  0  0
  -17.7198  -39.8147   -8.0952 C   0  0  2  0  0  0  0  0  0  0  0  0
  -18.7129  -39.8490   -6.9679 C   0  0  0  0  0  0  0  0  0  0  0  0
  -19.9472  -39.0780   -7.4396 C   0  0  2  0  0  0  0  0  0  0  0  0
  -19.6717  -37.5987   -7.4994 C   0  0  0  0  0  0  0  0  0  0  0  0
  -21.0563  -39.3805   -6.4505 C   0  0  0  0  0  0  0  0  0  0  0  0
  -22.3419  -38.7197   -6.8338 C   0  0  0  0  0  0  0  0  0  0  0  0
  -23.3500  -39.6728   -7.3883 C   0  0  0  0  0  0  0  0  0  0  0  0
  -23.6852  -40.7201   -6.3749 C   0  0  0  0  0  0  0  0  0  0  0  0
  -24.9523  -41.4216   -6.8291 C   0  0  0  0  0  0  0  0  0  0  0  0
  -24.7849  -42.8986   -6.5700 C   0  0  0  0  0  0  0  0  0  0  0  0
  -23.8954  -43.5357   -7.6255 C   0  0  0  0  0  0  0  0  0  0  0  0
  -22.6309  -43.6748   -7.1050 O   0  0  0  0  0  0  0  0  0  0  0  0
  -21.3228  -43.6339   -7.5450 C   0  0  0  0  0  0  0  0  0  0  0  0
  -20.6523  -42.6267   -8.2316 C   0  0  0  0  0  0  0  0  0  0  0  0
  -19.3403  -42.8380   -8.5568 C   0  0  0  0  0  0  0  0  0  0  0  0
  -18.7081  -44.0614   -8.1899 C   0  0  0  0  0  0  0  0  0  0  0  0
  -19.3415  -45.0657   -7.5145 C   0  0  0  0  0  0  0  0  0  0  0  0
  -20.6509  -44.8326   -7.2000 C   0  0  0  0  0  0  0  0  0  0  0  0
  -18.6520  -46.3097   -7.1542 C   0  0  0  0  0  0  0  0  0  0  0  0
  -19.2040  -47.5183   -7.3541 N   0  0  0  0  0  0  0  0  0  0  0  0
  -18.3385  -48.4243   -6.9283 C   0  0  0  0  0  0  0  0  0  0  0  0
  -17.2492  -47.7198   -6.4664 C   0  0  0  0  0  0  0  0  0  0  0  0
  -17.4704  -46.4414   -6.6169 O   0  0  0  0  0  0  0  0  0  0  0  0
  -18.3623  -42.0008   -9.2761 C   0  0  0  0  0  0  0  0  0  0  0  0
  -17.5742  -42.5870  -10.1657 O   0  0  0  0  0  0  0  0  0  0  0  0
  -18.0608  -40.6223   -9.2203 N   0  0  0  0  0  0  0  0  0  0  0  0
  -14.5888  -37.4525  -12.7722 C   0  0  0  0  0  0  0  0  0  0  0  0
  -14.2270  -36.2901  -13.4192 C   0  0  0  0  0  0  0  0  0  0  0  0
  -13.4884  -35.3740  -12.7198 C   0  0  0  0  0  0  0  0  0  0  0  0
  1  2  1  0
  2  3  1  0
  2  4  1  0
  4  5  2  0
  5  6  1  0
  6  7  1  0
  7  8  1  0
  8  9  1  0
  9 10  1  0
 10 11  1  1
 10 12  1  0
 12 13  1  1
 13 14  1  0
 14 15  1  1
 14 16  1  0
 16 17  1  0
 17 18  1  0
 18 19  1  0
 19 20  1  0
 20 21  1  0
 21 22  1  0
 22 23  1  0
 23 24  1  0
 24 25  2  0
 25 26  1  0
 26 27  2  0
 27 28  1  0
 28 29  2  0
 28 30  1  0
 30 31  2  0
 31 32  1  0
 32 33  2  0
 33 34  1  0
 26 35  1  0
 35 36  2  0
 35 37  1  0
  6 38  2  0
 38 39  1  0
 39 40  2  0
 29 24  1  0
 34 30  1  0
 37 12  1  0
 40  4  1  0
M  END
$$$$
