
     RDKit          3D

 40 43  0  0  0  0  0  0  0  0999 V2000
  -16.6539  -34.6294  -11.2898 C   0  0  0  0  0  0  0  0  0  0  0  0
  -15.4088  -35.2594  -11.8447 C   0  0  0  0  0  0  0  0  0  0  0  0
  -15.2167  -34.8814  -13.3203 C   0  0  0  0  0  0  0  0  0  0  0  0
  -15.3679  -36.7234  -11.7049 C   0  0  0  0  0  0  0  0  0  0  0  0
  -14.5749  -37.3776  -10.7871 C   0  0  0  0  0  0  0  0  0  0  0  0
  -14.5607  -38.7584  -10.6727 C   0  0  0  0  0  0  0  0  0  0  0  0
  -13.7090  -39.4406   -9.6977 C   0  0  0  0  0  0  0  0  0  0  0  0
  -14.1964  -40.3409   -8.7866 N   0  0  0  0  0  0  0  0  0  0  0  0
  -15.4805  -40.7637   -8.5539 C   0  0  0  0  0  0  0  0  0  0  0  0
  -16.2219  -40.4995   -7.3201 C   0  0  1  0  0  0  0  0  0  0  0  0
  -15.6655  -39.5402   -6.5200 O   0  0  0  0  0  0  0  0  0  0  0  0
  -17.6752  -40.1064   -7.5347 C   0  0  2  0  0  0  0  0  0  0  0  0
  -18.5020  -40.3099   -6.2964 C   0  0  0  0  0  0  0  0  0  0  0  0
  -19.7141  -39.3840   -6.4144 C   0  0  2  0  0  0  0  0  0  0  0  0
  -19.3157  -37.9436   -6.2283 C   0  0  0  0  0  0  0  0  0  0  0  0
  -20.6988  -39.8138   -5.3441 C   0  0  0  0  0  0  0  0  0  0  0  0
  -21.9593  -39.0106   -5.3900 C   0  0  0  0  0  0  0  0  0  0  0  0
  -23.1170  -39.7659   -5.9568 C   0  0  0  0  0  0  0  0  0  0  0  0
  -23.4030  -40.9760   -5.1261 C   0  0  0  0  0  0  0  0  0  0  0  0
  -24.7794  -41.4901   -5.5072 C   0  0  0  0  0  0  0  0  0  0  0  0
  -24.7132  -42.9963   -5.5679 C   0  0  0  0  0  0  0  0  0  0  0  0
  -24.0400  -43.4571   -6.8507 C   0  0  0  0  0  0  0  0  0  0  0  0
  -22.7336  -43.7775   -6.5676 O   0  0  0  0  0  0  0  0  0  0  0  0
  -21.5007  -43.7280   -7.1871 C   0  0  0  0  0  0  0  0  0  0  0  0
  -20.8426  -42.6447   -7.7605 C   0  0  0  0  0  0  0  0  0  0  0  0
  -19.6129  -42.8653   -8.3182 C   0  0  0  0  0  0  0  0  0  0  0  0
  -19.0503  -44.1745   -8.2967 C   0  0  0  0  0  0  0  0  0  0  0  0
  -19.6731  -45.2550   -7.7393 C   0  0  0  0  0  0  0  0  0  0  0  0
  -20.8998  -45.0110   -7.1882 C   0  0  0  0  0  0  0  0  0  0  0  0
  -19.0568  -46.5864   -7.7370 C   0  0  0  0  0  0  0  0  0  0  0  0
  -17.7952  -46.7909   -7.3226 N   0  0  0  0  0  0  0  0  0  0  0  0
  -17.5434  -48.0845   -7.4433 C   0  0  0  0  0  0  0  0  0  0  0  0
  -18.6952  -48.6494   -7.9437 C   0  0  0  0  0  0  0  0  0  0  0  0
  -19.5930  -47.7156   -8.1110 O   0  0  0  0  0  0  0  0  0  0  0  0
  -18.6715  -41.9603   -9.0034 C   0  0  0  0  0  0  0  0  0  0  0  0
  -18.0707  -42.3992  -10.1000 O   0  0  0  0  0  0  0  0  0  0  0  0
  -18.2407  -40.6438   -8.7288 N   0  0  0  0  0  0  0  0  0  0  0  0
  -15.3777  -39.4729  -11.5190 C   0  0  0  0  0  0  0  0  0  0  0  0
  -16.1879  -38.8627  -12.4527 C   0  0  0  0  0  0  0  0  0  0  0  0
  -16.1630  -37.4958  -12.5232 C   0  0  0  0  0  0  0  0  0  0  0  0
  1  2  1  0
  2  3  1  0
  2  4  1  0
  4  5  2  0
  5  6  1  0
  6  7  1  0
  7  8  1  0
  8  9  1  0
  9 10  1  0
 10 11  1  6
 10 12  1  0
 12 13  1  1
 13 14  1  0
 14 15  1  1
 14 16  1  0
 16 17  1  0
 17 18  1  0
 18 19  1  0
 19 20  1  0
 20 21  1  0
 21 22  1  0
 22 23  1  0
 23 24  1  0
 24 25  2  0
 25 26  1  0
 26 27  2  0
 27 28  1  0
 28 29  2  0
 28 30  1  0
 30 31  2  0
 31 32  1  0
 32 33  2  0
 33 34  1  0
 26 35  1  0
 35 36  2  0
 35 37  1  0
  6 38  2  0
 38 39  1  0
 39 40  2  0
 29 24  1  0
 34 30  1  0
 37 12  1  0
 40  4  1  0
M  END
$$$$
