
     RDKit          3D

 40 43  0  0  0  0  0  0  0  0999 V2000
  -12.3620  -34.5439  -13.8558 C   0  0  0  0  0  0  0  0  0  0  0  0
  -12.2889  -34.8313  -12.3837 C   0  0  0  0  0  0  0  0  0  0  0  0
  -10.8613  -35.2195  -11.9735 C   0  0  0  0  0  0  0  0  0  0  0  0
  -13.2278  -35.8697  -11.9313 C   0  0  0  0  0  0  0  0  0  0  0  0
  -12.9531  -36.7484  -10.9058 C   0  0  0  0  0  0  0  0  0  0  0  0
  -13.8591  -37.7133  -10.4958 C   0  0  0  0  0  0  0  0  0  0  0  0
  -13.5520  -38.6442   -9.4092 C   0  0  0  0  0  0  0  0  0  0  0  0
  -14.4036  -39.6479   -9.0278 N   0  0  0  0  0  0  0  0  0  0  0  0
  -15.7599  -39.6332   -8.8226 C   0  0  0  0  0  0  0  0  0  0  0  0
  -16.3916  -39.6445   -7.5025 C   0  0  1  0  0  0  0  0  0  0  0  0
  -15.9735  -38.6461   -6.6667 O   0  0  0  0  0  0  0  0  0  0  0  0
  -17.9108  -39.5857   -7.5346 C   0  0  2  0  0  0  0  0  0  0  0  0
  -18.5260  -40.2768   -6.3506 C   0  0  0  0  0  0  0  0  0  0  0  0
  -19.9226  -39.6808   -6.1643 C   0  0  2  0  0  0  0  0  0  0  0  0
  -19.8446  -38.2736   -5.6335 C   0  0  0  0  0  0  0  0  0  0  0  0
  -20.6577  -40.5838   -5.1927 C   0  0  0  0  0  0  0  0  0  0  0  0
  -22.0651  -40.1321   -4.9661 C   0  0  0  0  0  0  0  0  0  0  0  0
  -23.0761  -40.9941   -5.6493 C   0  0  0  0  0  0  0  0  0  0  0  0
  -22.9844  -42.3991   -5.1454 C   0  0  0  0  0  0  0  0  0  0  0  0
  -24.2412  -43.1333   -5.5761 C   0  0  0  0  0  0  0  0  0  0  0  0
  -23.8407  -44.5166   -6.0264 C   0  0  0  0  0  0  0  0  0  0  0  0
  -23.2277  -44.4767   -7.4170 C   0  0  0  0  0  0  0  0  0  0  0  0
  -21.8595  -44.5201   -7.2926 O   0  0  0  0  0  0  0  0  0  0  0  0
  -20.7473  -44.0197   -7.9399 C   0  0  0  0  0  0  0  0  0  0  0  0
  -20.4215  -42.7025   -8.2470 C   0  0  0  0  0  0  0  0  0  0  0  0
  -19.2440  -42.4712   -8.9042 C   0  0  0  0  0  0  0  0  0  0  0  0
  -18.3991  -43.5657   -9.2496 C   0  0  0  0  0  0  0  0  0  0  0  0
  -18.6932  -44.8677   -8.9589 C   0  0  0  0  0  0  0  0  0  0  0  0
  -19.8739  -45.0747   -8.3022 C   0  0  0  0  0  0  0  0  0  0  0  0
  -17.7935  -45.9651   -9.3313 C   0  0  0  0  0  0  0  0  0  0  0  0
  -18.1343  -46.8933  -10.2410 N   0  0  0  0  0  0  0  0  0  0  0  0
  -17.1177  -47.7336  -10.3494 C   0  0  0  0  0  0  0  0  0  0  0  0
  -16.1559  -47.2793   -9.4749 C   0  0  0  0  0  0  0  0  0  0  0  0
  -16.5959  -46.2067   -8.8733 O   0  0  0  0  0  0  0  0  0  0  0  0
  -18.6161  -41.2245   -9.3795 C   0  0  0  0  0  0  0  0  0  0  0  0
  -18.0573  -41.2263  -10.5811 O   0  0  0  0  0  0  0  0  0  0  0  0
  -18.4686  -39.9466   -8.7968 N   0  0  0  0  0  0  0  0  0  0  0  0
  -15.0658  -37.7707  -11.1551 C   0  0  0  0  0  0  0  0  0  0  0  0
  -15.3851  -36.9133  -12.1864 C   0  0  0  0  0  0  0  0  0  0  0  0
  -14.4535  -35.9790  -12.5512 C   0  0  0  0  0  0  0  0  0  0  0  0
  1  2  1  0
  2  3  1  0
  2  4  1  0
  4  5  2  0
  5  6  1  0
  6  7  1  0
  7  8  1  0
  8  9  1  0
  9 10  1  0
 10 11  1  1
 10 12  1  0
 12 13  1  1
 13 14  1  0
 14 15  1  1
 14 16  1  0
 16 17  1  0
 17 18  1  0
 18 19  1  0
 19 20  1  0
 20 21  1  0
 21 22  1  0
 22 23  1  0
 23 24  1  0
 24 25  2  0
 25 26  1  0
 26 27  2  0
 27 28  1  0
 28 29  2  0
 28 30  1  0
 30 31  2  0
 31 32  1  0
 32 33  2  0
 33 34  1  0
 26 35  1  0
 35 36  2  0
 35 37  1  0
  6 38  2  0
 38 39  1  0
 39 40  2  0
 29 24  1  0
 34 30  1  0
 37 12  1  0
 40  4  1  0
M  END
$$$$
