
     RDKit          3D

 40 43  0  0  0  0  0  0  0  0999 V2000
  -23.5717  -38.1303   -3.9581 C   0  0  0  0  0  0  0  0  0  0  0  0
  -23.1813  -39.4075   -4.6447 C   0  0  0  0  0  0  0  0  0  0  0  0
  -22.0732  -40.1297   -3.8653 C   0  0  0  0  0  0  0  0  0  0  0  0
  -22.7596  -39.2283   -6.0428 C   0  0  0  0  0  0  0  0  0  0  0  0
  -21.4779  -38.8815   -6.4117 C   0  0  0  0  0  0  0  0  0  0  0  0
  -21.1063  -38.7255   -7.7374 C   0  0  0  0  0  0  0  0  0  0  0  0
  -19.7430  -38.3508   -8.1150 C   0  0  0  0  0  0  0  0  0  0  0  0
  -18.9979  -39.0668   -9.0151 N   0  0  0  0  0  0  0  0  0  0  0  0
  -17.7964  -39.7107   -8.8619 C   0  0  0  0  0  0  0  0  0  0  0  0
  -16.6547  -39.1578   -8.1320 C   0  0  1  0  0  0  0  0  0  0  0  0
  -16.7377  -39.2833   -6.7728 O   0  0  0  0  0  0  0  0  0  0  0  0
  -15.3088  -39.7316   -8.5466 C   0  0  2  0  0  0  0  0  0  0  0  0
  -15.2336  -39.9768  -10.0273 C   0  0  0  0  0  0  0  0  0  0  0  0
  -13.7507  -39.9752  -10.4032 C   0  0  2  0  0  0  0  0  0  0  0  0
  -13.1772  -38.5842  -10.3397 C   0  0  0  0  0  0  0  0  0  0  0  0
  -13.6552  -40.5343  -11.8097 C   0  0  0  0  0  0  0  0  0  0  0  0
  -12.2380  -40.6327  -12.2765 C   0  0  0  0  0  0  0  0  0  0  0  0
  -11.7212  -42.0343  -12.2943 C   0  0  0  0  0  0  0  0  0  0  0  0
  -12.5420  -42.8776  -13.2170 C   0  0  0  0  0  0  0  0  0  0  0  0
  -11.7745  -44.1592  -13.4862 C   0  0  0  0  0  0  0  0  0  0  0  0
  -12.7578  -45.3034  -13.4659 C   0  0  0  0  0  0  0  0  0  0  0  0
  -13.1316  -45.6704  -12.0387 C   0  0  0  0  0  0  0  0  0  0  0  0
  -14.3483  -45.1019  -11.7460 O   0  0  0  0  0  0  0  0  0  0  0  0
  -15.0000  -44.5616  -10.6553 C   0  0  0  0  0  0  0  0  0  0  0  0
  -14.6029  -43.5304   -9.8101 C   0  0  0  0  0  0  0  0  0  0  0  0
  -15.4426  -43.1818   -8.7877 C   0  0  0  0  0  0  0  0  0  0  0  0
  -16.6783  -43.8716   -8.6200 C   0  0  0  0  0  0  0  0  0  0  0  0
  -17.0937  -44.8857   -9.4355 C   0  0  0  0  0  0  0  0  0  0  0  0
  -16.2393  -45.2166  -10.4496 C   0  0  0  0  0  0  0  0  0  0  0  0
  -18.3757  -45.5685   -9.2283 C   0  0  0  0  0  0  0  0  0  0  0  0
  -19.1962  -45.8760  -10.2468 N   0  0  0  0  0  0  0  0  0  0  0  0
  -20.2563  -46.4792   -9.7332 C   0  0  0  0  0  0  0  0  0  0  0  0
  -20.0448  -46.5236   -8.3732 C   0  0  0  0  0  0  0  0  0  0  0  0
  -18.8971  -45.9636   -8.0994 O   0  0  0  0  0  0  0  0  0  0  0  0
  -15.3248  -42.1637   -7.7274 C   0  0  0  0  0  0  0  0  0  0  0  0
  -15.6908  -42.4980   -6.4984 O   0  0  0  0  0  0  0  0  0  0  0  0
  -14.8802  -40.8234   -7.7350 N   0  0  0  0  0  0  0  0  0  0  0  0
  -22.0732  -38.9307   -8.6950 C   0  0  0  0  0  0  0  0  0  0  0  0
  -23.3681  -39.2786   -8.3742 C   0  0  0  0  0  0  0  0  0  0  0  0
  -23.6812  -39.4196   -7.0490 C   0  0  0  0  0  0  0  0  0  0  0  0
  1  2  1  0
  2  3  1  0
  2  4  1  0
  4  5  2  0
  5  6  1  0
  6  7  1  0
  7  8  1  0
  8  9  1  0
  9 10  1  0
 10 11  1  1
 10 12  1  0
 12 13  1  6
 13 14  1  0
 14 15  1  6
 14 16  1  0
 16 17  1  0
 17 18  1  0
 18 19  1  0
 19 20  1  0
 20 21  1  0
 21 22  1  0
 22 23  1  0
 23 24  1  0
 24 25  2  0
 25 26  1  0
 26 27  2  0
 27 28  1  0
 28 29  2  0
 28 30  1  0
 30 31  2  0
 31 32  1  0
 32 33  2  0
 33 34  1  0
 26 35  1  0
 35 36  2  0
 35 37  1  0
  6 38  2  0
 38 39  1  0
 39 40  2  0
 29 24  1  0
 34 30  1  0
 37 12  1  0
 40  4  1  0
M  END
$$$$
