
     RDKit          3D

 40 43  0  0  0  0  0  0  0  0999 V2000
  -19.1442  -36.8628  -11.7017 C   0  0  0  0  0  0  0  0  0  0  0  0
  -18.0709  -36.2710  -12.5694 C   0  0  0  0  0  0  0  0  0  0  0  0
  -18.0012  -36.9946  -13.9216 C   0  0  0  0  0  0  0  0  0  0  0  0
  -16.7374  -36.2649  -11.9480 C   0  0  0  0  0  0  0  0  0  0  0  0
  -16.1801  -37.3652  -11.3333 C   0  0  0  0  0  0  0  0  0  0  0  0
  -14.9185  -37.3331  -10.7612 C   0  0  0  0  0  0  0  0  0  0  0  0
  -14.3411  -38.5074  -10.1060 C   0  0  0  0  0  0  0  0  0  0  0  0
  -14.2360  -38.6220   -8.7444 N   0  0  0  0  0  0  0  0  0  0  0  0
  -15.2014  -38.5741   -7.7710 C   0  0  0  0  0  0  0  0  0  0  0  0
  -16.0671  -39.6993   -7.4159 C   0  0  1  0  0  0  0  0  0  0  0  0
  -15.8002  -40.2554   -6.1954 O   0  0  0  0  0  0  0  0  0  0  0  0
  -17.5533  -39.3775   -7.4385 C   0  0  2  0  0  0  0  0  0  0  0  0
  -18.2695  -39.9422   -6.2442 C   0  0  0  0  0  0  0  0  0  0  0  0
  -19.5398  -39.1111   -6.0540 C   0  0  2  0  0  0  0  0  0  0  0  0
  -19.2142  -37.7349   -5.5362 C   0  0  0  0  0  0  0  0  0  0  0  0
  -20.4127  -39.8652   -5.0695 C   0  0  0  0  0  0  0  0  0  0  0  0
  -21.7183  -39.1740   -4.8375 C   0  0  0  0  0  0  0  0  0  0  0  0
  -22.8692  -39.8524   -5.5062 C   0  0  0  0  0  0  0  0  0  0  0  0
  -23.0189  -41.2481   -4.9904 C   0  0  0  0  0  0  0  0  0  0  0  0
  -24.3876  -41.7559   -5.4062 C   0  0  0  0  0  0  0  0  0  0  0  0
  -24.2372  -43.1911   -5.8468 C   0  0  0  0  0  0  0  0  0  0  0  0
  -23.6379  -43.2690   -7.2417 C   0  0  0  0  0  0  0  0  0  0  0  0
  -22.2971  -43.5486   -7.1260 O   0  0  0  0  0  0  0  0  0  0  0  0
  -21.1202  -43.2541   -7.7852 C   0  0  0  0  0  0  0  0  0  0  0  0
  -20.5730  -42.0160   -8.1062 C   0  0  0  0  0  0  0  0  0  0  0  0
  -19.3786  -41.9979   -8.7733 C   0  0  0  0  0  0  0  0  0  0  0  0
  -18.7396  -43.2252   -9.1145 C   0  0  0  0  0  0  0  0  0  0  0  0
  -19.2530  -44.4539   -8.8103 C   0  0  0  0  0  0  0  0  0  0  0  0
  -20.4463  -44.4476   -8.1439 C   0  0  0  0  0  0  0  0  0  0  0  0
  -18.5607  -45.6938   -9.1788 C   0  0  0  0  0  0  0  0  0  0  0  0
  -17.2326  -45.8414   -9.0386 N   0  0  0  0  0  0  0  0  0  0  0  0
  -16.9233  -47.0589   -9.4550 C   0  0  0  0  0  0  0  0  0  0  0  0
  -18.1092  -47.6369   -9.8496 C   0  0  0  0  0  0  0  0  0  0  0  0
  -19.0822  -46.7843   -9.6700 O   0  0  0  0  0  0  0  0  0  0  0  0
  -18.5475  -40.8829   -9.2639 C   0  0  0  0  0  0  0  0  0  0  0  0
  -18.0073  -40.9909  -10.4691 O   0  0  0  0  0  0  0  0  0  0  0  0
  -18.1755  -39.6457   -8.6936 N   0  0  0  0  0  0  0  0  0  0  0  0
  -14.2234  -36.1470  -10.8253 C   0  0  0  0  0  0  0  0  0  0  0  0
  -14.7397  -35.0205  -11.4295 C   0  0  0  0  0  0  0  0  0  0  0  0
  -15.9906  -35.1074  -11.9788 C   0  0  0  0  0  0  0  0  0  0  0  0
  1  2  1  0
  2  3  1  0
  2  4  1  0
  4  5  2  0
  5  6  1  0
  6  7  1  0
  7  8  1  0
  8  9  1  0
  9 10  1  0
 10 11  1  1
 10 12  1  0
 12 13  1  1
 13 14  1  0
 14 15  1  1
 14 16  1  0
 16 17  1  0
 17 18  1  0
 18 19  1  0
 19 20  1  0
 20 21  1  0
 21 22  1  0
 22 23  1  0
 23 24  1  0
 24 25  2  0
 25 26  1  0
 26 27  2  0
 27 28  1  0
 28 29  2  0
 28 30  1  0
 30 31  2  0
 31 32  1  0
 32 33  2  0
 33 34  1  0
 26 35  1  0
 35 36  2  0
 35 37  1  0
  6 38  2  0
 38 39  1  0
 39 40  2  0
 29 24  1  0
 34 30  1  0
 37 12  1  0
 40  4  1  0
M  END
$$$$
