
     RDKit          3D

 40 43  0  0  0  0  0  0  0  0999 V2000
  -13.4931  -34.7684  -13.3498 C   0  0  0  0  0  0  0  0  0  0  0  0
  -12.8687  -35.5915  -12.2601 C   0  0  0  0  0  0  0  0  0  0  0  0
  -11.3484  -35.3810  -12.2198 C   0  0  0  0  0  0  0  0  0  0  0  0
  -13.1614  -37.0301  -12.3570 C   0  0  0  0  0  0  0  0  0  0  0  0
  -13.2745  -37.8583  -11.2614 C   0  0  0  0  0  0  0  0  0  0  0  0
  -13.5574  -39.2094  -11.3815 C   0  0  0  0  0  0  0  0  0  0  0  0
  -13.6687  -40.0790  -10.2097 C   0  0  0  0  0  0  0  0  0  0  0  0
  -14.8238  -40.2017   -9.4825 N   0  0  0  0  0  0  0  0  0  0  0  0
  -15.3687  -39.3752   -8.5329 C   0  0  0  0  0  0  0  0  0  0  0  0
  -16.2355  -39.8317   -7.4456 C   0  0  1  0  0  0  0  0  0  0  0  0
  -15.9876  -39.2400   -6.2380 O   0  0  0  0  0  0  0  0  0  0  0  0
  -17.7225  -39.6687   -7.7197 C   0  0  2  0  0  0  0  0  0  0  0  0
  -18.5498  -39.8899   -6.4849 C   0  0  0  0  0  0  0  0  0  0  0  0
  -19.8762  -39.1592   -6.7020 C   0  0  2  0  0  0  0  0  0  0  0  0
  -19.6909  -37.6665   -6.6279 C   0  0  0  0  0  0  0  0  0  0  0  0
  -20.8228  -39.6396   -5.6189 C   0  0  0  0  0  0  0  0  0  0  0  0
  -22.1820  -39.0311   -5.7550 C   0  0  0  0  0  0  0  0  0  0  0  0
  -23.2037  -39.9866   -6.2796 C   0  0  0  0  0  0  0  0  0  0  0  0
  -23.3415  -41.1558   -5.3575 C   0  0  0  0  0  0  0  0  0  0  0  0
  -24.6193  -41.8900   -5.7211 C   0  0  0  0  0  0  0  0  0  0  0  0
  -24.3395  -43.3712   -5.6559 C   0  0  0  0  0  0  0  0  0  0  0  0
  -23.5690  -43.8308   -6.8832 C   0  0  0  0  0  0  0  0  0  0  0  0
  -22.2398  -43.9377   -6.5497 O   0  0  0  0  0  0  0  0  0  0  0  0
  -21.0078  -43.7614   -7.1475 C   0  0  0  0  0  0  0  0  0  0  0  0
  -20.4917  -42.6438   -7.7957 C   0  0  0  0  0  0  0  0  0  0  0  0
  -19.2267  -42.7296   -8.3097 C   0  0  0  0  0  0  0  0  0  0  0  0
  -18.4860  -43.9390   -8.1694 C   0  0  0  0  0  0  0  0  0  0  0  0
  -18.9670  -45.0500   -7.5368 C   0  0  0  0  0  0  0  0  0  0  0  0
  -20.2322  -44.9413   -7.0312 C   0  0  0  0  0  0  0  0  0  0  0  0
  -18.1695  -46.2752   -7.4128 C   0  0  0  0  0  0  0  0  0  0  0  0
  -16.8315  -46.2497   -7.2922 N   0  0  0  0  0  0  0  0  0  0  0  0
  -16.4181  -47.5036   -7.2018 C   0  0  0  0  0  0  0  0  0  0  0  0
  -17.5517  -48.2822   -7.2720 C   0  0  0  0  0  0  0  0  0  0  0  0
  -18.5959  -47.5082   -7.3999 O   0  0  0  0  0  0  0  0  0  0  0  0
  -18.4018  -41.7562   -9.0491 C   0  0  0  0  0  0  0  0  0  0  0  0
  -17.7118  -42.1899  -10.0941 O   0  0  0  0  0  0  0  0  0  0  0  0
  -18.1696  -40.3741   -8.8759 N   0  0  0  0  0  0  0  0  0  0  0  0
  -13.7255  -39.7113  -12.6519 C   0  0  0  0  0  0  0  0  0  0  0  0
  -13.6217  -38.9219  -13.7773 C   0  0  0  0  0  0  0  0  0  0  0  0
  -13.3406  -37.5937  -13.6014 C   0  0  0  0  0  0  0  0  0  0  0  0
  1  2  1  0
  2  3  1  0
  2  4  1  0
  4  5  2  0
  5  6  1  0
  6  7  1  0
  7  8  1  0
  8  9  1  0
  9 10  1  0
 10 11  1  1
 10 12  1  0
 12 13  1  1
 13 14  1  0
 14 15  1  1
 14 16  1  0
 16 17  1  0
 17 18  1  0
 18 19  1  0
 19 20  1  0
 20 21  1  0
 21 22  1  0
 22 23  1  0
 23 24  1  0
 24 25  2  0
 25 26  1  0
 26 27  2  0
 27 28  1  0
 28 29  2  0
 28 30  1  0
 30 31  2  0
 31 32  1  0
 32 33  2  0
 33 34  1  0
 26 35  1  0
 35 36  2  0
 35 37  1  0
  6 38  2  0
 38 39  1  0
 39 40  2  0
 29 24  1  0
 34 30  1  0
 37 12  1  0
 40  4  1  0
M  END
$$$$
