
     RDKit          3D

 40 43  0  0  0  0  0  0  0  0999 V2000
  -20.1877  -37.3120  -11.1379 C   0  0  0  0  0  0  0  0  0  0  0  0
  -20.2411  -37.7812  -12.4320 O   0  0  0  0  0  0  0  0  0  0  0  0
  -20.5093  -39.1541  -12.4927 C   0  0  0  0  0  0  0  0  0  0  0  0
  -19.2429  -39.8689  -12.1835 C   0  0  0  0  0  0  0  0  0  0  0  0
  -18.1987  -39.9419  -13.0533 C   0  0  0  0  0  0  0  0  0  0  0  0
  -16.9760  -40.6227  -12.7773 C   0  0  0  0  0  0  0  0  0  0  0  0
  -16.8238  -41.2533  -11.5551 C   0  0  0  0  0  0  0  0  0  0  0  0
  -17.8693  -41.1959  -10.6450 C   0  0  0  0  0  0  0  0  0  0  0  0
  -19.0633  -40.5009  -10.9834 C   0  0  0  0  0  0  0  0  0  0  0  0
  -18.0067  -41.7314   -9.2736 C   0  0  0  0  0  0  0  0  0  0  0  0
  -19.1593  -42.3176   -9.0306 O   0  0  0  0  0  0  0  0  0  0  0  0
  -17.0918  -41.7103   -8.1761 N   0  0  0  0  0  0  0  0  0  0  0  0
  -16.1948  -40.6484   -7.8498 C   0  0  1  0  0  0  0  0  0  0  0  0
  -15.0093  -40.5744   -8.8175 C   0  0  0  0  0  0  0  0  0  0  0  0
  -13.7591  -40.1585   -8.1812 C   0  0  0  0  0  0  0  0  0  0  0  0
  -13.5315  -40.3686   -6.7242 C   0  0  0  0  0  0  0  0  0  0  0  0
  -12.8287  -39.5941   -8.9288 C   0  0  0  0  0  0  0  0  0  0  0  0
  -12.8734  -39.3153  -10.3588 C   0  0  0  0  0  0  0  0  0  0  0  0
  -12.0738  -40.1621  -11.1271 O   0  0  0  0  0  0  0  0  0  0  0  0
  -12.3315  -39.9709  -12.5044 C   0  0  0  0  0  0  0  0  0  0  0  0
  -13.6444  -40.6418  -12.8441 C   0  0  0  0  0  0  0  0  0  0  0  0
  -13.7724  -41.1027  -14.2546 C   0  0  0  0  0  0  0  0  0  0  0  0
  -15.2095  -41.3955  -14.5650 C   0  0  0  0  0  0  0  0  0  0  0  0
  -16.1070  -40.4732  -13.8974 N   0  0  0  0  0  0  0  0  0  0  0  0
  -16.8365  -39.2794   -7.8395 C   0  0  2  0  0  0  0  0  0  0  0  0
  -16.2851  -38.4420   -6.9006 O   0  0  0  0  0  0  0  0  0  0  0  0
  -18.3209  -39.4449   -7.5564 C   0  0  0  0  0  0  0  0  0  0  0  0
  -18.8580  -38.2012   -7.1006 N   0  0  0  0  0  0  0  0  0  0  0  0
  -20.2782  -38.2690   -6.8173 C   0  0  0  0  0  0  0  0  0  0  0  0
  -21.1475  -37.7207   -7.9928 C   0  0  0  0  0  0  0  0  0  0  0  0
  -21.0577  -37.0326   -6.6633 C   0  0  0  0  0  0  0  0  0  0  0  0
  -20.7693  -39.5732   -6.3082 C   0  0  0  0  0  0  0  0  0  0  0  0
  -22.0502  -40.0007   -6.5570 C   0  0  0  0  0  0  0  0  0  0  0  0
  -22.5310  -41.2147   -6.0945 C   0  0  0  0  0  0  0  0  0  0  0  0
  -21.6674  -41.9977   -5.3611 C   0  0  0  0  0  0  0  0  0  0  0  0
  -20.3731  -41.6089   -5.0866 C   0  0  0  0  0  0  0  0  0  0  0  0
  -19.9259  -40.3758   -5.5720 C   0  0  0  0  0  0  0  0  0  0  0  0
  -23.9119  -41.6966   -6.3518 C   0  0  0  0  0  0  0  0  0  0  0  0
  -24.6792  -41.7891   -5.0336 C   0  0  0  0  0  0  0  0  0  0  0  0
  -23.8735  -43.0947   -6.9386 C   0  0  0  0  0  0  0  0  0  0  0  0
  1  2  1  0
  2  3  1  0
  3  4  1  0
  4  5  2  0
  5  6  1  0
  6  7  2  0
  7  8  1  0
  8  9  2  0
  8 10  1  0
 10 11  2  0
 10 12  1  0
 12 13  1  0
 13 14  1  6
 14 15  1  0
 15 16  1  0
 15 17  2  0
 17 18  1  0
 18 19  1  0
 19 20  1  0
 20 21  1  0
 21 22  1  0
 22 23  1  0
 23 24  1  0
 13 25  1  0
 25 26  1  1
 25 27  1  0
 27 28  1  0
 28 29  1  0
 29 30  1  0
 30 31  1  0
 29 32  1  0
 32 33  2  0
 33 34  1  0
 34 35  2  0
 35 36  1  0
 36 37  2  0
 34 38  1  0
 38 39  1  0
 38 40  1  0
  9  4  1  0
 24  6  1  0
 31 29  1  0
 37 32  1  0
M  END
$$$$
