
     RDKit          3D

 40 43  0  0  0  0  0  0  0  0999 V2000
  -19.3988  -34.3988  -11.6563 C   0  0  0  0  0  0  0  0  0  0  0  0
  -19.8636  -34.4669  -10.3614 O   0  0  0  0  0  0  0  0  0  0  0  0
  -18.8951  -34.9435   -9.4696 C   0  0  0  0  0  0  0  0  0  0  0  0
  -17.9854  -35.8357  -10.2359 C   0  0  0  0  0  0  0  0  0  0  0  0
  -16.9664  -35.3716  -11.0094 C   0  0  0  0  0  0  0  0  0  0  0  0
  -16.0832  -36.2094  -11.7529 C   0  0  0  0  0  0  0  0  0  0  0  0
  -16.2576  -37.5809  -11.6962 C   0  0  0  0  0  0  0  0  0  0  0  0
  -17.2865  -38.0863  -10.9148 C   0  0  0  0  0  0  0  0  0  0  0  0
  -18.1331  -37.1954  -10.1987 C   0  0  0  0  0  0  0  0  0  0  0  0
  -17.7103  -39.4737  -10.6284 C   0  0  0  0  0  0  0  0  0  0  0  0
  -19.0102  -39.6688  -10.6843 O   0  0  0  0  0  0  0  0  0  0  0  0
  -16.9356  -40.6285  -10.2995 N   0  0  0  0  0  0  0  0  0  0  0  0
  -15.7540  -40.6477   -9.4981 C   0  0  1  0  0  0  0  0  0  0  0  0
  -14.5440  -40.0673  -10.2373 C   0  0  0  0  0  0  0  0  0  0  0  0
  -13.2820  -40.7286   -9.9042 C   0  0  0  0  0  0  0  0  0  0  0  0
  -13.2583  -42.1312   -9.4033 C   0  0  0  0  0  0  0  0  0  0  0  0
  -12.1570  -40.0558  -10.0619 C   0  0  0  0  0  0  0  0  0  0  0  0
  -11.9882  -38.6896  -10.5410 C   0  0  0  0  0  0  0  0  0  0  0  0
  -11.4748  -38.6017  -11.8354 O   0  0  0  0  0  0  0  0  0  0  0  0
  -11.5396  -37.2690  -12.3039 C   0  0  0  0  0  0  0  0  0  0  0  0
  -12.9724  -36.9624  -12.6807 C   0  0  0  0  0  0  0  0  0  0  0  0
  -13.1403  -35.9254  -13.7366 C   0  0  0  0  0  0  0  0  0  0  0  0
  -14.5600  -35.4441  -13.7548 C   0  0  0  0  0  0  0  0  0  0  0  0
  -15.1304  -35.3877  -12.4231 N   0  0  0  0  0  0  0  0  0  0  0  0
  -15.8777  -39.8867   -8.1975 C   0  0  2  0  0  0  0  0  0  0  0  0
  -14.8850  -40.2018   -7.3019 O   0  0  0  0  0  0  0  0  0  0  0  0
  -17.2308  -40.2029   -7.5808 C   0  0  0  0  0  0  0  0  0  0  0  0
  -17.3834  -41.6200   -7.4742 N   0  0  0  0  0  0  0  0  0  0  0  0
  -18.7305  -42.0178   -7.1149 C   0  0  0  0  0  0  0  0  0  0  0  0
  -18.8322  -42.5120   -5.6373 C   0  0  0  0  0  0  0  0  0  0  0  0
  -19.0260  -43.4250   -6.8111 C   0  0  0  0  0  0  0  0  0  0  0  0
  -19.7999  -41.0508   -7.4651 C   0  0  0  0  0  0  0  0  0  0  0  0
  -20.4303  -40.3028   -6.5016 C   0  0  0  0  0  0  0  0  0  0  0  0
  -21.4296  -39.3924   -6.8037 C   0  0  0  0  0  0  0  0  0  0  0  0
  -21.7804  -39.2565   -8.1286 C   0  0  0  0  0  0  0  0  0  0  0  0
  -21.1749  -39.9867   -9.1296 C   0  0  0  0  0  0  0  0  0  0  0  0
  -20.1700  -40.8955   -8.7829 C   0  0  0  0  0  0  0  0  0  0  0  0
  -22.1242  -38.5733   -5.7781 C   0  0  0  0  0  0  0  0  0  0  0  0
  -23.5776  -38.3506   -6.1945 C   0  0  0  0  0  0  0  0  0  0  0  0
  -21.4785  -37.2043   -5.6816 C   0  0  0  0  0  0  0  0  0  0  0  0
  1  2  1  0
  2  3  1  0
  3  4  1  0
  4  5  2  0
  5  6  1  0
  6  7  2  0
  7  8  1  0
  8  9  2  0
  8 10  1  0
 10 11  2  0
 10 12  1  0
 12 13  1  0
 13 14  1  6
 14 15  1  0
 15 16  1  0
 15 17  2  0
 17 18  1  0
 18 19  1  0
 19 20  1  0
 20 21  1  0
 21 22  1  0
 22 23  1  0
 23 24  1  0
 13 25  1  0
 25 26  1  1
 25 27  1  0
 27 28  1  0
 28 29  1  0
 29 30  1  0
 30 31  1  0
 29 32  1  0
 32 33  2  0
 33 34  1  0
 34 35  2  0
 35 36  1  0
 36 37  2  0
 34 38  1  0
 38 39  1  0
 38 40  1  0
  9  4  1  0
 24  6  1  0
 31 29  1  0
 37 32  1  0
M  END
$$$$
