
     RDKit          3D

 40 43  0  0  0  0  0  0  0  0999 V2000
  -10.2166  -44.4993   -9.8706 C   0  0  0  0  0  0  0  0  0  0  0  0
  -10.9350  -43.6650   -9.0427 O   0  0  0  0  0  0  0  0  0  0  0  0
  -12.2086  -43.3767   -9.5480 C   0  0  0  0  0  0  0  0  0  0  0  0
  -12.2833  -41.9060   -9.7531 C   0  0  0  0  0  0  0  0  0  0  0  0
  -11.7924  -41.2836  -10.8594 C   0  0  0  0  0  0  0  0  0  0  0  0
  -11.8529  -39.8749  -11.0756 C   0  0  0  0  0  0  0  0  0  0  0  0
  -12.4435  -39.0761  -10.1125 C   0  0  0  0  0  0  0  0  0  0  0  0
  -12.9556  -39.6801   -8.9735 C   0  0  0  0  0  0  0  0  0  0  0  0
  -12.8619  -41.0909   -8.8189 C   0  0  0  0  0  0  0  0  0  0  0  0
  -13.6568  -39.1214   -7.7976 C   0  0  0  0  0  0  0  0  0  0  0  0
  -13.2451  -39.5957   -6.6416 O   0  0  0  0  0  0  0  0  0  0  0  0
  -14.7070  -38.1554   -7.7194 N   0  0  0  0  0  0  0  0  0  0  0  0
  -15.7892  -38.0139   -8.6400 C   0  0  1  0  0  0  0  0  0  0  0  0
  -15.3419  -37.3950   -9.9682 C   0  0  0  0  0  0  0  0  0  0  0  0
  -16.3472  -36.5226  -10.5757 C   0  0  0  0  0  0  0  0  0  0  0  0
  -17.3882  -35.8551   -9.7451 C   0  0  0  0  0  0  0  0  0  0  0  0
  -16.3110  -36.3332  -11.8818 C   0  0  0  0  0  0  0  0  0  0  0  0
  -15.3711  -36.8944  -12.8442 C   0  0  0  0  0  0  0  0  0  0  0  0
  -14.4391  -35.9760  -13.3287 O   0  0  0  0  0  0  0  0  0  0  0  0
  -13.4416  -36.6351  -14.0840 C   0  0  0  0  0  0  0  0  0  0  0  0
  -12.4970  -37.3297  -13.1278 C   0  0  0  0  0  0  0  0  0  0  0  0
  -11.1077  -37.5123  -13.6327 C   0  0  0  0  0  0  0  0  0  0  0  0
  -10.3875  -38.5182  -12.7860 C   0  0  0  0  0  0  0  0  0  0  0  0
  -11.2669  -39.5817  -12.3417 N   0  0  0  0  0  0  0  0  0  0  0  0
  -16.4876  -39.3121   -8.9761 C   0  0  2  0  0  0  0  0  0  0  0  0
  -16.6064  -39.5158  -10.3294 O   0  0  0  0  0  0  0  0  0  0  0  0
  -17.8713  -39.2920   -8.3469 C   0  0  0  0  0  0  0  0  0  0  0  0
  -17.7888  -39.7780   -7.0052 N   0  0  0  0  0  0  0  0  0  0  0  0
  -18.9708  -39.4767   -6.2215 C   0  0  0  0  0  0  0  0  0  0  0  0
  -18.8402  -38.1322   -5.4383 C   0  0  0  0  0  0  0  0  0  0  0  0
  -18.8973  -39.4653   -4.7537 C   0  0  0  0  0  0  0  0  0  0  0  0
  -20.2636  -39.5919   -6.9402 C   0  0  0  0  0  0  0  0  0  0  0  0
  -21.4601  -39.4094   -6.2919 C   0  0  0  0  0  0  0  0  0  0  0  0
  -22.6796  -39.5095   -6.9413 C   0  0  0  0  0  0  0  0  0  0  0  0
  -22.6563  -39.8043   -8.2865 C   0  0  0  0  0  0  0  0  0  0  0  0
  -21.4788  -39.9959   -8.9782 C   0  0  0  0  0  0  0  0  0  0  0  0
  -20.2685  -39.8858   -8.2860 C   0  0  0  0  0  0  0  0  0  0  0  0
  -23.9849  -39.3160   -6.2601 C   0  0  0  0  0  0  0  0  0  0  0  0
  -24.6962  -40.6609   -6.1181 C   0  0  0  0  0  0  0  0  0  0  0  0
  -24.8832  -38.4287   -7.1005 C   0  0  0  0  0  0  0  0  0  0  0  0
  1  2  1  0
  2  3  1  0
  3  4  1  0
  4  5  2  0
  5  6  1  0
  6  7  2  0
  7  8  1  0
  8  9  2  0
  8 10  1  0
 10 11  2  0
 10 12  1  0
 12 13  1  0
 13 14  1  6
 14 15  1  0
 15 16  1  0
 15 17  2  0
 17 18  1  0
 18 19  1  0
 19 20  1  0
 20 21  1  0
 21 22  1  0
 22 23  1  0
 23 24  1  0
 13 25  1  0
 25 26  1  6
 25 27  1  0
 27 28  1  0
 28 29  1  0
 29 30  1  0
 30 31  1  0
 29 32  1  0
 32 33  2  0
 33 34  1  0
 34 35  2  0
 35 36  1  0
 36 37  2  0
 34 38  1  0
 38 39  1  0
 38 40  1  0
  9  4  1  0
 24  6  1  0
 31 29  1  0
 37 32  1  0
M  END
$$$$
