
     RDKit          3D

 40 43  0  0  0  0  0  0  0  0999 V2000
  -19.8048  -43.9695  -11.3425 C   0  0  0  0  0  0  0  0  0  0  0  0
  -19.5993  -43.0434  -12.3413 O   0  0  0  0  0  0  0  0  0  0  0  0
  -19.4231  -41.7475  -11.8415 C   0  0  0  0  0  0  0  0  0  0  0  0
  -17.9619  -41.5304  -11.6731 C   0  0  0  0  0  0  0  0  0  0  0  0
  -17.1457  -41.1422  -12.6907 C   0  0  0  0  0  0  0  0  0  0  0  0
  -15.7421  -40.9294  -12.5513 C   0  0  0  0  0  0  0  0  0  0  0  0
  -15.1567  -41.1244  -11.3128 C   0  0  0  0  0  0  0  0  0  0  0  0
  -15.9618  -41.5185  -10.2540 C   0  0  0  0  0  0  0  0  0  0  0  0
  -17.3553  -41.7147  -10.4607 C   0  0  0  0  0  0  0  0  0  0  0  0
  -15.6540  -41.7781   -8.8312 C   0  0  0  0  0  0  0  0  0  0  0  0
  -16.2093  -42.8666   -8.3435 O   0  0  0  0  0  0  0  0  0  0  0  0
  -14.8557  -41.0362   -7.9069 N   0  0  0  0  0  0  0  0  0  0  0  0
  -14.7473  -39.6139   -7.8428 C   0  0  1  0  0  0  0  0  0  0  0  0
  -13.9127  -39.0446   -8.9945 C   0  0  0  0  0  0  0  0  0  0  0  0
  -13.1146  -37.8774   -8.6182 C   0  0  0  0  0  0  0  0  0  0  0  0
  -12.7025  -37.6517   -7.2047 C   0  0  0  0  0  0  0  0  0  0  0  0
  -12.7603  -37.0251   -9.5623 C   0  0  0  0  0  0  0  0  0  0  0  0
  -13.0651  -37.0857  -10.9863 C   0  0  0  0  0  0  0  0  0  0  0  0
  -11.9763  -37.4368  -11.7851 O   0  0  0  0  0  0  0  0  0  0  0  0
  -12.3955  -37.6806  -13.1135 C   0  0  0  0  0  0  0  0  0  0  0  0
  -13.0705  -39.0338  -13.1625 C   0  0  0  0  0  0  0  0  0  0  0  0
  -12.9998  -39.7282  -14.4782 C   0  0  0  0  0  0  0  0  0  0  0  0
  -13.9974  -40.8466  -14.5166 C   0  0  0  0  0  0  0  0  0  0  0  0
  -15.2167  -40.5099  -13.8084 N   0  0  0  0  0  0  0  0  0  0  0  0
  -16.0754  -38.8917   -7.8670 C   0  0  2  0  0  0  0  0  0  0  0  0
  -15.9709  -37.5758   -7.4873 O   0  0  0  0  0  0  0  0  0  0  0  0
  -17.0325  -39.6113   -6.9304 C   0  0  0  0  0  0  0  0  0  0  0  0
  -18.3065  -38.9644   -6.9661 N   0  0  0  0  0  0  0  0  0  0  0  0
  -19.4109  -39.8790   -6.7519 C   0  0  0  0  0  0  0  0  0  0  0  0
  -20.3053  -39.4608   -5.5423 C   0  0  0  0  0  0  0  0  0  0  0  0
  -19.4608  -40.7001   -5.5340 C   0  0  0  0  0  0  0  0  0  0  0  0
  -20.2075  -40.2164   -7.9572 C   0  0  0  0  0  0  0  0  0  0  0  0
  -20.0676  -39.5107   -9.1267 C   0  0  0  0  0  0  0  0  0  0  0  0
  -20.7980  -39.8079  -10.2655 C   0  0  0  0  0  0  0  0  0  0  0  0
  -21.6890  -40.8554  -10.1886 C   0  0  0  0  0  0  0  0  0  0  0  0
  -21.8628  -41.5914   -9.0355 C   0  0  0  0  0  0  0  0  0  0  0  0
  -21.1058  -41.2596   -7.9073 C   0  0  0  0  0  0  0  0  0  0  0  0
  -20.6626  -39.0583  -11.5403 C   0  0  0  0  0  0  0  0  0  0  0  0
  -20.7830  -40.0222  -12.7199 C   0  0  0  0  0  0  0  0  0  0  0  0
  -19.2872  -38.4249  -11.6270 C   0  0  0  0  0  0  0  0  0  0  0  0
  1  2  1  0
  2  3  1  0
  3  4  1  0
  4  5  2  0
  5  6  1  0
  6  7  2  0
  7  8  1  0
  8  9  2  0
  8 10  1  0
 10 11  2  0
 10 12  1  0
 12 13  1  0
 13 14  1  6
 14 15  1  0
 15 16  1  0
 15 17  2  0
 17 18  1  0
 18 19  1  0
 19 20  1  0
 20 21  1  0
 21 22  1  0
 22 23  1  0
 23 24  1  0
 13 25  1  0
 25 26  1  1
 25 27  1  0
 27 28  1  0
 28 29  1  0
 29 30  1  0
 30 31  1  0
 29 32  1  0
 32 33  2  0
 33 34  1  0
 34 35  2  0
 35 36  1  0
 36 37  2  0
 34 38  1  0
 38 39  1  0
 38 40  1  0
  9  4  1  0
 24  6  1  0
 31 29  1  0
 37 32  1  0
M  END
$$$$
