
     RDKit          3D

 40 43  0  0  0  0  0  0  0  0999 V2000
  -18.6517  -33.7138  -10.1948 C   0  0  0  0  0  0  0  0  0  0  0  0
  -17.8403  -34.1739  -11.2083 O   0  0  0  0  0  0  0  0  0  0  0  0
  -18.3796  -35.2889  -11.8613 C   0  0  0  0  0  0  0  0  0  0  0  0
  -17.3158  -36.3258  -11.9234 C   0  0  0  0  0  0  0  0  0  0  0  0
  -16.0485  -36.0664  -12.3463 C   0  0  0  0  0  0  0  0  0  0  0  0
  -15.0137  -37.0458  -12.4145 C   0  0  0  0  0  0  0  0  0  0  0  0
  -15.2970  -38.3447  -12.0309 C   0  0  0  0  0  0  0  0  0  0  0  0
  -16.5793  -38.6415  -11.5928 C   0  0  0  0  0  0  0  0  0  0  0  0
  -17.5661  -37.6180  -11.5500 C   0  0  0  0  0  0  0  0  0  0  0  0
  -17.1808  -39.8988  -11.0987 C   0  0  0  0  0  0  0  0  0  0  0  0
  -18.3732  -40.1616  -11.5887 O   0  0  0  0  0  0  0  0  0  0  0  0
  -16.6757  -40.8661  -10.1761 N   0  0  0  0  0  0  0  0  0  0  0  0
  -15.8906  -40.5911   -9.0156 C   0  0  1  0  0  0  0  0  0  0  0  0
  -14.4517  -40.2018   -9.3692 C   0  0  0  0  0  0  0  0  0  0  0  0
  -13.4623  -40.6748   -8.4007 C   0  0  0  0  0  0  0  0  0  0  0  0
  -13.7334  -41.8619   -7.5427 C   0  0  0  0  0  0  0  0  0  0  0  0
  -12.3152  -40.0281   -8.3044 C   0  0  0  0  0  0  0  0  0  0  0  0
  -11.8775  -38.8603   -9.0588 C   0  0  0  0  0  0  0  0  0  0  0  0
  -10.9070  -39.1383  -10.0220 O   0  0  0  0  0  0  0  0  0  0  0  0
  -10.6913  -38.0099  -10.8468 C   0  0  0  0  0  0  0  0  0  0  0  0
  -11.8478  -37.8961  -11.8156 C   0  0  0  0  0  0  0  0  0  0  0  0
  -11.5264  -37.2296  -13.1082 C   0  0  0  0  0  0  0  0  0  0  0  0
  -12.7938  -36.8418  -13.8088 C   0  0  0  0  0  0  0  0  0  0  0  0
  -13.8203  -36.4179  -12.8769 N   0  0  0  0  0  0  0  0  0  0  0  0
  -16.4416  -39.4838   -8.1457 C   0  0  2  0  0  0  0  0  0  0  0  0
  -15.9649  -39.5334   -6.8584 O   0  0  0  0  0  0  0  0  0  0  0  0
  -17.9575  -39.5956   -8.1257 C   0  0  0  0  0  0  0  0  0  0  0  0
  -18.5109  -38.4267   -7.5171 N   0  0  0  0  0  0  0  0  0  0  0  0
  -19.9573  -38.3759   -7.6027 C   0  0  0  0  0  0  0  0  0  0  0  0
  -20.4687  -38.4040   -9.0777 C   0  0  0  0  0  0  0  0  0  0  0  0
  -20.6190  -37.2033   -8.1919 C   0  0  0  0  0  0  0  0  0  0  0  0
  -20.6854  -39.3305   -6.7310 C   0  0  0  0  0  0  0  0  0  0  0  0
  -21.4017  -40.3764   -7.2586 C   0  0  0  0  0  0  0  0  0  0  0  0
  -22.0876  -41.2817   -6.4658 C   0  0  0  0  0  0  0  0  0  0  0  0
  -22.0292  -41.0978   -5.1021 C   0  0  0  0  0  0  0  0  0  0  0  0
  -21.3228  -40.0618   -4.5282 C   0  0  0  0  0  0  0  0  0  0  0  0
  -20.6433  -39.1693   -5.3636 C   0  0  0  0  0  0  0  0  0  0  0  0
  -22.8680  -42.4196   -7.0150 C   0  0  0  0  0  0  0  0  0  0  0  0
  -24.3292  -42.0067   -7.1871 C   0  0  0  0  0  0  0  0  0  0  0  0
  -22.8499  -43.5810   -6.0396 C   0  0  0  0  0  0  0  0  0  0  0  0
  1  2  1  0
  2  3  1  0
  3  4  1  0
  4  5  2  0
  5  6  1  0
  6  7  2  0
  7  8  1  0
  8  9  2  0
  8 10  1  0
 10 11  2  0
 10 12  1  0
 12 13  1  0
 13 14  1  6
 14 15  1  0
 15 16  1  0
 15 17  2  0
 17 18  1  0
 18 19  1  0
 19 20  1  0
 20 21  1  0
 21 22  1  0
 22 23  1  0
 23 24  1  0
 13 25  1  0
 25 26  1  1
 25 27  1  0
 27 28  1  0
 28 29  1  0
 29 30  1  0
 30 31  1  0
 29 32  1  0
 32 33  2  0
 33 34  1  0
 34 35  2  0
 35 36  1  0
 36 37  2  0
 34 38  1  0
 38 39  1  0
 38 40  1  0
  9  4  1  0
 24  6  1  0
 31 29  1  0
 37 32  1  0
M  END
$$$$
