
     RDKit          3D

 40 43  0  0  0  0  0  0  0  0999 V2000
  -19.4661  -46.3059   -8.6699 C   0  0  0  0  0  0  0  0  0  0  0  0
  -18.4952  -45.3287   -8.6677 O   0  0  0  0  0  0  0  0  0  0  0  0
  -17.2102  -45.8505   -8.8596 C   0  0  0  0  0  0  0  0  0  0  0  0
  -16.2578  -44.7091   -8.8313 C   0  0  0  0  0  0  0  0  0  0  0  0
  -15.0115  -44.7670   -9.3750 C   0  0  0  0  0  0  0  0  0  0  0  0
  -14.0823  -43.6848   -9.3580 C   0  0  0  0  0  0  0  0  0  0  0  0
  -14.4533  -42.4952   -8.7567 C   0  0  0  0  0  0  0  0  0  0  0  0
  -15.7183  -42.4030   -8.1947 C   0  0  0  0  0  0  0  0  0  0  0  0
  -16.5968  -43.5205   -8.2446 C   0  0  0  0  0  0  0  0  0  0  0  0
  -16.4118  -41.2866   -7.5171 C   0  0  0  0  0  0  0  0  0  0  0  0
  -17.0490  -41.6281   -6.4178 O   0  0  0  0  0  0  0  0  0  0  0  0
  -16.5011  -39.9040   -7.8673 N   0  0  0  0  0  0  0  0  0  0  0  0
  -16.5923  -39.3764   -9.1909 C   0  0  1  0  0  0  0  0  0  0  0  0
  -15.2595  -39.4631   -9.9416 C   0  0  0  0  0  0  0  0  0  0  0  0
  -15.0235  -38.3385  -10.8473 C   0  0  0  0  0  0  0  0  0  0  0  0
  -15.6775  -37.0194  -10.6212 C   0  0  0  0  0  0  0  0  0  0  0  0
  -14.2107  -38.5148  -11.8727 C   0  0  0  0  0  0  0  0  0  0  0  0
  -13.4850  -39.7229  -12.2451 C   0  0  0  0  0  0  0  0  0  0  0  0
  -12.1148  -39.6632  -11.9890 O   0  0  0  0  0  0  0  0  0  0  0  0
  -11.5209  -40.9330  -12.1754 C   0  0  0  0  0  0  0  0  0  0  0  0
  -11.8663  -41.8029  -10.9867 C   0  0  0  0  0  0  0  0  0  0  0  0
  -10.8766  -42.8719  -10.6768 C   0  0  0  0  0  0  0  0  0  0  0  0
  -11.4897  -43.8789   -9.7507 C   0  0  0  0  0  0  0  0  0  0  0  0
  -12.8953  -44.0915  -10.0348 N   0  0  0  0  0  0  0  0  0  0  0  0
  -17.6269  -40.0583  -10.0574 C   0  0  2  0  0  0  0  0  0  0  0  0
  -17.2330  -40.1660  -11.3689 O   0  0  0  0  0  0  0  0  0  0  0  0
  -18.9188  -39.2604   -9.9839 C   0  0  0  0  0  0  0  0  0  0  0  0
  -19.7081  -39.7363   -8.8914 N   0  0  0  0  0  0  0  0  0  0  0  0
  -20.0811  -38.6861   -7.9641 C   0  0  0  0  0  0  0  0  0  0  0  0
  -19.9583  -37.2628   -8.5943 C   0  0  0  0  0  0  0  0  0  0  0  0
  -19.0690  -37.7353   -7.4831 C   0  0  0  0  0  0  0  0  0  0  0  0
  -21.3695  -38.8839   -7.2553 C   0  0  0  0  0  0  0  0  0  0  0  0
  -21.5276  -39.8820   -6.3258 C   0  0  0  0  0  0  0  0  0  0  0  0
  -22.7193  -40.0853   -5.6496 C   0  0  0  0  0  0  0  0  0  0  0  0
  -23.7645  -39.2380   -5.9437 C   0  0  0  0  0  0  0  0  0  0  0  0
  -23.6514  -38.2225   -6.8698 C   0  0  0  0  0  0  0  0  0  0  0  0
  -22.4310  -38.0503   -7.5308 C   0  0  0  0  0  0  0  0  0  0  0  0
  -22.9122  -41.1578   -4.6408 C   0  0  0  0  0  0  0  0  0  0  0  0
  -22.0630  -40.8618   -3.4053 C   0  0  0  0  0  0  0  0  0  0  0  0
  -22.4344  -42.4858   -5.1964 C   0  0  0  0  0  0  0  0  0  0  0  0
  1  2  1  0
  2  3  1  0
  3  4  1  0
  4  5  2  0
  5  6  1  0
  6  7  2  0
  7  8  1  0
  8  9  2  0
  8 10  1  0
 10 11  2  0
 10 12  1  0
 12 13  1  0
 13 14  1  6
 14 15  1  0
 15 16  1  0
 15 17  2  0
 17 18  1  0
 18 19  1  0
 19 20  1  0
 20 21  1  0
 21 22  1  0
 22 23  1  0
 23 24  1  0
 13 25  1  0
 25 26  1  6
 25 27  1  0
 27 28  1  0
 28 29  1  0
 29 30  1  0
 30 31  1  0
 29 32  1  0
 32 33  2  0
 33 34  1  0
 34 35  2  0
 35 36  1  0
 36 37  2  0
 34 38  1  0
 38 39  1  0
 38 40  1  0
  9  4  1  0
 24  6  1  0
 31 29  1  0
 37 32  1  0
M  END
$$$$
