
     RDKit          3D

 40 43  0  0  0  0  0  0  0  0999 V2000
  -20.5556  -34.5187   -9.1491 C   0  0  0  0  0  0  0  0  0  0  0  0
  -19.5365  -35.3732   -9.5076 O   0  0  0  0  0  0  0  0  0  0  0  0
  -19.6248  -35.7801  -10.8445 C   0  0  0  0  0  0  0  0  0  0  0  0
  -18.2998  -36.3341  -11.2292 C   0  0  0  0  0  0  0  0  0  0  0  0
  -17.3081  -35.5787  -11.7754 C   0  0  0  0  0  0  0  0  0  0  0  0
  -16.0309  -36.0899  -12.1523 C   0  0  0  0  0  0  0  0  0  0  0  0
  -15.7654  -37.4339  -11.9579 C   0  0  0  0  0  0  0  0  0  0  0  0
  -16.7549  -38.2311  -11.4012 C   0  0  0  0  0  0  0  0  0  0  0  0
  -18.0083  -37.6586  -11.0484 C   0  0  0  0  0  0  0  0  0  0  0  0
  -16.7748  -39.6667  -11.0475 C   0  0  0  0  0  0  0  0  0  0  0  0
  -17.8717  -40.3003  -11.4032 O   0  0  0  0  0  0  0  0  0  0  0  0
  -15.7977  -40.4692  -10.3817 N   0  0  0  0  0  0  0  0  0  0  0  0
  -14.9503  -40.0472   -9.3128 C   0  0  1  0  0  0  0  0  0  0  0  0
  -13.8330  -39.1156   -9.7934 C   0  0  0  0  0  0  0  0  0  0  0  0
  -12.5746  -39.2870   -9.0668 C   0  0  0  0  0  0  0  0  0  0  0  0
  -12.2459  -40.5739   -8.3925 C   0  0  0  0  0  0  0  0  0  0  0  0
  -11.7284  -38.2744   -9.0241 C   0  0  0  0  0  0  0  0  0  0  0  0
  -11.8777  -36.9544   -9.6239 C   0  0  0  0  0  0  0  0  0  0  0  0
  -11.0752  -36.7474  -10.7465 O   0  0  0  0  0  0  0  0  0  0  0  0
  -11.4280  -35.5389  -11.3906 C   0  0  0  0  0  0  0  0  0  0  0  0
  -12.7148  -35.7608  -12.1547 C   0  0  0  0  0  0  0  0  0  0  0  0
  -12.8997  -34.8890  -13.3481 C   0  0  0  0  0  0  0  0  0  0  0  0
  -14.3322  -34.9280  -13.7887 C   0  0  0  0  0  0  0  0  0  0  0  0
  -15.2429  -35.0179  -12.6643 N   0  0  0  0  0  0  0  0  0  0  0  0
  -15.6741  -39.3236   -8.1999 C   0  0  2  0  0  0  0  0  0  0  0  0
  -14.8172  -38.7953   -7.2652 O   0  0  0  0  0  0  0  0  0  0  0  0
  -16.6171  -40.3038   -7.5209 C   0  0  0  0  0  0  0  0  0  0  0  0
  -17.8646  -40.3215   -8.2183 N   0  0  0  0  0  0  0  0  0  0  0  0
  -18.8050  -41.2790   -7.6699 C   0  0  0  0  0  0  0  0  0  0  0  0
  -18.1593  -42.1917   -6.5799 C   0  0  0  0  0  0  0  0  0  0  0  0
  -18.6152  -42.7167   -7.9087 C   0  0  0  0  0  0  0  0  0  0  0  0
  -20.1120  -40.7218   -7.2424 C   0  0  0  0  0  0  0  0  0  0  0  0
  -21.0078  -41.4730   -6.5224 C   0  0  0  0  0  0  0  0  0  0  0  0
  -22.2328  -40.9747   -6.1101 C   0  0  0  0  0  0  0  0  0  0  0  0
  -22.5327  -39.6746   -6.4515 C   0  0  0  0  0  0  0  0  0  0  0  0
  -21.6641  -38.8834   -7.1735 C   0  0  0  0  0  0  0  0  0  0  0  0
  -20.4369  -39.4240   -7.5707 C   0  0  0  0  0  0  0  0  0  0  0  0
  -23.2162  -41.7691   -5.3309 C   0  0  0  0  0  0  0  0  0  0  0  0
  -24.5095  -40.9716   -5.1685 C   0  0  0  0  0  0  0  0  0  0  0  0
  -22.6825  -42.0327   -3.9359 C   0  0  0  0  0  0  0  0  0  0  0  0
  1  2  1  0
  2  3  1  0
  3  4  1  0
  4  5  2  0
  5  6  1  0
  6  7  2  0
  7  8  1  0
  8  9  2  0
  8 10  1  0
 10 11  2  0
 10 12  1  0
 12 13  1  0
 13 14  1  6
 14 15  1  0
 15 16  1  0
 15 17  2  0
 17 18  1  0
 18 19  1  0
 19 20  1  0
 20 21  1  0
 21 22  1  0
 22 23  1  0
 23 24  1  0
 13 25  1  0
 25 26  1  1
 25 27  1  0
 27 28  1  0
 28 29  1  0
 29 30  1  0
 30 31  1  0
 29 32  1  0
 32 33  2  0
 33 34  1  0
 34 35  2  0
 35 36  1  0
 36 37  2  0
 34 38  1  0
 38 39  1  0
 38 40  1  0
  9  4  1  0
 24  6  1  0
 31 29  1  0
 37 32  1  0
M  END
$$$$
