
     RDKit          3D

 40 43  0  0  0  0  0  0  0  0999 V2000
  -22.0750  -43.7261   -9.4030 C   0  0  0  0  0  0  0  0  0  0  0  0
  -20.7275  -43.7387   -9.6889 O   0  0  0  0  0  0  0  0  0  0  0  0
  -20.0921  -44.8956   -9.2216 C   0  0  0  0  0  0  0  0  0  0  0  0
  -18.6659  -44.5526   -8.9790 C   0  0  0  0  0  0  0  0  0  0  0  0
  -17.6382  -45.1094   -9.6762 C   0  0  0  0  0  0  0  0  0  0  0  0
  -16.2638  -44.7955   -9.4591 C   0  0  0  0  0  0  0  0  0  0  0  0
  -15.9359  -43.8700   -8.4841 C   0  0  0  0  0  0  0  0  0  0  0  0
  -16.9608  -43.2824   -7.7568 C   0  0  0  0  0  0  0  0  0  0  0  0
  -18.3113  -43.6409   -8.0224 C   0  0  0  0  0  0  0  0  0  0  0  0
  -16.9445  -42.2599   -6.6887 C   0  0  0  0  0  0  0  0  0  0  0  0
  -17.7312  -42.5256   -5.6682 O   0  0  0  0  0  0  0  0  0  0  0  0
  -16.2158  -41.0345   -6.5921 N   0  0  0  0  0  0  0  0  0  0  0  0
  -15.9096  -40.1513   -7.6714 C   0  0  1  0  0  0  0  0  0  0  0  0
  -14.8139  -40.7111   -8.5842 C   0  0  0  0  0  0  0  0  0  0  0  0
  -13.9279  -39.6843   -9.1331 C   0  0  0  0  0  0  0  0  0  0  0  0
  -13.7362  -38.3820   -8.4359 C   0  0  0  0  0  0  0  0  0  0  0  0
  -13.2935  -39.9375  -10.2630 C   0  0  0  0  0  0  0  0  0  0  0  0
  -13.3543  -41.1467  -11.0746 C   0  0  0  0  0  0  0  0  0  0  0  0
  -12.2088  -41.9396  -10.9978 O   0  0  0  0  0  0  0  0  0  0  0  0
  -12.4246  -43.1837  -11.6347 C   0  0  0  0  0  0  0  0  0  0  0  0
  -13.2749  -44.0456  -10.7274 C   0  0  0  0  0  0  0  0  0  0  0  0
  -13.0830  -45.5138  -10.8882 C   0  0  0  0  0  0  0  0  0  0  0  0
  -14.2143  -46.2487  -10.2343 C   0  0  0  0  0  0  0  0  0  0  0  0
  -15.4734  -45.5448  -10.3789 N   0  0  0  0  0  0  0  0  0  0  0  0
  -17.0913  -39.8250   -8.5564 C   0  0  2  0  0  0  0  0  0  0  0  0
  -16.7163  -39.3172   -9.7764 O   0  0  0  0  0  0  0  0  0  0  0  0
  -17.9670  -38.8117   -7.8371 C   0  0  0  0  0  0  0  0  0  0  0  0
  -18.9326  -39.5011   -7.0401 N   0  0  0  0  0  0  0  0  0  0  0  0
  -20.2919  -39.3068   -7.5054 C   0  0  0  0  0  0  0  0  0  0  0  0
  -21.3493  -39.9036   -6.5238 C   0  0  0  0  0  0  0  0  0  0  0  0
  -21.1095  -40.4646   -7.8938 C   0  0  0  0  0  0  0  0  0  0  0  0
  -20.6316  -37.9282   -7.9363 C   0  0  0  0  0  0  0  0  0  0  0  0
  -21.4520  -37.1259   -7.1824 C   0  0  0  0  0  0  0  0  0  0  0  0
  -21.7818  -35.8352   -7.5622 C   0  0  0  0  0  0  0  0  0  0  0  0
  -21.2510  -35.3700   -8.7449 C   0  0  0  0  0  0  0  0  0  0  0  0
  -20.4230  -36.1403   -9.5341 C   0  0  0  0  0  0  0  0  0  0  0  0
  -20.1140  -37.4383   -9.1151 C   0  0  0  0  0  0  0  0  0  0  0  0
  -22.6666  -34.9505   -6.7625 C   0  0  0  0  0  0  0  0  0  0  0  0
  -23.9263  -34.6221   -7.5630 C   0  0  0  0  0  0  0  0  0  0  0  0
  -21.9678  -33.6342   -6.4805 C   0  0  0  0  0  0  0  0  0  0  0  0
  1  2  1  0
  2  3  1  0
  3  4  1  0
  4  5  2  0
  5  6  1  0
  6  7  2  0
  7  8  1  0
  8  9  2  0
  8 10  1  0
 10 11  2  0
 10 12  1  0
 12 13  1  0
 13 14  1  6
 14 15  1  0
 15 16  1  0
 15 17  2  0
 17 18  1  0
 18 19  1  0
 19 20  1  0
 20 21  1  0
 21 22  1  0
 22 23  1  0
 23 24  1  0
 13 25  1  0
 25 26  1  6
 25 27  1  0
 27 28  1  0
 28 29  1  0
 29 30  1  0
 30 31  1  0
 29 32  1  0
 32 33  2  0
 33 34  1  0
 34 35  2  0
 35 36  1  0
 36 37  2  0
 34 38  1  0
 38 39  1  0
 38 40  1  0
  9  4  1  0
 24  6  1  0
 31 29  1  0
 37 32  1  0
M  END
$$$$
