
     RDKit          3D

 40 43  0  0  0  0  0  0  0  0999 V2000
  -20.1776  -41.1016  -12.9824 C   0  0  0  0  0  0  0  0  0  0  0  0
  -19.8019  -39.8062  -13.2621 O   0  0  0  0  0  0  0  0  0  0  0  0
  -19.3865  -39.1111  -12.1199 C   0  0  0  0  0  0  0  0  0  0  0  0
  -17.8999  -39.0872  -12.1298 C   0  0  0  0  0  0  0  0  0  0  0  0
  -17.1757  -38.1617  -12.8162 C   0  0  0  0  0  0  0  0  0  0  0  0
  -15.7500  -38.1213  -12.8399 C   0  0  0  0  0  0  0  0  0  0  0  0
  -15.0428  -39.0732  -12.1269 C   0  0  0  0  0  0  0  0  0  0  0  0
  -15.7517  -40.0297  -11.4148 C   0  0  0  0  0  0  0  0  0  0  0  0
  -17.1738  -40.0149  -11.4340 C   0  0  0  0  0  0  0  0  0  0  0  0
  -15.3023  -41.1417  -10.5499 C   0  0  0  0  0  0  0  0  0  0  0  0
  -15.9349  -42.2777  -10.7502 O   0  0  0  0  0  0  0  0  0  0  0  0
  -14.2974  -41.1760   -9.5345 N   0  0  0  0  0  0  0  0  0  0  0  0
  -13.9868  -40.1216   -8.6232 C   0  0  1  0  0  0  0  0  0  0  0  0
  -13.2367  -38.9715   -9.3029 C   0  0  0  0  0  0  0  0  0  0  0  0
  -12.2438  -38.3296   -8.4410 C   0  0  0  0  0  0  0  0  0  0  0  0
  -11.6264  -39.0636   -7.3013 C   0  0  0  0  0  0  0  0  0  0  0  0
  -11.8998  -37.0810   -8.6971 C   0  0  0  0  0  0  0  0  0  0  0  0
  -12.3904  -36.2155   -9.7624 C   0  0  0  0  0  0  0  0  0  0  0  0
  -11.4721  -36.0066  -10.7919 O   0  0  0  0  0  0  0  0  0  0  0  0
  -12.0880  -35.3405  -11.8767 C   0  0  0  0  0  0  0  0  0  0  0  0
  -12.9436  -36.3370  -12.6277 C   0  0  0  0  0  0  0  0  0  0  0  0
  -13.1388  -36.0392  -14.0739 C   0  0  0  0  0  0  0  0  0  0  0  0
  -14.2776  -36.8530  -14.6110 C   0  0  0  0  0  0  0  0  0  0  0  0
  -15.3377  -37.0122  -13.6351 N   0  0  0  0  0  0  0  0  0  0  0  0
  -15.1948  -39.5153   -7.9456 C   0  0  2  0  0  0  0  0  0  0  0  0
  -15.0002  -39.3057   -6.6021 O   0  0  0  0  0  0  0  0  0  0  0  0
  -16.3777  -40.4495   -8.1430 C   0  0  0  0  0  0  0  0  0  0  0  0
  -17.4632  -40.0206   -7.3180 N   0  0  0  0  0  0  0  0  0  0  0  0
  -18.6908  -40.7473   -7.5763 C   0  0  0  0  0  0  0  0  0  0  0  0
  -18.9646  -41.8538   -6.5092 C   0  0  0  0  0  0  0  0  0  0  0  0
  -18.6411  -42.1707   -7.9389 C   0  0  0  0  0  0  0  0  0  0  0  0
  -19.8864  -39.9114   -7.8470 C   0  0  0  0  0  0  0  0  0  0  0  0
  -20.2683  -39.6049   -9.1297 C   0  0  0  0  0  0  0  0  0  0  0  0
  -21.3813  -38.8286   -9.4079 C   0  0  0  0  0  0  0  0  0  0  0  0
  -22.1097  -38.3624   -8.3361 C   0  0  0  0  0  0  0  0  0  0  0  0
  -21.7635  -38.6447   -7.0314 C   0  0  0  0  0  0  0  0  0  0  0  0
  -20.6327  -39.4323   -6.7929 C   0  0  0  0  0  0  0  0  0  0  0  0
  -21.8124  -38.4851  -10.7868 C   0  0  0  0  0  0  0  0  0  0  0  0
  -23.0168  -37.5463  -10.7312 C   0  0  0  0  0  0  0  0  0  0  0  0
  -22.2617  -39.7360  -11.5176 C   0  0  0  0  0  0  0  0  0  0  0  0
  1  2  1  0
  2  3  1  0
  3  4  1  0
  4  5  2  0
  5  6  1  0
  6  7  2  0
  7  8  1  0
  8  9  2  0
  8 10  1  0
 10 11  2  0
 10 12  1  0
 12 13  1  0
 13 14  1  6
 14 15  1  0
 15 16  1  0
 15 17  2  0
 17 18  1  0
 18 19  1  0
 19 20  1  0
 20 21  1  0
 21 22  1  0
 22 23  1  0
 23 24  1  0
 13 25  1  0
 25 26  1  1
 25 27  1  0
 27 28  1  0
 28 29  1  0
 29 30  1  0
 30 31  1  0
 29 32  1  0
 32 33  2  0
 33 34  1  0
 34 35  2  0
 35 36  1  0
 36 37  2  0
 34 38  1  0
 38 39  1  0
 38 40  1  0
  9  4  1  0
 24  6  1  0
 31 29  1  0
 37 32  1  0
M  END
$$$$
