
     RDKit          3D

 40 43  0  0  0  0  0  0  0  0999 V2000
  -19.5107  -34.3942  -13.9021 C   0  0  0  0  0  0  0  0  0  0  0  0
  -19.6889  -35.3716  -12.9479 O   0  0  0  0  0  0  0  0  0  0  0  0
  -18.8945  -35.1634  -11.8139 C   0  0  0  0  0  0  0  0  0  0  0  0
  -17.7970  -36.1658  -11.8494 C   0  0  0  0  0  0  0  0  0  0  0  0
  -16.5271  -35.8647  -12.2354 C   0  0  0  0  0  0  0  0  0  0  0  0
  -15.4603  -36.8107  -12.2777 C   0  0  0  0  0  0  0  0  0  0  0  0
  -15.7130  -38.1196  -11.9067 C   0  0  0  0  0  0  0  0  0  0  0  0
  -16.9971  -38.4586  -11.5061 C   0  0  0  0  0  0  0  0  0  0  0  0
  -18.0166  -37.4670  -11.4878 C   0  0  0  0  0  0  0  0  0  0  0  0
  -17.5722  -39.7364  -11.0337 C   0  0  0  0  0  0  0  0  0  0  0  0
  -18.7414  -40.0346  -11.5582 O   0  0  0  0  0  0  0  0  0  0  0  0
  -17.0629  -40.6913  -10.1006 N   0  0  0  0  0  0  0  0  0  0  0  0
  -16.3201  -40.3967   -8.9173 C   0  0  1  0  0  0  0  0  0  0  0  0
  -14.8847  -39.9607   -9.2287 C   0  0  0  0  0  0  0  0  0  0  0  0
  -13.9086  -40.4064   -8.2341 C   0  0  0  0  0  0  0  0  0  0  0  0
  -14.1661  -41.6052   -7.3883 C   0  0  0  0  0  0  0  0  0  0  0  0
  -12.7858  -39.7243   -8.1031 C   0  0  0  0  0  0  0  0  0  0  0  0
  -12.3641  -38.5399   -8.8407 C   0  0  0  0  0  0  0  0  0  0  0  0
  -11.3586  -38.7829   -9.7770 O   0  0  0  0  0  0  0  0  0  0  0  0
  -11.1554  -37.6448  -10.5914 C   0  0  0  0  0  0  0  0  0  0  0  0
  -12.2872  -37.5633  -11.5922 C   0  0  0  0  0  0  0  0  0  0  0  0
  -11.9507  -36.8813  -12.8728 C   0  0  0  0  0  0  0  0  0  0  0  0
  -13.2095  -36.5306  -13.6077 C   0  0  0  0  0  0  0  0  0  0  0  0
  -14.2748  -36.1434  -12.7039 N   0  0  0  0  0  0  0  0  0  0  0  0
  -16.9301  -39.3112   -8.0596 C   0  0  2  0  0  0  0  0  0  0  0  0
  -16.1537  -38.9958   -6.9712 O   0  0  0  0  0  0  0  0  0  0  0  0
  -18.2951  -39.7824   -7.5844 C   0  0  0  0  0  0  0  0  0  0  0  0
  -19.1617  -39.9364   -8.7105 N   0  0  0  0  0  0  0  0  0  0  0  0
  -20.5481  -39.6471   -8.4004 C   0  0  0  0  0  0  0  0  0  0  0  0
  -21.5185  -40.0841   -9.5429 C   0  0  0  0  0  0  0  0  0  0  0  0
  -21.2846  -38.6465   -9.1856 C   0  0  0  0  0  0  0  0  0  0  0  0
  -21.0117  -40.0884   -7.0619 C   0  0  0  0  0  0  0  0  0  0  0  0
  -20.6617  -41.3148   -6.5531 C   0  0  0  0  0  0  0  0  0  0  0  0
  -21.0799  -41.7483   -5.3057 C   0  0  0  0  0  0  0  0  0  0  0  0
  -21.8752  -40.8941   -4.5745 C   0  0  0  0  0  0  0  0  0  0  0  0
  -22.2518  -39.6539   -5.0453 C   0  0  0  0  0  0  0  0  0  0  0  0
  -21.8082  -39.2533   -6.3097 C   0  0  0  0  0  0  0  0  0  0  0  0
  -20.7133  -43.0698   -4.7362 C   0  0  0  0  0  0  0  0  0  0  0  0
  -19.1983  -43.1495   -4.5530 C   0  0  0  0  0  0  0  0  0  0  0  0
  -21.0997  -44.1760   -5.6993 C   0  0  0  0  0  0  0  0  0  0  0  0
  1  2  1  0
  2  3  1  0
  3  4  1  0
  4  5  2  0
  5  6  1  0
  6  7  2  0
  7  8  1  0
  8  9  2  0
  8 10  1  0
 10 11  2  0
 10 12  1  0
 12 13  1  0
 13 14  1  6
 14 15  1  0
 15 16  1  0
 15 17  2  0
 17 18  1  0
 18 19  1  0
 19 20  1  0
 20 21  1  0
 21 22  1  0
 22 23  1  0
 23 24  1  0
 13 25  1  0
 25 26  1  1
 25 27  1  0
 27 28  1  0
 28 29  1  0
 29 30  1  0
 30 31  1  0
 29 32  1  0
 32 33  2  0
 33 34  1  0
 34 35  2  0
 35 36  1  0
 36 37  2  0
 34 38  1  0
 38 39  1  0
 38 40  1  0
  9  4  1  0
 24  6  1  0
 31 29  1  0
 37 32  1  0
M  END
$$$$
