
     RDKit          3D

 40 43  0  0  0  0  0  0  0  0999 V2000
  -19.3287  -35.0604   -8.4417 C   0  0  0  0  0  0  0  0  0  0  0  0
  -20.1486  -36.0761   -8.8818 O   0  0  0  0  0  0  0  0  0  0  0  0
  -20.1901  -36.1631  -10.2787 C   0  0  0  0  0  0  0  0  0  0  0  0
  -18.9269  -36.8102  -10.7218 C   0  0  0  0  0  0  0  0  0  0  0  0
  -17.9622  -36.1551  -11.4235 C   0  0  0  0  0  0  0  0  0  0  0  0
  -16.7443  -36.7567  -11.8588 C   0  0  0  0  0  0  0  0  0  0  0  0
  -16.5118  -38.0872  -11.5583 C   0  0  0  0  0  0  0  0  0  0  0  0
  -17.4750  -38.7829  -10.8422 C   0  0  0  0  0  0  0  0  0  0  0  0
  -18.6690  -38.1237  -10.4388 C   0  0  0  0  0  0  0  0  0  0  0  0
  -17.5152  -40.1767  -10.3499 C   0  0  0  0  0  0  0  0  0  0  0  0
  -18.6625  -40.7905  -10.5449 O   0  0  0  0  0  0  0  0  0  0  0  0
  -16.5115  -40.9566   -9.6969 N   0  0  0  0  0  0  0  0  0  0  0  0
  -15.5551  -40.4750   -8.7523 C   0  0  1  0  0  0  0  0  0  0  0  0
  -14.4529  -39.6442   -9.4171 C   0  0  0  0  0  0  0  0  0  0  0  0
  -13.1407  -39.8035   -8.7900 C   0  0  0  0  0  0  0  0  0  0  0  0
  -12.7992  -41.0350   -8.0247 C   0  0  0  0  0  0  0  0  0  0  0  0
  -12.2575  -38.8308   -8.9202 C   0  0  0  0  0  0  0  0  0  0  0  0
  -12.4123  -37.5674   -9.6306 C   0  0  0  0  0  0  0  0  0  0  0  0
  -11.7086  -37.5032  -10.8337 O   0  0  0  0  0  0  0  0  0  0  0  0
  -12.0740  -36.3457  -11.5594 C   0  0  0  0  0  0  0  0  0  0  0  0
  -13.4325  -36.5798  -12.1829 C   0  0  0  0  0  0  0  0  0  0  0  0
  -13.6934  -35.8164  -13.4349 C   0  0  0  0  0  0  0  0  0  0  0  0
  -15.1605  -35.8316  -13.7428 C   0  0  0  0  0  0  0  0  0  0  0  0
  -15.9675  -35.7743  -12.5397 N   0  0  0  0  0  0  0  0  0  0  0  0
  -16.1473  -39.6181   -7.6563 C   0  0  2  0  0  0  0  0  0  0  0  0
  -15.4520  -39.7119   -6.4754 O   0  0  0  0  0  0  0  0  0  0  0  0
  -17.5862  -40.0527   -7.4290 C   0  0  0  0  0  0  0  0  0  0  0  0
  -17.6642  -40.8243   -6.2284 N   0  0  0  0  0  0  0  0  0  0  0  0
  -18.9784  -41.3955   -6.0081 C   0  0  0  0  0  0  0  0  0  0  0  0
  -19.6198  -40.9162   -4.6676 C   0  0  0  0  0  0  0  0  0  0  0  0
  -19.1959  -42.3359   -4.8998 C   0  0  0  0  0  0  0  0  0  0  0  0
  -19.9183  -41.3026   -7.1524 C   0  0  0  0  0  0  0  0  0  0  0  0
  -20.4055  -40.0923   -7.5803 C   0  0  0  0  0  0  0  0  0  0  0  0
  -21.2819  -39.9797   -8.6471 C   0  0  0  0  0  0  0  0  0  0  0  0
  -21.6590  -41.1433   -9.2800 C   0  0  0  0  0  0  0  0  0  0  0  0
  -21.1954  -42.3804   -8.8846 C   0  0  0  0  0  0  0  0  0  0  0  0
  -20.3116  -42.4513   -7.8030 C   0  0  0  0  0  0  0  0  0  0  0  0
  -21.8208  -38.6816   -9.1266 C   0  0  0  0  0  0  0  0  0  0  0  0
  -20.6738  -37.7940   -9.6080 C   0  0  0  0  0  0  0  0  0  0  0  0
  -22.4980  -37.9467   -7.9856 C   0  0  0  0  0  0  0  0  0  0  0  0
  1  2  1  0
  2  3  1  0
  3  4  1  0
  4  5  2  0
  5  6  1  0
  6  7  2  0
  7  8  1  0
  8  9  2  0
  8 10  1  0
 10 11  2  0
 10 12  1  0
 12 13  1  0
 13 14  1  6
 14 15  1  0
 15 16  1  0
 15 17  2  0
 17 18  1  0
 18 19  1  0
 19 20  1  0
 20 21  1  0
 21 22  1  0
 22 23  1  0
 23 24  1  0
 13 25  1  0
 25 26  1  1
 25 27  1  0
 27 28  1  0
 28 29  1  0
 29 30  1  0
 30 31  1  0
 29 32  1  0
 32 33  2  0
 33 34  1  0
 34 35  2  0
 35 36  1  0
 36 37  2  0
 34 38  1  0
 38 39  1  0
 38 40  1  0
  9  4  1  0
 24  6  1  0
 31 29  1  0
 37 32  1  0
M  END
$$$$
