
     RDKit          3D

 40 43  0  0  0  0  0  0  0  0999 V2000
  -19.1970  -46.6859  -10.7890 C   0  0  0  0  0  0  0  0  0  0  0  0
  -19.6949  -45.4042  -10.7074 O   0  0  0  0  0  0  0  0  0  0  0  0
  -18.9641  -44.4958  -11.4829 C   0  0  0  0  0  0  0  0  0  0  0  0
  -17.7567  -44.1157  -10.7030 C   0  0  0  0  0  0  0  0  0  0  0  0
  -16.4926  -44.4521  -11.0785 C   0  0  0  0  0  0  0  0  0  0  0  0
  -15.3214  -44.0987  -10.3449 C   0  0  0  0  0  0  0  0  0  0  0  0
  -15.4592  -43.3687   -9.1776 C   0  0  0  0  0  0  0  0  0  0  0  0
  -16.7347  -43.0081   -8.7682 C   0  0  0  0  0  0  0  0  0  0  0  0
  -17.8617  -43.3937   -9.5455 C   0  0  0  0  0  0  0  0  0  0  0  0
  -17.2072  -42.2225   -7.6080 C   0  0  0  0  0  0  0  0  0  0  0  0
  -18.2456  -42.7391   -6.9868 O   0  0  0  0  0  0  0  0  0  0  0  0
  -16.7189  -40.9964   -7.0601 N   0  0  0  0  0  0  0  0  0  0  0  0
  -16.1909  -39.8959   -7.8011 C   0  0  1  0  0  0  0  0  0  0  0  0
  -14.7914  -40.1875   -8.3521 C   0  0  0  0  0  0  0  0  0  0  0  0
  -13.9162  -39.0153   -8.3773 C   0  0  0  0  0  0  0  0  0  0  0  0
  -14.1387  -37.8702   -7.4510 C   0  0  0  0  0  0  0  0  0  0  0  0
  -12.9160  -38.9938   -9.2389 C   0  0  0  0  0  0  0  0  0  0  0  0
  -12.5455  -40.0164  -10.2093 C   0  0  0  0  0  0  0  0  0  0  0  0
  -11.3967  -40.7315   -9.8692 O   0  0  0  0  0  0  0  0  0  0  0  0
  -11.2245  -41.8335  -10.7387 C   0  0  0  0  0  0  0  0  0  0  0  0
  -12.2066  -42.9142  -10.3432 C   0  0  0  0  0  0  0  0  0  0  0  0
  -11.7817  -44.3042  -10.6682 C   0  0  0  0  0  0  0  0  0  0  0  0
  -12.9591  -45.2284  -10.5836 C   0  0  0  0  0  0  0  0  0  0  0  0
  -14.1800  -44.5941  -11.0407 N   0  0  0  0  0  0  0  0  0  0  0  0
  -17.0447  -39.4767   -8.9765 C   0  0  2  0  0  0  0  0  0  0  0  0
  -16.3203  -38.8522   -9.9624 O   0  0  0  0  0  0  0  0  0  0  0  0
  -18.1273  -38.5350   -8.4743 C   0  0  0  0  0  0  0  0  0  0  0  0
  -18.8417  -39.1610   -7.4062 N   0  0  0  0  0  0  0  0  0  0  0  0
  -20.2789  -39.1333   -7.5952 C   0  0  0  0  0  0  0  0  0  0  0  0
  -20.6868  -39.3003   -9.0931 C   0  0  0  0  0  0  0  0  0  0  0  0
  -20.9031  -38.0259   -8.3327 C   0  0  0  0  0  0  0  0  0  0  0  0
  -21.0617  -40.0126   -6.6922 C   0  0  0  0  0  0  0  0  0  0  0  0
  -22.3392  -39.6869   -6.3086 C   0  0  0  0  0  0  0  0  0  0  0  0
  -23.0906  -40.4923   -5.4685 C   0  0  0  0  0  0  0  0  0  0  0  0
  -22.5055  -41.6552   -5.0190 C   0  0  0  0  0  0  0  0  0  0  0  0
  -21.2256  -42.0224   -5.3778 C   0  0  0  0  0  0  0  0  0  0  0  0
  -20.5001  -41.1818   -6.2281 C   0  0  0  0  0  0  0  0  0  0  0  0
  -24.4733  -40.1596   -5.0413 C   0  0  0  0  0  0  0  0  0  0  0  0
  -24.7476  -40.7664   -3.6659 C   0  0  0  0  0  0  0  0  0  0  0  0
  -25.4754  -40.7720   -6.0011 C   0  0  0  0  0  0  0  0  0  0  0  0
  1  2  1  0
  2  3  1  0
  3  4  1  0
  4  5  2  0
  5  6  1  0
  6  7  2  0
  7  8  1  0
  8  9  2  0
  8 10  1  0
 10 11  2  0
 10 12  1  0
 12 13  1  0
 13 14  1  6
 14 15  1  0
 15 16  1  0
 15 17  2  0
 17 18  1  0
 18 19  1  0
 19 20  1  0
 20 21  1  0
 21 22  1  0
 22 23  1  0
 23 24  1  0
 13 25  1  0
 25 26  1  6
 25 27  1  0
 27 28  1  0
 28 29  1  0
 29 30  1  0
 30 31  1  0
 29 32  1  0
 32 33  2  0
 33 34  1  0
 34 35  2  0
 35 36  1  0
 36 37  2  0
 34 38  1  0
 38 39  1  0
 38 40  1  0
  9  4  1  0
 24  6  1  0
 31 29  1  0
 37 32  1  0
M  END
$$$$
