
     RDKit          3D

 40 43  0  0  0  0  0  0  0  0999 V2000
  -19.6562  -46.8610   -8.4199 C   0  0  0  0  0  0  0  0  0  0  0  0
  -18.4945  -46.1208   -8.4228 O   0  0  0  0  0  0  0  0  0  0  0  0
  -18.3953  -45.2851   -9.5419 C   0  0  0  0  0  0  0  0  0  0  0  0
  -17.1681  -44.4624   -9.3752 C   0  0  0  0  0  0  0  0  0  0  0  0
  -16.0322  -44.6668  -10.0966 C   0  0  0  0  0  0  0  0  0  0  0  0
  -14.8444  -43.8904   -9.9520 C   0  0  0  0  0  0  0  0  0  0  0  0
  -14.8272  -42.8618   -9.0267 C   0  0  0  0  0  0  0  0  0  0  0  0
  -15.9700  -42.6261   -8.2765 C   0  0  0  0  0  0  0  0  0  0  0  0
  -17.1216  -43.4385   -8.4690 C   0  0  0  0  0  0  0  0  0  0  0  0
  -16.2760  -41.6087   -7.2480 C   0  0  0  0  0  0  0  0  0  0  0  0
  -16.8930  -42.0774   -6.1846 O   0  0  0  0  0  0  0  0  0  0  0  0
  -16.0115  -40.2046   -7.2281 N   0  0  0  0  0  0  0  0  0  0  0  0
  -16.0598  -39.3241   -8.3512 C   0  0  1  0  0  0  0  0  0  0  0  0
  -14.8654  -39.5186   -9.2908 C   0  0  0  0  0  0  0  0  0  0  0  0
  -14.4036  -38.2786   -9.9152 C   0  0  0  0  0  0  0  0  0  0  0  0
  -14.6521  -36.9569   -9.2747 C   0  0  0  0  0  0  0  0  0  0  0  0
  -13.7540  -38.3543  -11.0621 C   0  0  0  0  0  0  0  0  0  0  0  0
  -13.4181  -39.5495  -11.8259 C   0  0  0  0  0  0  0  0  0  0  0  0
  -12.0678  -39.8968  -11.7712 O   0  0  0  0  0  0  0  0  0  0  0  0
  -11.8604  -41.1692  -12.3524 C   0  0  0  0  0  0  0  0  0  0  0  0
  -12.3349  -42.2246  -11.3777 C   0  0  0  0  0  0  0  0  0  0  0  0
  -11.6538  -43.5441  -11.4936 C   0  0  0  0  0  0  0  0  0  0  0  0
  -12.4431  -44.5891  -10.7640 C   0  0  0  0  0  0  0  0  0  0  0  0
  -13.8713  -44.3676  -10.8781 N   0  0  0  0  0  0  0  0  0  0  0  0
  -17.3067  -39.4668   -9.1943 C   0  0  2  0  0  0  0  0  0  0  0  0
  -17.0909  -39.1632  -10.5165 O   0  0  0  0  0  0  0  0  0  0  0  0
  -18.3759  -38.5428   -8.6339 C   0  0  0  0  0  0  0  0  0  0  0  0
  -19.6102  -39.2557   -8.5280 N   0  0  0  0  0  0  0  0  0  0  0  0
  -20.3254  -38.9681   -7.3001 C   0  0  0  0  0  0  0  0  0  0  0  0
  -20.5903  -37.4414   -7.1078 C   0  0  0  0  0  0  0  0  0  0  0  0
  -19.6645  -38.2200   -6.2214 C   0  0  0  0  0  0  0  0  0  0  0  0
  -21.5364  -39.7897   -7.0555 C   0  0  0  0  0  0  0  0  0  0  0  0
  -21.6147  -40.6457   -5.9849 C   0  0  0  0  0  0  0  0  0  0  0  0
  -22.7349  -41.4211   -5.7343 C   0  0  0  0  0  0  0  0  0  0  0  0
  -23.7913  -41.3061   -6.6104 C   0  0  0  0  0  0  0  0  0  0  0  0
  -23.7568  -40.4599   -7.6987 C   0  0  0  0  0  0  0  0  0  0  0  0
  -22.6073  -39.6937   -7.9166 C   0  0  0  0  0  0  0  0  0  0  0  0
  -22.8411  -42.3529   -4.5828 C   0  0  0  0  0  0  0  0  0  0  0  0
  -22.5156  -41.6103   -3.2875 C   0  0  0  0  0  0  0  0  0  0  0  0
  -21.8215  -43.4673   -4.7203 C   0  0  0  0  0  0  0  0  0  0  0  0
  1  2  1  0
  2  3  1  0
  3  4  1  0
  4  5  2  0
  5  6  1  0
  6  7  2  0
  7  8  1  0
  8  9  2  0
  8 10  1  0
 10 11  2  0
 10 12  1  0
 12 13  1  0
 13 14  1  6
 14 15  1  0
 15 16  1  0
 15 17  2  0
 17 18  1  0
 18 19  1  0
 19 20  1  0
 20 21  1  0
 21 22  1  0
 22 23  1  0
 23 24  1  0
 13 25  1  0
 25 26  1  6
 25 27  1  0
 27 28  1  0
 28 29  1  0
 29 30  1  0
 30 31  1  0
 29 32  1  0
 32 33  2  0
 33 34  1  0
 34 35  2  0
 35 36  1  0
 36 37  2  0
 34 38  1  0
 38 39  1  0
 38 40  1  0
  9  4  1  0
 24  6  1  0
 31 29  1  0
 37 32  1  0
M  END
$$$$
