
     RDKit          3D

 40 43  0  0  0  0  0  0  0  0999 V2000
  -23.2146  -41.7807   -3.5781 C   0  0  0  0  0  0  0  0  0  0  0  0
  -23.2100  -42.6153   -4.6739 O   0  0  0  0  0  0  0  0  0  0  0  0
  -22.6250  -42.0196   -5.7979 C   0  0  0  0  0  0  0  0  0  0  0  0
  -21.3925  -42.7874   -6.1174 C   0  0  0  0  0  0  0  0  0  0  0  0
  -21.4069  -43.9699   -6.7911 C   0  0  0  0  0  0  0  0  0  0  0  0
  -20.2371  -44.7228   -7.1069 C   0  0  0  0  0  0  0  0  0  0  0  0
  -19.0032  -44.2366   -6.7127 C   0  0  0  0  0  0  0  0  0  0  0  0
  -18.9541  -43.0323   -6.0257 C   0  0  0  0  0  0  0  0  0  0  0  0
  -20.1586  -42.3315   -5.7412 C   0  0  0  0  0  0  0  0  0  0  0  0
  -17.8156  -42.2472   -5.5022 C   0  0  0  0  0  0  0  0  0  0  0  0
  -17.9912  -41.7778   -4.2857 O   0  0  0  0  0  0  0  0  0  0  0  0
  -16.5634  -41.9174   -6.1065 N   0  0  0  0  0  0  0  0  0  0  0  0
  -16.3485  -41.6204   -7.4865 C   0  0  1  0  0  0  0  0  0  0  0  0
  -16.4241  -42.8723   -8.3665 C   0  0  0  0  0  0  0  0  0  0  0  0
  -15.4997  -42.8477   -9.5003 C   0  0  0  0  0  0  0  0  0  0  0  0
  -14.2570  -42.0274   -9.4609 C   0  0  0  0  0  0  0  0  0  0  0  0
  -15.7874  -43.5750  -10.5640 C   0  0  0  0  0  0  0  0  0  0  0  0
  -16.9449  -44.4350  -10.7767 C   0  0  0  0  0  0  0  0  0  0  0  0
  -16.6578  -45.7989  -10.7121 O   0  0  0  0  0  0  0  0  0  0  0  0
  -17.8519  -46.5564  -10.7151 C   0  0  0  0  0  0  0  0  0  0  0  0
  -18.4828  -46.4623   -9.3432 C   0  0  0  0  0  0  0  0  0  0  0  0
  -19.3256  -47.6270   -8.9538 C   0  0  0  0  0  0  0  0  0  0  0  0
  -20.1796  -47.2649   -7.7760 C   0  0  0  0  0  0  0  0  0  0  0  0
  -20.6253  -45.8866   -7.8330 N   0  0  0  0  0  0  0  0  0  0  0  0
  -17.3265  -40.6215   -8.0627 C   0  0  2  0  0  0  0  0  0  0  0  0
  -17.9147  -41.0634   -9.2227 O   0  0  0  0  0  0  0  0  0  0  0  0
  -16.5842  -39.3236   -8.3375 C   0  0  0  0  0  0  0  0  0  0  0  0
  -17.1176  -38.2882   -7.5091 N   0  0  0  0  0  0  0  0  0  0  0  0
  -17.7874  -37.2482   -8.2651 C   0  0  0  0  0  0  0  0  0  0  0  0
  -17.4877  -35.8201   -7.7097 C   0  0  0  0  0  0  0  0  0  0  0  0
  -18.8476  -36.4479   -7.6363 C   0  0  0  0  0  0  0  0  0  0  0  0
  -17.6357  -37.3276   -9.7389 C   0  0  0  0  0  0  0  0  0  0  0  0
  -18.4883  -36.6586  -10.5820 C   0  0  0  0  0  0  0  0  0  0  0  0
  -18.3657  -36.7154  -11.9606 C   0  0  0  0  0  0  0  0  0  0  0  0
  -17.3409  -37.4799  -12.4724 C   0  0  0  0  0  0  0  0  0  0  0  0
  -16.4612  -38.1688  -11.6641 C   0  0  0  0  0  0  0  0  0  0  0  0
  -16.6189  -38.0854  -10.2770 C   0  0  0  0  0  0  0  0  0  0  0  0
  -19.2760  -36.0000  -12.8906 C   0  0  0  0  0  0  0  0  0  0  0  0
  -19.6362  -34.6334  -12.3095 C   0  0  0  0  0  0  0  0  0  0  0  0
  -20.5737  -36.7703  -13.0427 C   0  0  0  0  0  0  0  0  0  0  0  0
  1  2  1  0
  2  3  1  0
  3  4  1  0
  4  5  2  0
  5  6  1  0
  6  7  2  0
  7  8  1  0
  8  9  2  0
  8 10  1  0
 10 11  2  0
 10 12  1  0
 12 13  1  0
 13 14  1  6
 14 15  1  0
 15 16  1  0
 15 17  2  0
 17 18  1  0
 18 19  1  0
 19 20  1  0
 20 21  1  0
 21 22  1  0
 22 23  1  0
 23 24  1  0
 13 25  1  0
 25 26  1  6
 25 27  1  0
 27 28  1  0
 28 29  1  0
 29 30  1  0
 30 31  1  0
 29 32  1  0
 32 33  2  0
 33 34  1  0
 34 35  2  0
 35 36  1  0
 36 37  2  0
 34 38  1  0
 38 39  1  0
 38 40  1  0
  9  4  1  0
 24  6  1  0
 31 29  1  0
 37 32  1  0
M  END
$$$$
