
     RDKit          3D

 40 43  0  0  0  0  0  0  0  0999 V2000
  -20.1394  -40.3949  -12.0151 C   0  0  0  0  0  0  0  0  0  0  0  0
  -19.7726  -41.3265  -12.9611 O   0  0  0  0  0  0  0  0  0  0  0  0
  -19.3147  -42.5192  -12.3882 C   0  0  0  0  0  0  0  0  0  0  0  0
  -17.8910  -42.3142  -12.0119 C   0  0  0  0  0  0  0  0  0  0  0  0
  -16.9390  -41.9096  -12.8964 C   0  0  0  0  0  0  0  0  0  0  0  0
  -15.5683  -41.7077  -12.5570 C   0  0  0  0  0  0  0  0  0  0  0  0
  -15.1631  -41.9318  -11.2531 C   0  0  0  0  0  0  0  0  0  0  0  0
  -16.1099  -42.3432  -10.3263 C   0  0  0  0  0  0  0  0  0  0  0  0
  -17.4611  -42.5271  -10.7306 C   0  0  0  0  0  0  0  0  0  0  0  0
  -16.0055  -42.6341   -8.8803 C   0  0  0  0  0  0  0  0  0  0  0  0
  -16.6268  -43.7292   -8.4987 O   0  0  0  0  0  0  0  0  0  0  0  0
  -15.3428  -41.9160   -7.8375 N   0  0  0  0  0  0  0  0  0  0  0  0
  -15.2405  -40.4960   -7.7284 C   0  0  1  0  0  0  0  0  0  0  0  0
  -14.2510  -39.9077   -8.7393 C   0  0  0  0  0  0  0  0  0  0  0  0
  -13.5104  -38.7532   -8.2299 C   0  0  0  0  0  0  0  0  0  0  0  0
  -13.3001  -38.5593   -6.7681 C   0  0  0  0  0  0  0  0  0  0  0  0
  -13.0248  -37.8835   -9.0965 C   0  0  0  0  0  0  0  0  0  0  0  0
  -13.1268  -37.9128  -10.5502 C   0  0  0  0  0  0  0  0  0  0  0  0
  -11.9377  -38.2534  -11.1957 O   0  0  0  0  0  0  0  0  0  0  0  0
  -12.1669  -38.4672  -12.5747 C   0  0  0  0  0  0  0  0  0  0  0  0
  -12.8321  -39.8152  -12.7467 C   0  0  0  0  0  0  0  0  0  0  0  0
  -12.5793  -40.4826  -14.0540 C   0  0  0  0  0  0  0  0  0  0  0  0
  -13.5648  -41.5942  -14.2559 C   0  0  0  0  0  0  0  0  0  0  0  0
  -14.8705  -41.2653  -13.7187 N   0  0  0  0  0  0  0  0  0  0  0  0
  -16.5502  -39.7659   -7.9233 C   0  0  2  0  0  0  0  0  0  0  0  0
  -16.6399  -38.6252   -7.1634 O   0  0  0  0  0  0  0  0  0  0  0  0
  -17.6860  -40.7068   -7.5549 C   0  0  0  0  0  0  0  0  0  0  0  0
  -18.6924  -40.6543   -8.5684 N   0  0  0  0  0  0  0  0  0  0  0  0
  -19.9721  -41.1686   -8.1212 C   0  0  0  0  0  0  0  0  0  0  0  0
  -19.9372  -42.7072   -7.8579 C   0  0  0  0  0  0  0  0  0  0  0  0
  -20.7314  -42.0948   -8.9729 C   0  0  0  0  0  0  0  0  0  0  0  0
  -20.6139  -40.4176   -7.0142 C   0  0  0  0  0  0  0  0  0  0  0  0
  -20.9071  -39.0815   -7.1331 C   0  0  0  0  0  0  0  0  0  0  0  0
  -21.5079  -38.3594   -6.1150 C   0  0  0  0  0  0  0  0  0  0  0  0
  -21.8090  -39.0360   -4.9538 C   0  0  0  0  0  0  0  0  0  0  0  0
  -21.5327  -40.3771   -4.7899 C   0  0  0  0  0  0  0  0  0  0  0  0
  -20.9256  -41.0704   -5.8419 C   0  0  0  0  0  0  0  0  0  0  0  0
  -21.8339  -36.9146   -6.2222 C   0  0  0  0  0  0  0  0  0  0  0  0
  -23.3066  -36.7449   -6.5931 C   0  0  0  0  0  0  0  0  0  0  0  0
  -21.0228  -36.2800   -7.3357 C   0  0  0  0  0  0  0  0  0  0  0  0
  1  2  1  0
  2  3  1  0
  3  4  1  0
  4  5  2  0
  5  6  1  0
  6  7  2  0
  7  8  1  0
  8  9  2  0
  8 10  1  0
 10 11  2  0
 10 12  1  0
 12 13  1  0
 13 14  1  6
 14 15  1  0
 15 16  1  0
 15 17  2  0
 17 18  1  0
 18 19  1  0
 19 20  1  0
 20 21  1  0
 21 22  1  0
 22 23  1  0
 23 24  1  0
 13 25  1  0
 25 26  1  1
 25 27  1  0
 27 28  1  0
 28 29  1  0
 29 30  1  0
 30 31  1  0
 29 32  1  0
 32 33  2  0
 33 34  1  0
 34 35  2  0
 35 36  1  0
 36 37  2  0
 34 38  1  0
 38 39  1  0
 38 40  1  0
  9  4  1  0
 24  6  1  0
 31 29  1  0
 37 32  1  0
M  END
$$$$
