
     RDKit          3D

 34 35  0  0  0  0  0  0  0  0999 V2000
  -13.5117  -35.1742  -11.7929 C   0  0  0  0  0  0  0  0  0  0  0  0
  -13.0376  -36.1023  -12.8610 C   0  0  0  0  0  0  0  0  0  0  0  0
  -13.5955  -35.7537  -14.2249 C   0  0  0  0  0  0  0  0  0  0  0  0
  -13.4034  -37.5071  -12.4869 C   0  0  0  0  0  0  0  0  0  0  0  0
  -13.9710  -38.3340  -13.4327 C   0  0  0  0  0  0  0  0  0  0  0  0
  -14.3096  -39.6213  -13.0880 C   0  0  0  0  0  0  0  0  0  0  0  0
  -14.0857  -40.0968  -11.7964 C   0  0  0  0  0  0  0  0  0  0  0  0
  -13.5218  -39.2852  -10.8451 C   0  0  0  0  0  0  0  0  0  0  0  0
  -13.2715  -39.7509   -9.4481 C   0  0  0  0  0  0  0  0  0  0  0  0
  -14.4541  -40.1962   -8.7787 N   0  0  0  0  0  0  0  0  0  0  0  0
  -15.3426  -39.1939   -8.2954 C   0  0  0  0  0  0  0  0  0  0  0  0
  -16.3633  -39.6484   -7.3120 C   0  0  1  0  0  0  0  0  0  0  0  0
  -16.5753  -38.8302   -6.2446 O   0  0  0  0  0  0  0  0  0  0  0  0
  -17.7072  -40.0420   -7.9826 C   0  0  2  0  0  0  0  0  0  0  0  0
  -18.7519  -39.7655   -6.9915 C   0  0  0  0  0  0  0  0  0  0  0  0
  -19.9882  -39.0654   -7.4641 C   0  0  2  0  0  0  0  0  0  0  0  0
  -19.7773  -37.7925   -8.2071 C   0  0  0  0  0  0  0  0  0  0  0  0
  -20.8833  -38.8635   -6.2447 C   0  0  0  0  0  0  0  0  0  0  0  0
  -21.5227  -40.2108   -5.9498 C   0  0  0  0  0  0  0  0  0  0  0  0
  -23.0277  -40.1002   -5.9155 C   0  0  0  0  0  0  0  0  0  0  0  0
  -23.5831  -40.9246   -7.0564 C   0  0  0  0  0  0  0  0  0  0  0  0
  -23.3140  -42.3877   -6.7301 C   0  0  0  0  0  0  0  0  0  0  0  0
  -23.4219  -43.1210   -7.8817 O   0  0  0  0  0  0  0  0  0  0  0  0
  -22.4490  -44.0984   -8.0627 C   0  0  0  0  0  0  0  0  0  0  0  0
  -21.3955  -44.1239   -7.0609 C   0  0  0  0  0  0  0  0  0  0  0  0
  -21.6797  -44.7431   -5.9597 O   0  0  0  0  0  0  0  0  0  0  0  0
  -20.1062  -43.5375   -7.1907 N   0  0  0  0  0  0  0  0  0  0  0  0
  -19.3967  -43.3921   -5.9098 C   0  0  0  0  0  0  0  0  0  0  0  0
  -19.4768  -43.1219   -8.4041 C   0  0  1  0  0  0  0  0  0  0  0  0
  -20.2892  -42.2776   -9.3325 C   0  0  0  0  0  0  0  0  0  0  0  0
  -18.0896  -42.6094   -8.2341 C   0  0  0  0  0  0  0  0  0  0  0  0
  -17.2887  -43.5127   -7.7669 O   0  0  0  0  0  0  0  0  0  0  0  0
  -17.5498  -41.3705   -8.4931 N   0  0  0  0  0  0  0  0  0  0  0  0
  -13.1855  -37.9836  -11.2149 C   0  0  0  0  0  0  0  0  0  0  0  0
  1  2  1  0
  2  3  1  0
  2  4  1  0
  4  5  2  0
  5  6  1  0
  6  7  2  0
  7  8  1  0
  8  9  1  0
  9 10  1  0
 10 11  1  0
 11 12  1  0
 12 13  1  1
 12 14  1  0
 14 15  1  1
 15 16  1  0
 16 17  1  1
 16 18  1  0
 18 19  1  0
 19 20  1  0
 20 21  1  0
 21 22  1  0
 22 23  1  0
 23 24  1  0
 24 25  1  0
 25 26  2  0
 25 27  1  0
 27 28  1  0
 27 29  1  0
 29 30  1  1
 29 31  1  0
 31 32  2  0
 31 33  1  0
  8 34  2  0
 33 14  1  0
 34  4  1  0
M  END
$$$$
