
     RDKit          3D

 34 35  0  0  0  0  0  0  0  0999 V2000
  -22.3131  -42.6026   -4.9727 C   0  0  0  0  0  0  0  0  0  0  0  0
  -22.8822  -42.1227   -6.2661 C   0  0  0  0  0  0  0  0  0  0  0  0
  -22.5659  -43.0498   -7.4208 C   0  0  0  0  0  0  0  0  0  0  0  0
  -22.3688  -40.7421   -6.5447 C   0  0  0  0  0  0  0  0  0  0  0  0
  -23.1724  -39.8426   -7.2123 C   0  0  0  0  0  0  0  0  0  0  0  0
  -22.6996  -38.5775   -7.4707 C   0  0  0  0  0  0  0  0  0  0  0  0
  -21.4205  -38.1969   -7.0660 C   0  0  0  0  0  0  0  0  0  0  0  0
  -20.6101  -39.0816   -6.4011 C   0  0  0  0  0  0  0  0  0  0  0  0
  -19.2310  -38.7185   -5.9565 C   0  0  0  0  0  0  0  0  0  0  0  0
  -18.2334  -38.9563   -6.9531 N   0  0  0  0  0  0  0  0  0  0  0  0
  -17.1575  -38.0266   -7.0291 C   0  0  0  0  0  0  0  0  0  0  0  0
  -16.5588  -37.8330   -8.3779 C   0  0  1  0  0  0  0  0  0  0  0  0
  -16.3237  -36.5449   -8.7516 O   0  0  0  0  0  0  0  0  0  0  0  0
  -15.3006  -38.7135   -8.6067 C   0  0  2  0  0  0  0  0  0  0  0  0
  -14.7382  -38.2917   -9.8935 C   0  0  0  0  0  0  0  0  0  0  0  0
  -13.2566  -38.0888   -9.9696 C   0  0  2  0  0  0  0  0  0  0  0  0
  -12.6653  -37.1850   -8.9449 C   0  0  0  0  0  0  0  0  0  0  0  0
  -12.9407  -37.6168  -11.3860 C   0  0  0  0  0  0  0  0  0  0  0  0
  -13.0155  -38.8454  -12.2781 C   0  0  0  0  0  0  0  0  0  0  0  0
  -11.7323  -39.0328  -13.0507 C   0  0  0  0  0  0  0  0  0  0  0  0
  -11.0938  -40.3251  -12.5902 C   0  0  0  0  0  0  0  0  0  0  0  0
  -11.9824  -41.4649  -13.0706 C   0  0  0  0  0  0  0  0  0  0  0  0
  -11.6805  -42.5900  -12.3504 O   0  0  0  0  0  0  0  0  0  0  0  0
  -12.7716  -43.3465  -11.9361 C   0  0  0  0  0  0  0  0  0  0  0  0
  -14.0758  -42.7744  -12.2293 C   0  0  0  0  0  0  0  0  0  0  0  0
  -14.5180  -42.9660  -13.4312 O   0  0  0  0  0  0  0  0  0  0  0  0
  -14.8873  -42.0385  -11.3221 N   0  0  0  0  0  0  0  0  0  0  0  0
  -15.9578  -41.2737  -11.9811 C   0  0  0  0  0  0  0  0  0  0  0  0
  -14.7606  -42.0047   -9.8995 C   0  0  1  0  0  0  0  0  0  0  0  0
  -13.3924  -41.7624   -9.3480 C   0  0  0  0  0  0  0  0  0  0  0  0
  -15.8048  -41.2007   -9.2072 C   0  0  0  0  0  0  0  0  0  0  0  0
  -16.9937  -41.6757   -9.3980 O   0  0  0  0  0  0  0  0  0  0  0  0
  -15.7008  -40.0758   -8.4216 N   0  0  0  0  0  0  0  0  0  0  0  0
  -21.1083  -40.3591   -6.1486 C   0  0  0  0  0  0  0  0  0  0  0  0
  1  2  1  0
  2  3  1  0
  2  4  1  0
  4  5  2  0
  5  6  1  0
  6  7  2  0
  7  8  1  0
  8  9  1  0
  9 10  1  0
 10 11  1  0
 11 12  1  0
 12 13  1  1
 12 14  1  0
 14 15  1  6
 15 16  1  0
 16 17  1  1
 16 18  1  0
 18 19  1  0
 19 20  1  0
 20 21  1  0
 21 22  1  0
 22 23  1  0
 23 24  1  0
 24 25  1  0
 25 26  2  0
 25 27  1  0
 27 28  1  0
 27 29  1  0
 29 30  1  6
 29 31  1  0
 31 32  2  0
 31 33  1  0
  8 34  2  0
 33 14  1  0
 34  4  1  0
M  END
$$$$
