
     RDKit          3D

 34 35  0  0  0  0  0  0  0  0999 V2000
  -14.2736  -34.0214  -10.9889 C   0  0  0  0  0  0  0  0  0  0  0  0
  -14.7156  -34.4962  -12.3328 C   0  0  0  0  0  0  0  0  0  0  0  0
  -16.0833  -33.9706  -12.7150 C   0  0  0  0  0  0  0  0  0  0  0  0
  -14.7049  -35.9952  -12.3504 C   0  0  0  0  0  0  0  0  0  0  0  0
  -14.9579  -36.6605  -13.5311 C   0  0  0  0  0  0  0  0  0  0  0  0
  -14.9515  -38.0354  -13.5458 C   0  0  0  0  0  0  0  0  0  0  0  0
  -14.6927  -38.7606  -12.3832 C   0  0  0  0  0  0  0  0  0  0  0  0
  -14.4395  -38.1119  -11.2015 C   0  0  0  0  0  0  0  0  0  0  0  0
  -14.1653  -38.8490   -9.9315 C   0  0  0  0  0  0  0  0  0  0  0  0
  -14.6025  -38.1484   -8.7640 N   0  0  0  0  0  0  0  0  0  0  0  0
  -16.0055  -38.0945   -8.5268 C   0  0  0  0  0  0  0  0  0  0  0  0
  -16.5394  -39.0851   -7.5528 C   0  0  1  0  0  0  0  0  0  0  0  0
  -16.5501  -38.6984   -6.2473 O   0  0  0  0  0  0  0  0  0  0  0  0
  -17.9224  -39.6523   -7.9727 C   0  0  2  0  0  0  0  0  0  0  0  0
  -18.7828  -39.5414   -6.7905 C   0  0  0  0  0  0  0  0  0  0  0  0
  -20.1700  -39.0140   -6.9896 C   0  0  2  0  0  0  0  0  0  0  0  0
  -20.2802  -37.7122   -7.7036 C   0  0  0  0  0  0  0  0  0  0  0  0
  -20.8308  -38.9598   -5.6151 C   0  0  0  0  0  0  0  0  0  0  0  0
  -21.2138  -40.3880   -5.2626 C   0  0  0  0  0  0  0  0  0  0  0  0
  -22.6846  -40.4903   -4.9389 C   0  0  0  0  0  0  0  0  0  0  0  0
  -23.3344  -41.3656   -5.9884 C   0  0  0  0  0  0  0  0  0  0  0  0
  -22.8129  -42.7817   -5.7823 C   0  0  0  0  0  0  0  0  0  0  0  0
  -23.0422  -43.5039   -6.9231 O   0  0  0  0  0  0  0  0  0  0  0  0
  -22.0003  -44.3320   -7.3272 C   0  0  0  0  0  0  0  0  0  0  0  0
  -20.7790  -44.2259   -6.5454 C   0  0  0  0  0  0  0  0  0  0  0  0
  -20.7586  -44.8968   -5.4380 O   0  0  0  0  0  0  0  0  0  0  0  0
  -19.6301  -43.4623   -6.8919 N   0  0  0  0  0  0  0  0  0  0  0  0
  -18.7120  -43.2398   -5.7637 C   0  0  0  0  0  0  0  0  0  0  0  0
  -19.3095  -42.9427   -8.1835 C   0  0  1  0  0  0  0  0  0  0  0  0
  -20.3924  -42.2056   -8.9038 C   0  0  0  0  0  0  0  0  0  0  0  0
  -17.9974  -42.2435   -8.2577 C   0  0  0  0  0  0  0  0  0  0  0  0
  -17.0071  -43.0331   -7.9901 O   0  0  0  0  0  0  0  0  0  0  0  0
  -17.6896  -40.9370   -8.5607 N   0  0  0  0  0  0  0  0  0  0  0  0
  -14.4505  -36.7177  -11.2078 C   0  0  0  0  0  0  0  0  0  0  0  0
  1  2  1  0
  2  3  1  0
  2  4  1  0
  4  5  2  0
  5  6  1  0
  6  7  2  0
  7  8  1  0
  8  9  1  0
  9 10  1  0
 10 11  1  0
 11 12  1  0
 12 13  1  1
 12 14  1  0
 14 15  1  1
 15 16  1  0
 16 17  1  1
 16 18  1  0
 18 19  1  0
 19 20  1  0
 20 21  1  0
 21 22  1  0
 22 23  1  0
 23 24  1  0
 24 25  1  0
 25 26  2  0
 25 27  1  0
 27 28  1  0
 27 29  1  0
 29 30  1  1
 29 31  1  0
 31 32  2  0
 31 33  1  0
  8 34  2  0
 33 14  1  0
 34  4  1  0
M  END
$$$$
