
     RDKit          3D

 34 35  0  0  0  0  0  0  0  0999 V2000
  -14.3096  -33.5653  -12.4959 C   0  0  0  0  0  0  0  0  0  0  0  0
  -13.3973  -34.4240  -11.6851 C   0  0  0  0  0  0  0  0  0  0  0  0
  -11.9358  -34.1692  -11.9883 C   0  0  0  0  0  0  0  0  0  0  0  0
  -13.7401  -35.8638  -11.9229 C   0  0  0  0  0  0  0  0  0  0  0  0
  -14.3636  -36.2265  -13.0978 C   0  0  0  0  0  0  0  0  0  0  0  0
  -14.6810  -37.5468  -13.3138 C   0  0  0  0  0  0  0  0  0  0  0  0
  -14.3798  -38.5187  -12.3603 C   0  0  0  0  0  0  0  0  0  0  0  0
  -13.7598  -38.1722  -11.1868 C   0  0  0  0  0  0  0  0  0  0  0  0
  -13.4260  -39.1792  -10.1352 C   0  0  0  0  0  0  0  0  0  0  0  0
  -14.2928  -39.1209   -8.9993 N   0  0  0  0  0  0  0  0  0  0  0  0
  -15.6744  -39.3831   -9.2231 C   0  0  0  0  0  0  0  0  0  0  0  0
  -16.5356  -39.4151   -8.0097 C   0  0  1  0  0  0  0  0  0  0  0  0
  -16.5736  -38.2727   -7.2696 O   0  0  0  0  0  0  0  0  0  0  0  0
  -17.9702  -39.9293   -8.3069 C   0  0  2  0  0  0  0  0  0  0  0  0
  -18.6941  -39.8723   -7.0330 C   0  0  0  0  0  0  0  0  0  0  0  0
  -20.0806  -39.3071   -7.0481 C   0  0  2  0  0  0  0  0  0  0  0  0
  -20.2339  -37.9631   -7.6701 C   0  0  0  0  0  0  0  0  0  0  0  0
  -20.5868  -39.3220   -5.6085 C   0  0  0  0  0  0  0  0  0  0  0  0
  -20.9660  -40.7610   -5.2982 C   0  0  0  0  0  0  0  0  0  0  0  0
  -22.3951  -40.8538   -4.8213 C   0  0  0  0  0  0  0  0  0  0  0  0
  -23.1774  -41.6522   -5.8413 C   0  0  0  0  0  0  0  0  0  0  0  0
  -22.6734  -43.0879   -5.7750 C   0  0  0  0  0  0  0  0  0  0  0  0
  -23.0436  -43.7362   -6.9231 O   0  0  0  0  0  0  0  0  0  0  0  0
  -22.0735  -44.5589   -7.4857 C   0  0  0  0  0  0  0  0  0  0  0  0
  -20.7722  -44.5233   -6.8380 C   0  0  0  0  0  0  0  0  0  0  0  0
  -20.6491  -45.2592   -5.7796 O   0  0  0  0  0  0  0  0  0  0  0  0
  -19.6484  -43.7629   -7.2643 N   0  0  0  0  0  0  0  0  0  0  0  0
  -18.6079  -43.6259   -6.2329 C   0  0  0  0  0  0  0  0  0  0  0  0
  -19.4564  -43.1736   -8.5516 C   0  0  1  0  0  0  0  0  0  0  0  0
  -20.5917  -42.3741   -9.1053 C   0  0  0  0  0  0  0  0  0  0  0  0
  -18.1426  -42.4969   -8.7293 C   0  0  0  0  0  0  0  0  0  0  0  0
  -17.1498  -43.3201   -8.6177 O   0  0  0  0  0  0  0  0  0  0  0  0
  -17.8358  -41.1809   -8.9892 N   0  0  0  0  0  0  0  0  0  0  0  0
  -13.4463  -36.8284  -10.9872 C   0  0  0  0  0  0  0  0  0  0  0  0
  1  2  1  0
  2  3  1  0
  2  4  1  0
  4  5  2  0
  5  6  1  0
  6  7  2  0
  7  8  1  0
  8  9  1  0
  9 10  1  0
 10 11  1  0
 11 12  1  0
 12 13  1  6
 12 14  1  0
 14 15  1  1
 15 16  1  0
 16 17  1  1
 16 18  1  0
 18 19  1  0
 19 20  1  0
 20 21  1  0
 21 22  1  0
 22 23  1  0
 23 24  1  0
 24 25  1  0
 25 26  2  0
 25 27  1  0
 27 28  1  0
 27 29  1  0
 29 30  1  1
 29 31  1  0
 31 32  2  0
 31 33  1  0
  8 34  2  0
 33 14  1  0
 34  4  1  0
M  END
$$$$
