
     RDKit          3D

 34 35  0  0  0  0  0  0  0  0999 V2000
  -15.3958  -34.0807  -10.7890 C   0  0  0  0  0  0  0  0  0  0  0  0
  -13.9959  -34.3241  -11.2450 C   0  0  0  0  0  0  0  0  0  0  0  0
  -13.5720  -33.3817  -12.3519 C   0  0  0  0  0  0  0  0  0  0  0  0
  -13.8668  -35.7497  -11.6905 C   0  0  0  0  0  0  0  0  0  0  0  0
  -13.5762  -36.0233  -13.0100 C   0  0  0  0  0  0  0  0  0  0  0  0
  -13.4614  -37.3311  -13.4187 C   0  0  0  0  0  0  0  0  0  0  0  0
  -13.6355  -38.3793  -12.5156 C   0  0  0  0  0  0  0  0  0  0  0  0
  -13.9253  -38.1218  -11.1998 C   0  0  0  0  0  0  0  0  0  0  0  0
  -14.1273  -39.2137  -10.2006 C   0  0  0  0  0  0  0  0  0  0  0  0
  -14.2415  -38.7381   -8.8569 N   0  0  0  0  0  0  0  0  0  0  0  0
  -15.5377  -38.3492   -8.4140 C   0  0  0  0  0  0  0  0  0  0  0  0
  -16.2288  -39.3043   -7.5055 C   0  0  1  0  0  0  0  0  0  0  0  0
  -16.4212  -38.8834   -6.2250 O   0  0  0  0  0  0  0  0  0  0  0  0
  -17.5476  -39.8579   -8.1097 C   0  0  2  0  0  0  0  0  0  0  0  0
  -18.5743  -39.6761   -7.0787 C   0  0  0  0  0  0  0  0  0  0  0  0
  -19.8991  -39.1266   -7.5088 C   0  0  2  0  0  0  0  0  0  0  0  0
  -19.8615  -37.8550   -8.2823 C   0  0  0  0  0  0  0  0  0  0  0  0
  -20.7596  -38.9974   -6.2551 C   0  0  0  0  0  0  0  0  0  0  0  0
  -21.2330  -40.3999   -5.9091 C   0  0  0  0  0  0  0  0  0  0  0  0
  -22.7383  -40.4547   -5.8109 C   0  0  0  0  0  0  0  0  0  0  0  0
  -23.2460  -41.3600   -6.9120 C   0  0  0  0  0  0  0  0  0  0  0  0
  -22.8033  -42.7771   -6.5725 C   0  0  0  0  0  0  0  0  0  0  0  0
  -22.8771  -43.5431   -7.7054 O   0  0  0  0  0  0  0  0  0  0  0  0
  -21.8104  -44.4114   -7.9118 C   0  0  0  0  0  0  0  0  0  0  0  0
  -20.7198  -44.2990   -6.9569 C   0  0  0  0  0  0  0  0  0  0  0  0
  -20.8876  -44.9212   -5.8337 O   0  0  0  0  0  0  0  0  0  0  0  0
  -19.5098  -43.5774   -7.1531 N   0  0  0  0  0  0  0  0  0  0  0  0
  -18.7681  -43.3268   -5.9073 C   0  0  0  0  0  0  0  0  0  0  0  0
  -18.9814  -43.1221   -8.3999 C   0  0  1  0  0  0  0  0  0  0  0  0
  -19.9201  -42.3928   -9.3064 C   0  0  0  0  0  0  0  0  0  0  0  0
  -17.6536  -42.4567   -8.2997 C   0  0  0  0  0  0  0  0  0  0  0  0
  -16.7388  -43.2560   -7.8525 O   0  0  0  0  0  0  0  0  0  0  0  0
  -17.2654  -41.1719   -8.6035 N   0  0  0  0  0  0  0  0  0  0  0  0
  -14.0371  -36.7891  -10.8056 C   0  0  0  0  0  0  0  0  0  0  0  0
  1  2  1  0
  2  3  1  0
  2  4  1  0
  4  5  2  0
  5  6  1  0
  6  7  2  0
  7  8  1  0
  8  9  1  0
  9 10  1  0
 10 11  1  0
 11 12  1  0
 12 13  1  1
 12 14  1  0
 14 15  1  1
 15 16  1  0
 16 17  1  1
 16 18  1  0
 18 19  1  0
 19 20  1  0
 20 21  1  0
 21 22  1  0
 22 23  1  0
 23 24  1  0
 24 25  1  0
 25 26  2  0
 25 27  1  0
 27 28  1  0
 27 29  1  0
 29 30  1  1
 29 31  1  0
 31 32  2  0
 31 33  1  0
  8 34  2  0
 33 14  1  0
 34  4  1  0
M  END
$$$$
