
     RDKit          3D

 34 35  0  0  0  0  0  0  0  0999 V2000
  -12.9576  -34.7208  -11.5497 C   0  0  0  0  0  0  0  0  0  0  0  0
  -13.9072  -35.4124  -12.4700 C   0  0  0  0  0  0  0  0  0  0  0  0
  -15.3560  -35.1399  -12.1236 C   0  0  0  0  0  0  0  0  0  0  0  0
  -13.6289  -36.8851  -12.4446 C   0  0  0  0  0  0  0  0  0  0  0  0
  -13.1493  -37.5034  -13.5797 C   0  0  0  0  0  0  0  0  0  0  0  0
  -12.8975  -38.8550  -13.5568 C   0  0  0  0  0  0  0  0  0  0  0  0
  -13.1216  -39.6036  -12.4019 C   0  0  0  0  0  0  0  0  0  0  0  0
  -13.5987  -39.0016  -11.2654 C   0  0  0  0  0  0  0  0  0  0  0  0
  -13.8603  -39.7664  -10.0092 C   0  0  0  0  0  0  0  0  0  0  0  0
  -14.2854  -38.9411   -8.9215 N   0  0  0  0  0  0  0  0  0  0  0  0
  -15.6664  -38.5981   -8.8683 C   0  0  0  0  0  0  0  0  0  0  0  0
  -16.4389  -39.1818   -7.7379 C   0  0  1  0  0  0  0  0  0  0  0  0
  -16.6484  -38.3655   -6.6685 O   0  0  0  0  0  0  0  0  0  0  0  0
  -17.7666  -39.8423   -8.1979 C   0  0  2  0  0  0  0  0  0  0  0  0
  -18.7646  -39.5001   -7.1795 C   0  0  0  0  0  0  0  0  0  0  0  0
  -20.1100  -39.0441   -7.6528 C   0  0  2  0  0  0  0  0  0  0  0  0
  -20.1151  -37.9202   -8.6293 C   0  0  0  0  0  0  0  0  0  0  0  0
  -20.9342  -38.7147   -6.4114 C   0  0  0  0  0  0  0  0  0  0  0  0
  -21.3755  -40.0438   -5.8202 C   0  0  0  0  0  0  0  0  0  0  0  0
  -22.8762  -40.0964   -5.6658 C   0  0  0  0  0  0  0  0  0  0  0  0
  -23.4028  -41.1790   -6.5826 C   0  0  0  0  0  0  0  0  0  0  0  0
  -22.9284  -42.5144   -6.0247 C   0  0  0  0  0  0  0  0  0  0  0  0
  -23.0245  -43.4605   -7.0102 O   0  0  0  0  0  0  0  0  0  0  0  0
  -21.9513  -44.3404   -7.1024 C   0  0  0  0  0  0  0  0  0  0  0  0
  -20.8343  -44.0581   -6.2154 C   0  0  0  0  0  0  0  0  0  0  0  0
  -20.9588  -44.4844   -4.9990 O   0  0  0  0  0  0  0  0  0  0  0  0
  -19.6420  -43.3677   -6.5687 N   0  0  0  0  0  0  0  0  0  0  0  0
  -18.8671  -42.9038   -5.4070 C   0  0  0  0  0  0  0  0  0  0  0  0
  -19.1583  -43.1231   -7.8905 C   0  0  1  0  0  0  0  0  0  0  0  0
  -20.1350  -42.5660   -8.8757 C   0  0  0  0  0  0  0  0  0  0  0  0
  -17.8384  -42.4370   -7.9461 C   0  0  0  0  0  0  0  0  0  0  0  0
  -16.8985  -43.1405   -7.4009 O   0  0  0  0  0  0  0  0  0  0  0  0
  -17.4793  -41.2177   -8.4734 N   0  0  0  0  0  0  0  0  0  0  0  0
  -13.8473  -37.6304  -11.3092 C   0  0  0  0  0  0  0  0  0  0  0  0
  1  2  1  0
  2  3  1  0
  2  4  1  0
  4  5  2  0
  5  6  1  0
  6  7  2  0
  7  8  1  0
  8  9  1  0
  9 10  1  0
 10 11  1  0
 11 12  1  0
 12 13  1  1
 12 14  1  0
 14 15  1  1
 15 16  1  0
 16 17  1  6
 16 18  1  0
 18 19  1  0
 19 20  1  0
 20 21  1  0
 21 22  1  0
 22 23  1  0
 23 24  1  0
 24 25  1  0
 25 26  2  0
 25 27  1  0
 27 28  1  0
 27 29  1  0
 29 30  1  6
 29 31  1  0
 31 32  2  0
 31 33  1  0
  8 34  2  0
 33 14  1  0
 34  4  1  0
M  END
$$$$
