
     RDKit          3D

 34 35  0  0  0  0  0  0  0  0999 V2000
  -11.9300  -34.8316  -12.6020 C   0  0  0  0  0  0  0  0  0  0  0  0
  -13.0757  -35.4699  -13.3140 C   0  0  0  0  0  0  0  0  0  0  0  0
  -14.3801  -34.7320  -13.0966 C   0  0  0  0  0  0  0  0  0  0  0  0
  -13.1975  -36.8954  -12.8664 C   0  0  0  0  0  0  0  0  0  0  0  0
  -13.2977  -37.8954  -13.8101 C   0  0  0  0  0  0  0  0  0  0  0  0
  -13.4129  -39.2024  -13.3989 C   0  0  0  0  0  0  0  0  0  0  0  0
  -13.4295  -39.5253  -12.0424 C   0  0  0  0  0  0  0  0  0  0  0  0
  -13.3307  -38.5406  -11.0926 C   0  0  0  0  0  0  0  0  0  0  0  0
  -13.3520  -38.8408   -9.6294 C   0  0  0  0  0  0  0  0  0  0  0  0
  -14.5905  -38.5027   -8.9996 N   0  0  0  0  0  0  0  0  0  0  0  0
  -15.6761  -39.4072   -9.1752 C   0  0  0  0  0  0  0  0  0  0  0  0
  -16.3712  -39.8388   -7.9319 C   0  0  1  0  0  0  0  0  0  0  0  0
  -16.3984  -38.9348   -6.9140 O   0  0  0  0  0  0  0  0  0  0  0  0
  -17.7903  -40.4063   -8.2054 C   0  0  2  0  0  0  0  0  0  0  0  0
  -18.6117  -40.0183   -7.0544 C   0  0  0  0  0  0  0  0  0  0  0  0
  -19.9776  -39.4704   -7.3305 C   0  0  2  0  0  0  0  0  0  0  0  0
  -20.0462  -38.3327   -8.2885 C   0  0  0  0  0  0  0  0  0  0  0  0
  -20.5970  -39.1098   -5.9832 C   0  0  0  0  0  0  0  0  0  0  0  0
  -21.0367  -40.4177   -5.3454 C   0  0  0  0  0  0  0  0  0  0  0  0
  -22.5012  -40.3777   -4.9820 C   0  0  0  0  0  0  0  0  0  0  0  0
  -23.2201  -41.4097   -5.8235 C   0  0  0  0  0  0  0  0  0  0  0  0
  -22.7601  -42.7814   -5.3474 C   0  0  0  0  0  0  0  0  0  0  0  0
  -23.0543  -43.7034   -6.3165 O   0  0  0  0  0  0  0  0  0  0  0  0
  -22.0639  -44.6478   -6.5649 C   0  0  0  0  0  0  0  0  0  0  0  0
  -20.8179  -44.4512   -5.8417 C   0  0  0  0  0  0  0  0  0  0  0  0
  -20.7985  -44.8885   -4.6230 O   0  0  0  0  0  0  0  0  0  0  0  0
  -19.6445  -43.8320   -6.3541 N   0  0  0  0  0  0  0  0  0  0  0  0
  -18.6862  -43.4370   -5.3096 C   0  0  0  0  0  0  0  0  0  0  0  0
  -19.3354  -43.5970   -7.7291 C   0  0  1  0  0  0  0  0  0  0  0  0
  -20.4020  -42.9633   -8.5631 C   0  0  0  0  0  0  0  0  0  0  0  0
  -17.9946  -42.9950   -7.9647 C   0  0  0  0  0  0  0  0  0  0  0  0
  -17.0354  -43.7654   -7.5621 O   0  0  0  0  0  0  0  0  0  0  0  0
  -17.6343  -41.7925   -8.5284 N   0  0  0  0  0  0  0  0  0  0  0  0
  -13.2144  -37.2219  -11.5302 C   0  0  0  0  0  0  0  0  0  0  0  0
  1  2  1  0
  2  3  1  0
  2  4  1  0
  4  5  2  0
  5  6  1  0
  6  7  2  0
  7  8  1  0
  8  9  1  0
  9 10  1  0
 10 11  1  0
 11 12  1  0
 12 13  1  1
 12 14  1  0
 14 15  1  1
 15 16  1  0
 16 17  1  6
 16 18  1  0
 18 19  1  0
 19 20  1  0
 20 21  1  0
 21 22  1  0
 22 23  1  0
 23 24  1  0
 24 25  1  0
 25 26  2  0
 25 27  1  0
 27 28  1  0
 27 29  1  0
 29 30  1  1
 29 31  1  0
 31 32  2  0
 31 33  1  0
  8 34  2  0
 33 14  1  0
 34  4  1  0
M  END
$$$$
