
     RDKit          3D

 34 35  0  0  0  0  0  0  0  0999 V2000
  -15.0676  -34.7047  -13.3439 C   0  0  0  0  0  0  0  0  0  0  0  0
  -15.5322  -35.7028  -12.3365 C   0  0  0  0  0  0  0  0  0  0  0  0
  -16.4218  -35.0887  -11.2760 C   0  0  0  0  0  0  0  0  0  0  0  0
  -14.3385  -36.3558  -11.7075 C   0  0  0  0  0  0  0  0  0  0  0  0
  -13.0900  -35.7984  -11.8840 C   0  0  0  0  0  0  0  0  0  0  0  0
  -11.9950  -36.3998  -11.3096 C   0  0  0  0  0  0  0  0  0  0  0  0
  -12.1340  -37.5633  -10.5536 C   0  0  0  0  0  0  0  0  0  0  0  0
  -13.3701  -38.1289  -10.3698 C   0  0  0  0  0  0  0  0  0  0  0  0
  -13.5635  -39.3784   -9.5743 C   0  0  0  0  0  0  0  0  0  0  0  0
  -14.0107  -39.1357   -8.2379 N   0  0  0  0  0  0  0  0  0  0  0  0
  -15.3572  -38.7028   -8.0727 C   0  0  0  0  0  0  0  0  0  0  0  0
  -16.1746  -39.4763   -7.0988 C   0  0  1  0  0  0  0  0  0  0  0  0
  -16.4123  -38.8734   -5.9012 O   0  0  0  0  0  0  0  0  0  0  0  0
  -17.4927  -40.0150   -7.7179 C   0  0  2  0  0  0  0  0  0  0  0  0
  -18.5044  -39.9257   -6.6602 C   0  0  0  0  0  0  0  0  0  0  0  0
  -19.8473  -39.3762   -7.0299 C   0  0  2  0  0  0  0  0  0  0  0  0
  -19.8487  -38.0542   -7.7148 C   0  0  0  0  0  0  0  0  0  0  0  0
  -20.6878  -39.3511   -5.7564 C   0  0  0  0  0  0  0  0  0  0  0  0
  -21.1270  -40.7837   -5.4998 C   0  0  0  0  0  0  0  0  0  0  0  0
  -22.6289  -40.8767   -5.3810 C   0  0  0  0  0  0  0  0  0  0  0  0
  -23.1379  -41.7153   -6.5332 C   0  0  0  0  0  0  0  0  0  0  0  0
  -22.6611  -43.1426   -6.2990 C   0  0  0  0  0  0  0  0  0  0  0  0
  -22.7397  -43.8308   -7.4805 O   0  0  0  0  0  0  0  0  0  0  0  0
  -21.6598  -44.6603   -7.7634 C   0  0  0  0  0  0  0  0  0  0  0  0
  -20.5548  -44.5904   -6.8209 C   0  0  0  0  0  0  0  0  0  0  0  0
  -20.6903  -45.2912   -5.7405 O   0  0  0  0  0  0  0  0  0  0  0  0
  -19.3632  -43.8317   -6.9869 N   0  0  0  0  0  0  0  0  0  0  0  0
  -18.6046  -43.6512   -5.7391 C   0  0  0  0  0  0  0  0  0  0  0  0
  -18.8660  -43.2813   -8.2080 C   0  0  1  0  0  0  0  0  0  0  0  0
  -19.8351  -42.5118   -9.0468 C   0  0  0  0  0  0  0  0  0  0  0  0
  -17.5502  -42.5964   -8.0841 C   0  0  0  0  0  0  0  0  0  0  0  0
  -16.6120  -43.4050   -7.7077 O   0  0  0  0  0  0  0  0  0  0  0  0
  -17.1932  -41.2860   -8.3053 N   0  0  0  0  0  0  0  0  0  0  0  0
  -14.4675  -37.5036  -10.9602 C   0  0  0  0  0  0  0  0  0  0  0  0
  1  2  1  0
  2  3  1  0
  2  4  1  0
  4  5  2  0
  5  6  1  0
  6  7  2  0
  7  8  1  0
  8  9  1  0
  9 10  1  0
 10 11  1  0
 11 12  1  0
 12 13  1  1
 12 14  1  0
 14 15  1  1
 15 16  1  0
 16 17  1  1
 16 18  1  0
 18 19  1  0
 19 20  1  0
 20 21  1  0
 21 22  1  0
 22 23  1  0
 23 24  1  0
 24 25  1  0
 25 26  2  0
 25 27  1  0
 27 28  1  0
 27 29  1  0
 29 30  1  1
 29 31  1  0
 31 32  2  0
 31 33  1  0
  8 34  2  0
 33 14  1  0
 34  4  1  0
M  END
$$$$
