
     RDKit          3D

 34 35  0  0  0  0  0  0  0  0999 V2000
  -24.9973  -41.9584   -7.0006 C   0  0  0  0  0  0  0  0  0  0  0  0
  -24.1572  -41.7112   -8.2090 C   0  0  0  0  0  0  0  0  0  0  0  0
  -23.2718  -42.8904   -8.5534 C   0  0  0  0  0  0  0  0  0  0  0  0
  -23.3306  -40.4805   -7.9874 C   0  0  0  0  0  0  0  0  0  0  0  0
  -23.9277  -39.2403   -8.0657 C   0  0  0  0  0  0  0  0  0  0  0  0
  -23.1682  -38.1117   -7.8658 C   0  0  0  0  0  0  0  0  0  0  0  0
  -21.8055  -38.2084   -7.5860 C   0  0  0  0  0  0  0  0  0  0  0  0
  -21.1982  -39.4357   -7.5052 C   0  0  0  0  0  0  0  0  0  0  0  0
  -19.7404  -39.5851   -7.2155 C   0  0  0  0  0  0  0  0  0  0  0  0
  -18.9125  -38.7511   -8.0303 N   0  0  0  0  0  0  0  0  0  0  0  0
  -17.5167  -39.0326   -8.0392 C   0  0  0  0  0  0  0  0  0  0  0  0
  -16.6667  -38.0856   -8.8111 C   0  0  1  0  0  0  0  0  0  0  0  0
  -16.7761  -36.7703   -8.4764 O   0  0  0  0  0  0  0  0  0  0  0  0
  -15.1772  -38.5216   -8.8603 C   0  0  2  0  0  0  0  0  0  0  0  0
  -14.6750  -38.1036  -10.1730 C   0  0  0  0  0  0  0  0  0  0  0  0
  -13.3370  -37.4332  -10.2221 C   0  0  2  0  0  0  0  0  0  0  0  0
  -13.1568  -36.2627   -9.3197 C   0  0  0  0  0  0  0  0  0  0  0  0
  -13.0724  -37.0662  -11.6795 C   0  0  0  0  0  0  0  0  0  0  0  0
  -12.6720  -38.3525  -12.3836 C   0  0  0  0  0  0  0  0  0  0  0  0
  -11.3369  -38.2007  -13.0713 C   0  0  0  0  0  0  0  0  0  0  0  0
  -10.3569  -39.1397  -12.4022 C   0  0  0  0  0  0  0  0  0  0  0  0
  -10.7870  -40.5604  -12.7432 C   0  0  0  0  0  0  0  0  0  0  0  0
  -10.2001  -41.4216  -11.8546 O   0  0  0  0  0  0  0  0  0  0  0  0
  -11.0198  -42.4378  -11.3751 C   0  0  0  0  0  0  0  0  0  0  0  0
  -12.4093  -42.3715  -11.7982 C   0  0  0  0  0  0  0  0  0  0  0  0
  -12.6636  -42.8489  -12.9748 O   0  0  0  0  0  0  0  0  0  0  0  0
  -13.4878  -41.8372  -11.0403 N   0  0  0  0  0  0  0  0  0  0  0  0
  -14.6884  -41.5596  -11.8444 C   0  0  0  0  0  0  0  0  0  0  0  0
  -13.4987  -41.5839   -9.6343 C   0  0  1  0  0  0  0  0  0  0  0  0
  -12.3329  -40.8349   -9.0731 C   0  0  0  0  0  0  0  0  0  0  0  0
  -14.8004  -41.0902   -9.1075 C   0  0  0  0  0  0  0  0  0  0  0  0
  -15.7524  -41.9520   -9.2713 O   0  0  0  0  0  0  0  0  0  0  0  0
  -15.1310  -39.9046   -8.4923 N   0  0  0  0  0  0  0  0  0  0  0  0
  -21.9858  -40.5676   -7.7108 C   0  0  0  0  0  0  0  0  0  0  0  0
  1  2  1  0
  2  3  1  0
  2  4  1  0
  4  5  2  0
  5  6  1  0
  6  7  2  0
  7  8  1  0
  8  9  1  0
  9 10  1  0
 10 11  1  0
 11 12  1  0
 12 13  1  1
 12 14  1  0
 14 15  1  6
 15 16  1  0
 16 17  1  1
 16 18  1  0
 18 19  1  0
 19 20  1  0
 20 21  1  0
 21 22  1  0
 22 23  1  0
 23 24  1  0
 24 25  1  0
 25 26  2  0
 25 27  1  0
 27 28  1  0
 27 29  1  0
 29 30  1  6
 29 31  1  0
 31 32  2  0
 31 33  1  0
  8 34  2  0
 33 14  1  0
 34  4  1  0
M  END
$$$$
