
     RDKit          3D

 34 35  0  0  0  0  0  0  0  0999 V2000
  -13.4066  -33.8711  -10.7734 C   0  0  0  0  0  0  0  0  0  0  0  0
  -13.9286  -34.3203  -12.0973 C   0  0  0  0  0  0  0  0  0  0  0  0
  -15.4194  -34.0974  -12.2413 C   0  0  0  0  0  0  0  0  0  0  0  0
  -13.5927  -35.7685  -12.2904 C   0  0  0  0  0  0  0  0  0  0  0  0
  -12.5869  -36.1196  -13.1654 C   0  0  0  0  0  0  0  0  0  0  0  0
  -12.2817  -37.4483  -13.3447 C   0  0  0  0  0  0  0  0  0  0  0  0
  -12.9765  -38.4401  -12.6533 C   0  0  0  0  0  0  0  0  0  0  0  0
  -13.9797  -38.1052  -11.7798 C   0  0  0  0  0  0  0  0  0  0  0  0
  -14.7546  -39.1352  -11.0246 C   0  0  0  0  0  0  0  0  0  0  0  0
  -14.4867  -39.1286   -9.6200 N   0  0  0  0  0  0  0  0  0  0  0  0
  -15.4645  -38.5298   -8.7756 C   0  0  0  0  0  0  0  0  0  0  0  0
  -16.0216  -39.4011   -7.7053 C   0  0  1  0  0  0  0  0  0  0  0  0
  -16.0990  -38.8509   -6.4622 O   0  0  0  0  0  0  0  0  0  0  0  0
  -17.3724  -40.0532   -8.1064 C   0  0  2  0  0  0  0  0  0  0  0  0
  -18.3435  -39.6329   -7.0913 C   0  0  0  0  0  0  0  0  0  0  0  0
  -19.6864  -39.1707   -7.5658 C   0  0  2  0  0  0  0  0  0  0  0  0
  -19.6832  -38.1011   -8.6015 C   0  0  0  0  0  0  0  0  0  0  0  0
  -20.4801  -38.7555   -6.3303 C   0  0  0  0  0  0  0  0  0  0  0  0
  -20.9413  -40.0400   -5.6607 C   0  0  0  0  0  0  0  0  0  0  0  0
  -22.4397  -40.0481   -5.4784 C   0  0  0  0  0  0  0  0  0  0  0  0
  -23.0077  -41.1653   -6.3263 C   0  0  0  0  0  0  0  0  0  0  0  0
  -22.5543  -42.4799   -5.7051 C   0  0  0  0  0  0  0  0  0  0  0  0
  -22.6901  -43.4749   -6.6363 O   0  0  0  0  0  0  0  0  0  0  0  0
  -21.6393  -44.3841   -6.6988 C   0  0  0  0  0  0  0  0  0  0  0  0
  -20.5002  -44.0816   -5.8473 C   0  0  0  0  0  0  0  0  0  0  0  0
  -20.6124  -44.4388   -4.6077 O   0  0  0  0  0  0  0  0  0  0  0  0
  -19.2989  -43.4399   -6.2575 N   0  0  0  0  0  0  0  0  0  0  0  0
  -18.4925  -42.9332   -5.1359 C   0  0  0  0  0  0  0  0  0  0  0  0
  -18.8337  -43.2783   -7.5986 C   0  0  1  0  0  0  0  0  0  0  0  0
  -19.8149  -42.7515   -8.5959 C   0  0  0  0  0  0  0  0  0  0  0  0
  -17.4995  -42.6281   -7.7135 C   0  0  0  0  0  0  0  0  0  0  0  0
  -16.5664  -43.3238   -7.1469 O   0  0  0  0  0  0  0  0  0  0  0  0
  -17.1220  -41.4479   -8.3119 N   0  0  0  0  0  0  0  0  0  0  0  0
  -14.2735  -36.7527  -11.6120 C   0  0  0  0  0  0  0  0  0  0  0  0
  1  2  1  0
  2  3  1  0
  2  4  1  0
  4  5  2  0
  5  6  1  0
  6  7  2  0
  7  8  1  0
  8  9  1  0
  9 10  1  0
 10 11  1  0
 11 12  1  0
 12 13  1  1
 12 14  1  0
 14 15  1  1
 15 16  1  0
 16 17  1  6
 16 18  1  0
 18 19  1  0
 19 20  1  0
 20 21  1  0
 21 22  1  0
 22 23  1  0
 23 24  1  0
 24 25  1  0
 25 26  2  0
 25 27  1  0
 27 28  1  0
 27 29  1  0
 29 30  1  6
 29 31  1  0
 31 32  2  0
 31 33  1  0
  8 34  2  0
 33 14  1  0
 34  4  1  0
M  END
$$$$
