
     RDKit          3D

 38 41  0  0  0  0  0  0  0  0999 V2000
  -11.3837  -35.2739  -11.5335 C   0  0  0  0  0  0  0  0  0  0  0  0
  -12.4646  -35.6681  -12.5291 C   0  0  0  0  0  0  0  0  0  0  0  0
  -13.7431  -34.9102  -12.2467 C   0  0  0  0  0  0  0  0  0  0  0  0
  -12.7029  -37.1185  -12.5659 C   0  0  0  0  0  0  0  0  0  0  0  0
  -13.1673  -37.8513  -11.4872 C   0  0  0  0  0  0  0  0  0  0  0  0
  -13.3764  -39.1966  -11.5543 C   0  0  0  0  0  0  0  0  0  0  0  0
  -13.1225  -39.8335  -12.7091 N   0  0  0  0  0  0  0  0  0  0  0  0
  -12.6649  -39.1592  -13.7981 C   0  0  0  0  0  0  0  0  0  0  0  0
  -12.4486  -37.8008  -13.7466 C   0  0  0  0  0  0  0  0  0  0  0  0
  -13.8630  -39.9979  -10.4038 C   0  0  0  0  0  0  0  0  0  0  0  0
  -12.9890  -41.2475  -10.1892 C   0  0  0  0  0  0  0  0  0  0  0  0
  -13.0460  -40.0929   -9.1987 C   0  0  0  0  0  0  0  0  0  0  0  0
  -15.2982  -40.2445  -10.4402 N   0  0  0  0  0  0  0  0  0  0  0  0
  -16.0431  -39.0045  -10.5832 C   0  0  0  0  0  0  0  0  0  0  0  0
  -16.9016  -38.7708   -9.3782 C   0  0  1  0  0  0  0  0  0  0  0  0
  -17.0395  -37.4608   -8.9845 O   0  0  0  0  0  0  0  0  0  0  0  0
  -18.1875  -39.5449   -9.3360 C   0  0  2  0  0  0  0  0  0  0  0  0
  -19.1924  -39.1376   -8.3118 C   0  0  0  0  0  0  0  0  0  0  0  0
  -19.7077  -37.7683   -8.3088 C   0  0  2  0  0  0  0  0  0  0  0  0
  -19.0466  -36.8725   -7.2459 C   0  0  0  0  0  0  0  0  0  0  0  0
  -21.1939  -37.6303   -8.0690 C   0  0  0  0  0  0  0  0  0  0  0  0
  -22.0435  -38.7287   -8.5733 C   0  0  0  0  0  0  0  0  0  0  0  0
  -22.3814  -39.7520   -7.5212 C   0  0  0  0  0  0  0  0  0  0  0  0
  -23.7083  -39.5692   -6.8548 C   0  0  0  0  0  0  0  0  0  0  0  0
  -23.5463  -40.0663   -5.4254 C   0  0  0  0  0  0  0  0  0  0  0  0
  -24.1607  -41.3862   -5.1622 C   0  0  0  0  0  0  0  0  0  0  0  0
  -23.6190  -42.5552   -5.8827 C   0  0  0  0  0  0  0  0  0  0  0  0
  -22.3326  -42.9052   -5.6077 O   0  0  0  0  0  0  0  0  0  0  0  0
  -21.0472  -42.5041   -5.8358 C   0  0  0  0  0  0  0  0  0  0  0  0
  -20.2966  -42.3665   -6.9980 C   0  0  0  0  0  0  0  0  0  0  0  0
  -18.9899  -41.9249   -6.8749 C   0  0  0  0  0  0  0  0  0  0  0  0
  -18.4942  -41.6416   -5.5697 C   0  0  0  0  0  0  0  0  0  0  0  0
  -19.2518  -41.7849   -4.4342 C   0  0  0  0  0  0  0  0  0  0  0  0
  -18.5513  -41.4085   -2.8543 Cl  0  0  0  0  0  0  0  0  0  0  0  0
  -20.4629  -42.1976   -4.6032 N   0  0  0  0  0  0  0  0  0  0  0  0
  -17.9349  -41.6481   -7.8603 C   0  0  0  0  0  0  0  0  0  0  0  0
  -16.7570  -42.1310   -7.5179 O   0  0  0  0  0  0  0  0  0  0  0  0
  -17.9084  -40.9812   -9.0853 N   0  0  0  0  0  0  0  0  0  0  0  0
  1  2  1  0
  2  3  1  0
  2  4  1  0
  4  5  2  0
  5  6  1  0
  6  7  2  0
  7  8  1  0
  8  9  2  0
  6 10  1  0
 10 11  1  0
 11 12  1  0
 10 13  1  0
 13 14  1  0
 14 15  1  0
 15 16  1  6
 15 17  1  0
 17 18  1  1
 18 19  1  0
 19 20  1  1
 19 21  1  0
 21 22  1  0
 22 23  1  0
 23 24  1  0
 24 25  1  0
 25 26  1  0
 26 27  1  0
 27 28  1  0
 28 29  1  0
 29 30  2  0
 30 31  1  0
 31 32  2  0
 32 33  1  0
 33 34  1  0
 33 35  2  0
 31 36  1  0
 36 37  2  0
 36 38  1  0
  9  4  1  0
 12 10  1  0
 35 29  1  0
 38 17  1  0
M  END
$$$$
