
     RDKit          3D

 38 41  0  0  0  0  0  0  0  0999 V2000
  -23.8682  -42.5642   -6.1961 C   0  0  0  0  0  0  0  0  0  0  0  0
  -23.8114  -42.0073   -7.6110 C   0  0  0  0  0  0  0  0  0  0  0  0
  -23.1630  -43.0056   -8.5447 C   0  0  0  0  0  0  0  0  0  0  0  0
  -23.1422  -40.7000   -7.6816 C   0  0  0  0  0  0  0  0  0  0  0  0
  -21.8899  -40.4451   -7.1498 C   0  0  0  0  0  0  0  0  0  0  0  0
  -21.2977  -39.2200   -7.2313 C   0  0  0  0  0  0  0  0  0  0  0  0
  -21.9536  -38.2249   -7.8503 N   0  0  0  0  0  0  0  0  0  0  0  0
  -23.1863  -38.4239   -8.3896 C   0  0  0  0  0  0  0  0  0  0  0  0
  -23.7978  -39.6549   -8.3156 C   0  0  0  0  0  0  0  0  0  0  0  0
  -19.9611  -38.9279   -6.6565 C   0  0  0  0  0  0  0  0  0  0  0  0
  -20.0762  -38.0169   -5.4202 C   0  0  0  0  0  0  0  0  0  0  0  0
  -19.6107  -39.4643   -5.3457 C   0  0  0  0  0  0  0  0  0  0  0  0
  -18.9872  -38.5009   -7.6521 N   0  0  0  0  0  0  0  0  0  0  0  0
  -17.6427  -38.4802   -7.1000 C   0  0  0  0  0  0  0  0  0  0  0  0
  -16.6573  -38.0547   -8.1447 C   0  0  1  0  0  0  0  0  0  0  0  0
  -16.5865  -36.7034   -8.3881 O   0  0  0  0  0  0  0  0  0  0  0  0
  -15.3130  -38.7204   -8.0799 C   0  0  2  0  0  0  0  0  0  0  0  0
  -14.7197  -39.1804   -9.3688 C   0  0  0  0  0  0  0  0  0  0  0  0
  -14.4853  -38.2147  -10.4425 C   0  0  2  0  0  0  0  0  0  0  0  0
  -15.5650  -38.2506  -11.5389 C   0  0  0  0  0  0  0  0  0  0  0  0
  -13.1733  -38.3625  -11.1789 C   0  0  0  0  0  0  0  0  0  0  0  0
  -12.0315  -38.8663  -10.3881 C   0  0  0  0  0  0  0  0  0  0  0  0
  -11.8133  -40.3493  -10.5345 C   0  0  0  0  0  0  0  0  0  0  0  0
  -10.7769  -40.7467  -11.5375 C   0  0  0  0  0  0  0  0  0  0  0  0
  -11.2306  -42.0758  -12.1244 C   0  0  0  0  0  0  0  0  0  0  0  0
  -10.4807  -43.2517  -11.6306 C   0  0  0  0  0  0  0  0  0  0  0  0
  -10.5801  -43.5801  -10.1948 C   0  0  0  0  0  0  0  0  0  0  0  0
  -11.8057  -43.9496   -9.7320 O   0  0  0  0  0  0  0  0  0  0  0  0
  -13.0303  -43.4286   -9.4247 C   0  0  0  0  0  0  0  0  0  0  0  0
  -13.4454  -42.4919   -8.4849 C   0  0  0  0  0  0  0  0  0  0  0  0
  -14.7937  -42.1800   -8.4353 C   0  0  0  0  0  0  0  0  0  0  0  0
  -15.6715  -42.8370   -9.3450 C   0  0  0  0  0  0  0  0  0  0  0  0
  -15.2413  -43.7600  -10.2652 C   0  0  0  0  0  0  0  0  0  0  0  0
  -16.4048  -44.5250  -11.3559 Cl  0  0  0  0  0  0  0  0  0  0  0  0
  -13.9760  -44.0140  -10.2718 N   0  0  0  0  0  0  0  0  0  0  0  0
  -15.5702  -41.2455   -7.6081 C   0  0  0  0  0  0  0  0  0  0  0  0
  -16.6876  -41.7640   -7.1383 O   0  0  0  0  0  0  0  0  0  0  0  0
  -15.3817  -39.9217   -7.2106 N   0  0  0  0  0  0  0  0  0  0  0  0
  1  2  1  0
  2  3  1  0
  2  4  1  0
  4  5  2  0
  5  6  1  0
  6  7  2  0
  7  8  1  0
  8  9  2  0
  6 10  1  0
 10 11  1  0
 11 12  1  0
 10 13  1  0
 13 14  1  0
 14 15  1  0
 15 16  1  1
 15 17  1  0
 17 18  1  6
 18 19  1  0
 19 20  1  6
 19 21  1  0
 21 22  1  0
 22 23  1  0
 23 24  1  0
 24 25  1  0
 25 26  1  0
 26 27  1  0
 27 28  1  0
 28 29  1  0
 29 30  2  0
 30 31  1  0
 31 32  2  0
 32 33  1  0
 33 34  1  0
 33 35  2  0
 31 36  1  0
 36 37  2  0
 36 38  1  0
  9  4  1  0
 12 10  1  0
 35 29  1  0
 38 17  1  0
M  END
$$$$
