
     RDKit          3D

 38 41  0  0  0  0  0  0  0  0999 V2000
  -11.2442  -38.3392  -13.8743 C   0  0  0  0  0  0  0  0  0  0  0  0
  -11.9696  -37.0657  -13.4657 C   0  0  0  0  0  0  0  0  0  0  0  0
  -10.9750  -35.9940  -13.0772 C   0  0  0  0  0  0  0  0  0  0  0  0
  -12.9550  -37.2897  -12.3977 C   0  0  0  0  0  0  0  0  0  0  0  0
  -12.8692  -38.3154  -11.4721 C   0  0  0  0  0  0  0  0  0  0  0  0
  -13.8015  -38.4962  -10.4942 C   0  0  0  0  0  0  0  0  0  0  0  0
  -14.8406  -37.6480  -10.4269 N   0  0  0  0  0  0  0  0  0  0  0  0
  -14.9709  -36.6240  -11.3127 C   0  0  0  0  0  0  0  0  0  0  0  0
  -14.0381  -36.4279  -12.3058 C   0  0  0  0  0  0  0  0  0  0  0  0
  -13.7298  -39.5973   -9.5019 C   0  0  0  0  0  0  0  0  0  0  0  0
  -13.0869  -40.8552  -10.1148 C   0  0  0  0  0  0  0  0  0  0  0  0
  -12.4281  -40.0383   -9.0120 C   0  0  0  0  0  0  0  0  0  0  0  0
  -14.9865  -39.8229   -8.8007 N   0  0  0  0  0  0  0  0  0  0  0  0
  -15.8288  -38.6387   -8.8332 C   0  0  0  0  0  0  0  0  0  0  0  0
  -16.9008  -38.7333   -7.7914 C   0  0  1  0  0  0  0  0  0  0  0  0
  -17.1725  -37.5748   -7.1028 O   0  0  0  0  0  0  0  0  0  0  0  0
  -18.1332  -39.4911   -8.1936 C   0  0  2  0  0  0  0  0  0  0  0  0
  -19.3420  -39.3271   -7.3352 C   0  0  0  0  0  0  0  0  0  0  0  0
  -19.9070  -37.9934   -7.1290 C   0  0  2  0  0  0  0  0  0  0  0  0
  -19.5154  -37.3697   -5.7774 C   0  0  0  0  0  0  0  0  0  0  0  0
  -21.4155  -37.9085   -7.1780 C   0  0  0  0  0  0  0  0  0  0  0  0
  -22.0959  -38.8574   -8.0832 C   0  0  0  0  0  0  0  0  0  0  0  0
  -22.5948  -40.0946   -7.3840 C   0  0  0  0  0  0  0  0  0  0  0  0
  -24.0361  -40.0651   -6.9839 C   0  0  0  0  0  0  0  0  0  0  0  0
  -24.1456  -40.8793   -5.7026 C   0  0  0  0  0  0  0  0  0  0  0  0
  -24.7418  -42.2218   -5.8787 C   0  0  0  0  0  0  0  0  0  0  0  0
  -24.0143  -43.1952   -6.7168 C   0  0  0  0  0  0  0  0  0  0  0  0
  -22.7963  -43.6043   -6.2673 O   0  0  0  0  0  0  0  0  0  0  0  0
  -21.5103  -43.1666   -6.1267 C   0  0  0  0  0  0  0  0  0  0  0  0
  -20.5463  -42.7675   -7.0457 C   0  0  0  0  0  0  0  0  0  0  0  0
  -19.3126  -42.3715   -6.5573 C   0  0  0  0  0  0  0  0  0  0  0  0
  -19.1049  -42.3991   -5.1482 C   0  0  0  0  0  0  0  0  0  0  0  0
  -20.0701  -42.7976   -4.2574 C   0  0  0  0  0  0  0  0  0  0  0  0
  -19.7219  -42.7987   -2.5232 Cl  0  0  0  0  0  0  0  0  0  0  0  0
  -21.2023  -43.1552   -4.7630 N   0  0  0  0  0  0  0  0  0  0  0  0
  -18.0928  -41.8791   -7.2133 C   0  0  0  0  0  0  0  0  0  0  0  0
  -16.9887  -42.4327   -6.7524 O   0  0  0  0  0  0  0  0  0  0  0  0
  -17.8478  -40.9475   -8.2224 N   0  0  0  0  0  0  0  0  0  0  0  0
  1  2  1  0
  2  3  1  0
  2  4  1  0
  4  5  2  0
  5  6  1  0
  6  7  2  0
  7  8  1  0
  8  9  2  0
  6 10  1  0
 10 11  1  0
 11 12  1  0
 10 13  1  0
 13 14  1  0
 14 15  1  0
 15 16  1  6
 15 17  1  0
 17 18  1  1
 18 19  1  0
 19 20  1  1
 19 21  1  0
 21 22  1  0
 22 23  1  0
 23 24  1  0
 24 25  1  0
 25 26  1  0
 26 27  1  0
 27 28  1  0
 28 29  1  0
 29 30  2  0
 30 31  1  0
 31 32  2  0
 32 33  1  0
 33 34  1  0
 33 35  2  0
 31 36  1  0
 36 37  2  0
 36 38  1  0
  9  4  1  0
 12 10  1  0
 35 29  1  0
 38 17  1  0
M  END
$$$$
