
     RDKit          3D

 38 41  0  0  0  0  0  0  0  0999 V2000
  -22.3264  -37.8587   -7.6160 C   0  0  0  0  0  0  0  0  0  0  0  0
  -22.3925  -38.6981   -6.3488 C   0  0  0  0  0  0  0  0  0  0  0  0
  -21.6383  -38.0191   -5.2268 C   0  0  0  0  0  0  0  0  0  0  0  0
  -21.9178  -40.0747   -6.5525 C   0  0  0  0  0  0  0  0  0  0  0  0
  -20.6006  -40.4041   -6.8218 C   0  0  0  0  0  0  0  0  0  0  0  0
  -20.1934  -41.6918   -7.0070 C   0  0  0  0  0  0  0  0  0  0  0  0
  -21.1037  -42.6759   -6.9250 N   0  0  0  0  0  0  0  0  0  0  0  0
  -22.4105  -42.4047   -6.6626 C   0  0  0  0  0  0  0  0  0  0  0  0
  -22.8376  -41.1100   -6.4731 C   0  0  0  0  0  0  0  0  0  0  0  0
  -18.7876  -42.0602   -7.3076 C   0  0  0  0  0  0  0  0  0  0  0  0
  -18.3002  -43.1899   -6.3815 C   0  0  0  0  0  0  0  0  0  0  0  0
  -18.4957  -43.3700   -7.8804 C   0  0  0  0  0  0  0  0  0  0  0  0
  -17.8989  -40.9100   -7.4024 N   0  0  0  0  0  0  0  0  0  0  0  0
  -16.5192  -41.2863   -7.1416 C   0  0  0  0  0  0  0  0  0  0  0  0
  -15.6031  -40.1358   -7.4254 C   0  0  1  0  0  0  0  0  0  0  0  0
  -14.8371  -39.7037   -6.3687 O   0  0  0  0  0  0  0  0  0  0  0  0
  -14.8454  -40.2119   -8.7195 C   0  0  2  0  0  0  0  0  0  0  0  0
  -14.3239  -38.9309   -9.2779 C   0  0  0  0  0  0  0  0  0  0  0  0
  -13.4065  -38.1153   -8.4818 C   0  0  2  0  0  0  0  0  0  0  0  0
  -14.0939  -36.9207   -7.7965 C   0  0  0  0  0  0  0  0  0  0  0  0
  -12.2414  -37.5172   -9.2369 C   0  0  0  0  0  0  0  0  0  0  0  0
  -11.7186  -38.3095  -10.3690 C   0  0  0  0  0  0  0  0  0  0  0  0
  -12.2750  -37.8832  -11.7021 C   0  0  0  0  0  0  0  0  0  0  0  0
  -11.4125  -36.9430  -12.4833 C   0  0  0  0  0  0  0  0  0  0  0  0
  -12.3555  -36.0449  -13.2712 C   0  0  0  0  0  0  0  0  0  0  0  0
  -12.4443  -36.3644  -14.7130 C   0  0  0  0  0  0  0  0  0  0  0  0
  -12.9947  -37.6798  -15.0954 C   0  0  0  0  0  0  0  0  0  0  0  0
  -14.2993  -37.9141  -14.7855 O   0  0  0  0  0  0  0  0  0  0  0  0
  -15.1096  -38.1828  -13.7194 C   0  0  0  0  0  0  0  0  0  0  0  0
  -15.1641  -39.2441  -12.8229 C   0  0  0  0  0  0  0  0  0  0  0  0
  -16.1320  -39.2050  -11.8333 C   0  0  0  0  0  0  0  0  0  0  0  0
  -17.0120  -38.0853  -11.7949 C   0  0  0  0  0  0  0  0  0  0  0  0
  -16.9420  -37.0476  -12.6906 C   0  0  0  0  0  0  0  0  0  0  0  0
  -18.0776  -35.6974  -12.5652 Cl  0  0  0  0  0  0  0  0  0  0  0  0
  -16.0219  -37.1312  -13.5917 N   0  0  0  0  0  0  0  0  0  0  0  0
  -16.4642  -40.1155  -10.7283 C   0  0  0  0  0  0  0  0  0  0  0  0
  -17.7575  -40.3378  -10.6019 O   0  0  0  0  0  0  0  0  0  0  0  0
  -15.7048  -40.7986   -9.7782 N   0  0  0  0  0  0  0  0  0  0  0  0
  1  2  1  0
  2  3  1  0
  2  4  1  0
  4  5  2  0
  5  6  1  0
  6  7  2  0
  7  8  1  0
  8  9  2  0
  6 10  1  0
 10 11  1  0
 11 12  1  0
 10 13  1  0
 13 14  1  0
 14 15  1  0
 15 16  1  1
 15 17  1  0
 17 18  1  6
 18 19  1  0
 19 20  1  6
 19 21  1  0
 21 22  1  0
 22 23  1  0
 23 24  1  0
 24 25  1  0
 25 26  1  0
 26 27  1  0
 27 28  1  0
 28 29  1  0
 29 30  2  0
 30 31  1  0
 31 32  2  0
 32 33  1  0
 33 34  1  0
 33 35  2  0
 31 36  1  0
 36 37  2  0
 36 38  1  0
  9  4  1  0
 12 10  1  0
 35 29  1  0
 38 17  1  0
M  END
$$$$
