
     RDKit          3D

 38 41  0  0  0  0  0  0  0  0999 V2000
  -25.5463  -40.5468   -5.8635 C   0  0  0  0  0  0  0  0  0  0  0  0
  -24.0593  -40.8493   -5.7525 C   0  0  0  0  0  0  0  0  0  0  0  0
  -23.5925  -40.6817   -4.3233 C   0  0  0  0  0  0  0  0  0  0  0  0
  -23.2446  -40.0461   -6.6762 C   0  0  0  0  0  0  0  0  0  0  0  0
  -21.8626  -40.1018   -6.7331 C   0  0  0  0  0  0  0  0  0  0  0  0
  -21.1365  -39.3418   -7.6011 C   0  0  0  0  0  0  0  0  0  0  0  0
  -21.7861  -38.5093   -8.4308 N   0  0  0  0  0  0  0  0  0  0  0  0
  -23.1431  -38.4175   -8.4144 C   0  0  0  0  0  0  0  0  0  0  0  0
  -23.8907  -39.1780   -7.5440 C   0  0  0  0  0  0  0  0  0  0  0  0
  -19.6545  -39.3816   -7.6664 C   0  0  0  0  0  0  0  0  0  0  0  0
  -19.0930  -40.5396   -6.8207 C   0  0  0  0  0  0  0  0  0  0  0  0
  -18.9954  -40.4959   -8.3392 C   0  0  0  0  0  0  0  0  0  0  0  0
  -19.0330  -38.0852   -7.4318 N   0  0  0  0  0  0  0  0  0  0  0  0
  -17.6018  -38.2177   -7.2150 C   0  0  0  0  0  0  0  0  0  0  0  0
  -16.8476  -37.7744   -8.4308 C   0  0  1  0  0  0  0  0  0  0  0  0
  -17.0223  -36.4617   -8.8000 O   0  0  0  0  0  0  0  0  0  0  0  0
  -15.4200  -38.2322   -8.5131 C   0  0  2  0  0  0  0  0  0  0  0  0
  -14.7711  -38.1957   -9.8557 C   0  0  0  0  0  0  0  0  0  0  0  0
  -14.6851  -36.9294  -10.5832 C   0  0  2  0  0  0  0  0  0  0  0  0
  -15.7525  -36.7865  -11.6830 C   0  0  0  0  0  0  0  0  0  0  0  0
  -13.3688  -36.6627  -11.2770 C   0  0  0  0  0  0  0  0  0  0  0  0
  -12.1622  -37.2142  -10.6267 C   0  0  0  0  0  0  0  0  0  0  0  0
  -11.7295  -38.5386  -11.1987 C   0  0  0  0  0  0  0  0  0  0  0  0
  -10.6502  -38.4663  -12.2322 C   0  0  0  0  0  0  0  0  0  0  0  0
  -10.9066  -39.6081  -13.2055 C   0  0  0  0  0  0  0  0  0  0  0  0
   -9.9904  -40.7598  -13.0542 C   0  0  0  0  0  0  0  0  0  0  0  0
  -10.0346  -41.5146  -11.7862 C   0  0  0  0  0  0  0  0  0  0  0  0
  -11.1909  -42.1750  -11.5038 O   0  0  0  0  0  0  0  0  0  0  0  0
  -12.4773  -41.9484  -11.1049 C   0  0  0  0  0  0  0  0  0  0  0  0
  -13.0214  -41.4054   -9.9464 C   0  0  0  0  0  0  0  0  0  0  0  0
  -14.4006  -41.3162   -9.8603 C   0  0  0  0  0  0  0  0  0  0  0  0
  -15.1764  -41.7868  -10.9587 C   0  0  0  0  0  0  0  0  0  0  0  0
  -14.6193  -42.3207  -12.0938 C   0  0  0  0  0  0  0  0  0  0  0  0
  -15.6626  -42.8793  -13.4083 Cl  0  0  0  0  0  0  0  0  0  0  0  0
  -13.3305  -42.3799  -12.1249 N   0  0  0  0  0  0  0  0  0  0  0  0
  -15.3024  -40.7924   -8.8245 C   0  0  0  0  0  0  0  0  0  0  0  0
  -16.3297  -41.5801   -8.5754 O   0  0  0  0  0  0  0  0  0  0  0  0
  -15.3083  -39.6362   -8.0439 N   0  0  0  0  0  0  0  0  0  0  0  0
  1  2  1  0
  2  3  1  0
  2  4  1  0
  4  5  2  0
  5  6  1  0
  6  7  2  0
  7  8  1  0
  8  9  2  0
  6 10  1  0
 10 11  1  0
 11 12  1  0
 10 13  1  0
 13 14  1  0
 14 15  1  0
 15 16  1  1
 15 17  1  0
 17 18  1  6
 18 19  1  0
 19 20  1  6
 19 21  1  0
 21 22  1  0
 22 23  1  0
 23 24  1  0
 24 25  1  0
 25 26  1  0
 26 27  1  0
 27 28  1  0
 28 29  1  0
 29 30  2  0
 30 31  1  0
 31 32  2  0
 32 33  1  0
 33 34  1  0
 33 35  2  0
 31 36  1  0
 36 37  2  0
 36 38  1  0
  9  4  1  0
 12 10  1  0
 35 29  1  0
 38 17  1  0
M  END
$$$$
