
     RDKit          3D

 38 41  0  0  0  0  0  0  0  0999 V2000
  -16.1822  -34.8982  -11.0521 C   0  0  0  0  0  0  0  0  0  0  0  0
  -14.8751  -35.4215  -10.4754 C   0  0  0  0  0  0  0  0  0  0  0  0
  -13.8150  -34.3426  -10.5086 C   0  0  0  0  0  0  0  0  0  0  0  0
  -14.4088  -36.6463  -11.1419 C   0  0  0  0  0  0  0  0  0  0  0  0
  -14.7031  -37.9246  -10.6996 C   0  0  0  0  0  0  0  0  0  0  0  0
  -14.2534  -39.0405  -11.3406 C   0  0  0  0  0  0  0  0  0  0  0  0
  -13.4977  -38.8936  -12.4410 N   0  0  0  0  0  0  0  0  0  0  0  0
  -13.1804  -37.6593  -12.9164 C   0  0  0  0  0  0  0  0  0  0  0  0
  -13.6265  -36.5228  -12.2807 C   0  0  0  0  0  0  0  0  0  0  0  0
  -14.5505  -40.4171  -10.8726 C   0  0  0  0  0  0  0  0  0  0  0  0
  -15.2191  -41.2482  -11.9833 C   0  0  0  0  0  0  0  0  0  0  0  0
  -13.8245  -41.5435  -11.4493 C   0  0  0  0  0  0  0  0  0  0  0  0
  -15.2239  -40.4532   -9.5814 N   0  0  0  0  0  0  0  0  0  0  0  0
  -15.1659  -39.1602   -8.9197 C   0  0  0  0  0  0  0  0  0  0  0  0
  -16.5459  -38.6090   -8.7320 C   0  0  1  0  0  0  0  0  0  0  0  0
  -16.7331  -37.3086   -9.1374 O   0  0  0  0  0  0  0  0  0  0  0  0
  -17.6703  -39.5237   -9.1240 C   0  0  2  0  0  0  0  0  0  0  0  0
  -18.8518  -39.5761   -8.2150 C   0  0  0  0  0  0  0  0  0  0  0  0
  -19.5965  -38.3506   -7.9255 C   0  0  2  0  0  0  0  0  0  0  0  0
  -19.2424  -37.7320   -6.5613 C   0  0  0  0  0  0  0  0  0  0  0  0
  -21.1019  -38.4881   -7.9151 C   0  0  0  0  0  0  0  0  0  0  0  0
  -21.6746  -39.4892   -8.8385 C   0  0  0  0  0  0  0  0  0  0  0  0
  -21.9563  -40.8144   -8.1806 C   0  0  0  0  0  0  0  0  0  0  0  0
  -23.3677  -41.0153   -7.7269 C   0  0  0  0  0  0  0  0  0  0  0  0
  -23.3013  -41.8890   -6.4823 C   0  0  0  0  0  0  0  0  0  0  0  0
  -23.7017  -43.2966   -6.6995 C   0  0  0  0  0  0  0  0  0  0  0  0
  -22.8764  -44.1160   -7.6088 C   0  0  0  0  0  0  0  0  0  0  0  0
  -21.5934  -44.3584   -7.2241 O   0  0  0  0  0  0  0  0  0  0  0  0
  -20.3804  -43.7411   -7.1103 C   0  0  0  0  0  0  0  0  0  0  0  0
  -19.5259  -43.1660   -8.0443 C   0  0  0  0  0  0  0  0  0  0  0  0
  -18.3435  -42.6121   -7.5833 C   0  0  0  0  0  0  0  0  0  0  0  0
  -18.0732  -42.6667   -6.1856 C   0  0  0  0  0  0  0  0  0  0  0  0
  -18.9302  -43.2402   -5.2798 C   0  0  0  0  0  0  0  0  0  0  0  0
  -18.5110  -43.2613   -3.5616 Cl  0  0  0  0  0  0  0  0  0  0  0  0
  -20.0187  -43.7405   -5.7599 N   0  0  0  0  0  0  0  0  0  0  0  0
  -17.2385  -41.9177   -8.2597 C   0  0  0  0  0  0  0  0  0  0  0  0
  -16.0463  -42.3202   -7.8662 O   0  0  0  0  0  0  0  0  0  0  0  0
  -17.1763  -40.9193   -9.2320 N   0  0  0  0  0  0  0  0  0  0  0  0
  1  2  1  0
  2  3  1  0
  2  4  1  0
  4  5  2  0
  5  6  1  0
  6  7  2  0
  7  8  1  0
  8  9  2  0
  6 10  1  0
 10 11  1  0
 11 12  1  0
 10 13  1  0
 13 14  1  0
 14 15  1  0
 15 16  1  6
 15 17  1  0
 17 18  1  1
 18 19  1  0
 19 20  1  1
 19 21  1  0
 21 22  1  0
 22 23  1  0
 23 24  1  0
 24 25  1  0
 25 26  1  0
 26 27  1  0
 27 28  1  0
 28 29  1  0
 29 30  2  0
 30 31  1  0
 31 32  2  0
 32 33  1  0
 33 34  1  0
 33 35  2  0
 31 36  1  0
 36 37  2  0
 36 38  1  0
  9  4  1  0
 12 10  1  0
 35 29  1  0
 38 17  1  0
M  END
$$$$
