
     RDKit          3D

 38 41  0  0  0  0  0  0  0  0999 V2000
  -24.0481  -41.6567   -3.2828 C   0  0  0  0  0  0  0  0  0  0  0  0
  -24.6300  -41.2224   -4.6198 C   0  0  0  0  0  0  0  0  0  0  0  0
  -25.1927  -42.4145   -5.3621 C   0  0  0  0  0  0  0  0  0  0  0  0
  -23.6640  -40.4867   -5.4489 C   0  0  0  0  0  0  0  0  0  0  0  0
  -22.3455  -40.8713   -5.6213 C   0  0  0  0  0  0  0  0  0  0  0  0
  -21.4745  -40.1652   -6.3966 C   0  0  0  0  0  0  0  0  0  0  0  0
  -21.9122  -39.0565   -7.0153 N   0  0  0  0  0  0  0  0  0  0  0  0
  -23.1985  -38.6362   -6.8783 C   0  0  0  0  0  0  0  0  0  0  0  0
  -24.0903  -39.3379   -6.0991 C   0  0  0  0  0  0  0  0  0  0  0  0
  -20.0554  -40.5580   -6.5822 C   0  0  0  0  0  0  0  0  0  0  0  0
  -19.4472  -41.0776   -5.2663 C   0  0  0  0  0  0  0  0  0  0  0  0
  -19.6810  -41.9645   -6.4813 C   0  0  0  0  0  0  0  0  0  0  0  0
  -19.2648  -39.5490   -7.2742 N   0  0  0  0  0  0  0  0  0  0  0  0
  -17.9929  -39.3262   -6.6067 C   0  0  0  0  0  0  0  0  0  0  0  0
  -17.2027  -38.2782   -7.3284 C   0  0  1  0  0  0  0  0  0  0  0  0
  -16.8230  -37.1902   -6.5784 O   0  0  0  0  0  0  0  0  0  0  0  0
  -16.1166  -38.7891   -8.2304 C   0  0  2  0  0  0  0  0  0  0  0  0
  -15.7013  -37.9083   -9.3603 C   0  0  0  0  0  0  0  0  0  0  0  0
  -15.2022  -36.5616   -9.0818 C   0  0  2  0  0  0  0  0  0  0  0  0
  -16.2558  -35.4633   -9.3112 C   0  0  0  0  0  0  0  0  0  0  0  0
  -14.0018  -36.1293   -9.8927 C   0  0  0  0  0  0  0  0  0  0  0  0
  -13.0528  -37.1945  -10.2769 C   0  0  0  0  0  0  0  0  0  0  0  0
  -13.2872  -37.7292  -11.6652 C   0  0  0  0  0  0  0  0  0  0  0  0
  -12.4271  -37.1319  -12.7337 C   0  0  0  0  0  0  0  0  0  0  0  0
  -13.2621  -37.1234  -14.0062 C   0  0  0  0  0  0  0  0  0  0  0  0
  -12.8905  -38.1640  -14.9900 C   0  0  0  0  0  0  0  0  0  0  0  0
  -13.0671  -39.5767  -14.5999 C   0  0  0  0  0  0  0  0  0  0  0  0
  -14.3420  -39.9979  -14.3757 O   0  0  0  0  0  0  0  0  0  0  0  0
  -15.3526  -39.8967  -13.4627 C   0  0  0  0  0  0  0  0  0  0  0  0
  -15.4599  -40.2822  -12.1312 C   0  0  0  0  0  0  0  0  0  0  0  0
  -16.6538  -40.0254  -11.4782 C   0  0  0  0  0  0  0  0  0  0  0  0
  -17.6973  -39.3864  -12.2079 C   0  0  0  0  0  0  0  0  0  0  0  0
  -17.5713  -39.0144  -13.5230 C   0  0  0  0  0  0  0  0  0  0  0  0
  -18.9217  -38.2247  -14.3484 Cl  0  0  0  0  0  0  0  0  0  0  0  0
  -16.4390  -39.2744  -14.0849 N   0  0  0  0  0  0  0  0  0  0  0  0
  -17.1080  -40.2664  -10.1012 C   0  0  0  0  0  0  0  0  0  0  0  0
  -18.3237  -40.7713  -10.0301 O   0  0  0  0  0  0  0  0  0  0  0  0
  -16.5299  -40.0751   -8.8461 N   0  0  0  0  0  0  0  0  0  0  0  0
  1  2  1  0
  2  3  1  0
  2  4  1  0
  4  5  2  0
  5  6  1  0
  6  7  2  0
  7  8  1  0
  8  9  2  0
  6 10  1  0
 10 11  1  0
 11 12  1  0
 10 13  1  0
 13 14  1  0
 14 15  1  0
 15 16  1  1
 15 17  1  0
 17 18  1  6
 18 19  1  0
 19 20  1  6
 19 21  1  0
 21 22  1  0
 22 23  1  0
 23 24  1  0
 24 25  1  0
 25 26  1  0
 26 27  1  0
 27 28  1  0
 28 29  1  0
 29 30  2  0
 30 31  1  0
 31 32  2  0
 32 33  1  0
 33 34  1  0
 33 35  2  0
 31 36  1  0
 36 37  2  0
 36 38  1  0
  9  4  1  0
 12 10  1  0
 35 29  1  0
 38 17  1  0
M  END
$$$$
