
     RDKit          3D

 38 41  0  0  0  0  0  0  0  0999 V2000
  -24.5155  -38.2160   -8.9742 C   0  0  0  0  0  0  0  0  0  0  0  0
  -23.4286  -37.3875   -9.6431 C   0  0  0  0  0  0  0  0  0  0  0  0
  -23.4219  -37.6332  -11.1358 C   0  0  0  0  0  0  0  0  0  0  0  0
  -22.0984  -37.6166   -9.0600 C   0  0  0  0  0  0  0  0  0  0  0  0
  -21.8586  -38.4732   -7.9994 C   0  0  0  0  0  0  0  0  0  0  0  0
  -20.6121  -38.6621   -7.4810 C   0  0  0  0  0  0  0  0  0  0  0  0
  -19.5798  -37.9927   -8.0194 N   0  0  0  0  0  0  0  0  0  0  0  0
  -19.7626  -37.1393   -9.0627 C   0  0  0  0  0  0  0  0  0  0  0  0
  -21.0148  -36.9376   -9.5974 C   0  0  0  0  0  0  0  0  0  0  0  0
  -20.3404  -39.5679   -6.3373 C   0  0  0  0  0  0  0  0  0  0  0  0
  -21.1853  -39.1798   -5.1097 C   0  0  0  0  0  0  0  0  0  0  0  0
  -21.3845  -40.4782   -5.8790 C   0  0  0  0  0  0  0  0  0  0  0  0
  -18.9196  -39.7561   -6.0770 N   0  0  0  0  0  0  0  0  0  0  0  0
  -18.1131  -38.8358   -6.8616 C   0  0  0  0  0  0  0  0  0  0  0  0
  -17.6181  -39.5075   -8.1055 C   0  0  1  0  0  0  0  0  0  0  0  0
  -17.0179  -38.6880   -9.0320 O   0  0  0  0  0  0  0  0  0  0  0  0
  -16.8925  -40.8057   -7.8986 C   0  0  2  0  0  0  0  0  0  0  0  0
  -16.5933  -41.6179   -9.1133 C   0  0  0  0  0  0  0  0  0  0  0  0
  -15.7944  -41.0375  -10.1928 C   0  0  2  0  0  0  0  0  0  0  0  0
  -16.6422  -40.5460  -11.3798 C   0  0  0  0  0  0  0  0  0  0  0  0
  -14.7580  -41.9531  -10.8033 C   0  0  0  0  0  0  0  0  0  0  0  0
  -14.1476  -42.9477   -9.8972 C   0  0  0  0  0  0  0  0  0  0  0  0
  -14.7992  -44.3033   -9.9746 C   0  0  0  0  0  0  0  0  0  0  0  0
  -14.1158  -45.2907  -10.8671 C   0  0  0  0  0  0  0  0  0  0  0  0
  -15.2086  -46.1764  -11.4483 C   0  0  0  0  0  0  0  0  0  0  0  0
  -15.2845  -47.5279  -10.8510 C   0  0  0  0  0  0  0  0  0  0  0  0
  -15.6317  -47.6310   -9.4199 C   0  0  0  0  0  0  0  0  0  0  0  0
  -16.8747  -47.2113   -9.0570 O   0  0  0  0  0  0  0  0  0  0  0  0
  -17.6043  -46.0707   -8.8781 C   0  0  0  0  0  0  0  0  0  0  0  0
  -17.4679  -44.9929   -8.0105 C   0  0  0  0  0  0  0  0  0  0  0  0
  -18.4033  -43.9751   -8.0923 C   0  0  0  0  0  0  0  0  0  0  0  0
  -19.4467  -44.0942   -9.0549 C   0  0  0  0  0  0  0  0  0  0  0  0
  -19.5641  -45.1677   -9.9021 C   0  0  0  0  0  0  0  0  0  0  0  0
  -20.8936  -45.2294  -11.0670 Cl  0  0  0  0  0  0  0  0  0  0  0  0
  -18.6665  -46.0878   -9.7869 N   0  0  0  0  0  0  0  0  0  0  0  0
  -18.5592  -42.7049   -7.3692 C   0  0  0  0  0  0  0  0  0  0  0  0
  -19.7978  -42.4681   -6.9848 O   0  0  0  0  0  0  0  0  0  0  0  0
  -17.6771  -41.6892   -7.0000 N   0  0  0  0  0  0  0  0  0  0  0  0
  1  2  1  0
  2  3  1  0
  2  4  1  0
  4  5  2  0
  5  6  1  0
  6  7  2  0
  7  8  1  0
  8  9  2  0
  6 10  1  0
 10 11  1  0
 11 12  1  0
 10 13  1  0
 13 14  1  0
 14 15  1  0
 15 16  1  1
 15 17  1  0
 17 18  1  6
 18 19  1  0
 19 20  1  6
 19 21  1  0
 21 22  1  0
 22 23  1  0
 23 24  1  0
 24 25  1  0
 25 26  1  0
 26 27  1  0
 27 28  1  0
 28 29  1  0
 29 30  2  0
 30 31  1  0
 31 32  2  0
 32 33  1  0
 33 34  1  0
 33 35  2  0
 31 36  1  0
 36 37  2  0
 36 38  1  0
  9  4  1  0
 12 10  1  0
 35 29  1  0
 38 17  1  0
M  END
$$$$
