
     RDKit          3D

 38 41  0  0  0  0  0  0  0  0999 V2000
  -12.5704  -33.6922  -12.6070 C   0  0  0  0  0  0  0  0  0  0  0  0
  -13.4798  -34.6448  -11.8451 C   0  0  0  0  0  0  0  0  0  0  0  0
  -13.9852  -33.9908  -10.5779 C   0  0  0  0  0  0  0  0  0  0  0  0
  -12.8387  -35.9365  -11.5582 C   0  0  0  0  0  0  0  0  0  0  0  0
  -13.5315  -37.1265  -11.4165 C   0  0  0  0  0  0  0  0  0  0  0  0
  -12.9062  -38.3079  -11.1489 C   0  0  0  0  0  0  0  0  0  0  0  0
  -11.5696  -38.3167  -11.0182 N   0  0  0  0  0  0  0  0  0  0  0  0
  -10.8428  -37.1743  -11.1483 C   0  0  0  0  0  0  0  0  0  0  0  0
  -11.4591  -35.9736  -11.4184 C   0  0  0  0  0  0  0  0  0  0  0  0
  -13.6354  -39.5897  -10.9830 C   0  0  0  0  0  0  0  0  0  0  0  0
  -12.8666  -40.7536  -11.6353 C   0  0  0  0  0  0  0  0  0  0  0  0
  -13.0710  -40.6316  -10.1318 C   0  0  0  0  0  0  0  0  0  0  0  0
  -15.0447  -39.5005  -11.3407 N   0  0  0  0  0  0  0  0  0  0  0  0
  -15.8977  -39.7411  -10.1885 C   0  0  0  0  0  0  0  0  0  0  0  0
  -17.2688  -39.1890  -10.4313 C   0  0  1  0  0  0  0  0  0  0  0  0
  -17.4905  -38.6609  -11.6812 O   0  0  0  0  0  0  0  0  0  0  0  0
  -18.4066  -40.0298   -9.9286 C   0  0  2  0  0  0  0  0  0  0  0  0
  -19.3682  -39.3811   -8.9908 C   0  0  0  0  0  0  0  0  0  0  0  0
  -20.0919  -38.1815   -9.4124 C   0  0  2  0  0  0  0  0  0  0  0  0
  -19.4893  -36.8802   -8.8532 C   0  0  0  0  0  0  0  0  0  0  0  0
  -21.5538  -38.1326   -9.0307 C   0  0  0  0  0  0  0  0  0  0  0  0
  -22.2599  -39.4292   -8.9752 C   0  0  0  0  0  0  0  0  0  0  0  0
  -22.3361  -40.0075   -7.5867 C   0  0  0  0  0  0  0  0  0  0  0  0
  -23.6106  -39.7374   -6.8511 C   0  0  0  0  0  0  0  0  0  0  0  0
  -23.2450  -39.6323   -5.3773 C   0  0  0  0  0  0  0  0  0  0  0  0
  -23.6163  -40.8139   -4.5681 C   0  0  0  0  0  0  0  0  0  0  0  0
  -22.9624  -42.0993   -4.8836 C   0  0  0  0  0  0  0  0  0  0  0  0
  -21.6175  -42.1698   -4.6859 O   0  0  0  0  0  0  0  0  0  0  0  0
  -20.4374  -41.7420   -5.2243 C   0  0  0  0  0  0  0  0  0  0  0  0
  -19.8248  -41.9718   -6.4510 C   0  0  0  0  0  0  0  0  0  0  0  0
  -18.5990  -41.3711   -6.6837 C   0  0  0  0  0  0  0  0  0  0  0  0
  -18.0402  -40.5589   -5.6553 C   0  0  0  0  0  0  0  0  0  0  0  0
  -18.6613  -40.3453   -4.4501 C   0  0  0  0  0  0  0  0  0  0  0  0
  -17.8915  -39.3200   -3.2317 Cl  0  0  0  0  0  0  0  0  0  0  0  0
  -19.8018  -40.9260   -4.2837 N   0  0  0  0  0  0  0  0  0  0  0  0
  -17.6933  -41.3714   -7.8414 C   0  0  0  0  0  0  0  0  0  0  0  0
  -16.4279  -41.5506   -7.5180 O   0  0  0  0  0  0  0  0  0  0  0  0
  -17.8821  -41.2214   -9.2154 N   0  0  0  0  0  0  0  0  0  0  0  0
  1  2  1  0
  2  3  1  0
  2  4  1  0
  4  5  2  0
  5  6  1  0
  6  7  2  0
  7  8  1  0
  8  9  2  0
  6 10  1  0
 10 11  1  0
 11 12  1  0
 10 13  1  0
 13 14  1  0
 14 15  1  0
 15 16  1  6
 15 17  1  0
 17 18  1  1
 18 19  1  0
 19 20  1  1
 19 21  1  0
 21 22  1  0
 22 23  1  0
 23 24  1  0
 24 25  1  0
 25 26  1  0
 26 27  1  0
 27 28  1  0
 28 29  1  0
 29 30  2  0
 30 31  1  0
 31 32  2  0
 32 33  1  0
 33 34  1  0
 33 35  2  0
 31 36  1  0
 36 37  2  0
 36 38  1  0
  9  4  1  0
 12 10  1  0
 35 29  1  0
 38 17  1  0
M  END
$$$$
