
     RDKit          3D

 38 41  0  0  0  0  0  0  0  0999 V2000
  -11.9750  -35.1068  -11.1827 C   0  0  0  0  0  0  0  0  0  0  0  0
  -13.2036  -35.4664  -12.0050 C   0  0  0  0  0  0  0  0  0  0  0  0
  -14.4103  -34.6973  -11.5138 C   0  0  0  0  0  0  0  0  0  0  0  0
  -13.4683  -36.9125  -12.0303 C   0  0  0  0  0  0  0  0  0  0  0  0
  -13.4217  -37.7245  -10.9102 C   0  0  0  0  0  0  0  0  0  0  0  0
  -13.6712  -39.0634  -10.9683 C   0  0  0  0  0  0  0  0  0  0  0  0
  -13.9732  -39.6138  -12.1556 N   0  0  0  0  0  0  0  0  0  0  0  0
  -14.0319  -38.8593  -13.2858 C   0  0  0  0  0  0  0  0  0  0  0  0
  -13.7826  -37.5062  -13.2439 C   0  0  0  0  0  0  0  0  0  0  0  0
  -13.6141  -39.9492   -9.7790 C   0  0  0  0  0  0  0  0  0  0  0  0
  -13.5327  -41.4300  -10.1938 C   0  0  0  0  0  0  0  0  0  0  0  0
  -12.3932  -40.6974   -9.4993 C   0  0  0  0  0  0  0  0  0  0  0  0
  -14.6301  -39.6401   -8.7819 N   0  0  0  0  0  0  0  0  0  0  0  0
  -15.5868  -38.6692   -9.2869 C   0  0  0  0  0  0  0  0  0  0  0  0
  -16.7422  -38.5370   -8.3430 C   0  0  1  0  0  0  0  0  0  0  0  0
  -17.0335  -37.2597   -7.9259 O   0  0  0  0  0  0  0  0  0  0  0  0
  -17.9603  -39.3437   -8.6894 C   0  0  2  0  0  0  0  0  0  0  0  0
  -19.0614  -39.3777   -7.6837 C   0  0  0  0  0  0  0  0  0  0  0  0
  -19.6862  -38.1269   -7.2529 C   0  0  2  0  0  0  0  0  0  0  0  0
  -19.1731  -37.6292   -5.8897 C   0  0  0  0  0  0  0  0  0  0  0  0
  -21.1913  -38.1617   -7.1167 C   0  0  0  0  0  0  0  0  0  0  0  0
  -21.9125  -39.0556   -8.0460 C   0  0  0  0  0  0  0  0  0  0  0  0
  -22.2349  -40.4005   -7.4497 C   0  0  0  0  0  0  0  0  0  0  0  0
  -23.6139  -40.5352   -6.8853 C   0  0  0  0  0  0  0  0  0  0  0  0
  -23.5074  -41.4948   -5.7086 C   0  0  0  0  0  0  0  0  0  0  0  0
  -24.0277  -42.8535   -5.9768 C   0  0  0  0  0  0  0  0  0  0  0  0
  -23.3453  -43.6630   -7.0055 C   0  0  0  0  0  0  0  0  0  0  0  0
  -22.0557  -44.0183   -6.7528 O   0  0  0  0  0  0  0  0  0  0  0  0
  -20.7951  -43.4946   -6.7094 C   0  0  0  0  0  0  0  0  0  0  0  0
  -19.9825  -42.9164   -7.6781 C   0  0  0  0  0  0  0  0  0  0  0  0
  -18.7275  -42.4775   -7.2908 C   0  0  0  0  0  0  0  0  0  0  0  0
  -18.3449  -42.6463   -5.9289 C   0  0  0  0  0  0  0  0  0  0  0  0
  -19.1623  -43.2208   -4.9879 C   0  0  0  0  0  0  0  0  0  0  0  0
  -18.6019  -43.3885   -3.3186 Cl  0  0  0  0  0  0  0  0  0  0  0  0
  -20.3215  -43.6114   -5.3992 N   0  0  0  0  0  0  0  0  0  0  0  0
  -17.6354  -41.8154   -8.0184 C   0  0  0  0  0  0  0  0  0  0  0  0
  -16.4473  -42.3244   -7.7588 O   0  0  0  0  0  0  0  0  0  0  0  0
  -17.5819  -40.7591   -8.9281 N   0  0  0  0  0  0  0  0  0  0  0  0
  1  2  1  0
  2  3  1  0
  2  4  1  0
  4  5  2  0
  5  6  1  0
  6  7  2  0
  7  8  1  0
  8  9  2  0
  6 10  1  0
 10 11  1  0
 11 12  1  0
 10 13  1  0
 13 14  1  0
 14 15  1  0
 15 16  1  6
 15 17  1  0
 17 18  1  1
 18 19  1  0
 19 20  1  1
 19 21  1  0
 21 22  1  0
 22 23  1  0
 23 24  1  0
 24 25  1  0
 25 26  1  0
 26 27  1  0
 27 28  1  0
 28 29  1  0
 29 30  2  0
 30 31  1  0
 31 32  2  0
 32 33  1  0
 33 34  1  0
 33 35  2  0
 31 36  1  0
 36 37  2  0
 36 38  1  0
  9  4  1  0
 12 10  1  0
 35 29  1  0
 38 17  1  0
M  END
$$$$
