
     RDKit          3D

 38 41  0  0  0  0  0  0  0  0999 V2000
  -16.2219  -44.5879  -10.9185 C   0  0  0  0  0  0  0  0  0  0  0  0
  -15.0958  -44.3883  -11.9221 C   0  0  0  0  0  0  0  0  0  0  0  0
  -14.3330  -45.6794  -12.1221 C   0  0  0  0  0  0  0  0  0  0  0  0
  -14.1928  -43.2883  -11.5530 C   0  0  0  0  0  0  0  0  0  0  0  0
  -14.6193  -42.0932  -10.9998 C   0  0  0  0  0  0  0  0  0  0  0  0
  -13.7551  -41.0919  -10.6700 C   0  0  0  0  0  0  0  0  0  0  0  0
  -12.4425  -41.2722  -10.8899 N   0  0  0  0  0  0  0  0  0  0  0  0
  -11.9726  -42.4282  -11.4312 C   0  0  0  0  0  0  0  0  0  0  0  0
  -12.8321  -43.4486  -11.7697 C   0  0  0  0  0  0  0  0  0  0  0  0
  -14.1975  -39.8009  -10.0870 C   0  0  0  0  0  0  0  0  0  0  0  0
  -12.9967  -38.8785   -9.8065 C   0  0  0  0  0  0  0  0  0  0  0  0
  -14.0494  -38.5745  -10.8633 C   0  0  0  0  0  0  0  0  0  0  0  0
  -15.1292  -39.9593   -8.9784 N   0  0  0  0  0  0  0  0  0  0  0  0
  -15.7318  -38.6888   -8.6100 C   0  0  0  0  0  0  0  0  0  0  0  0
  -16.8533  -38.9058   -7.6412 C   0  0  1  0  0  0  0  0  0  0  0  0
  -17.2134  -37.8150   -6.8858 O   0  0  0  0  0  0  0  0  0  0  0  0
  -18.0269  -39.6801   -8.1681 C   0  0  2  0  0  0  0  0  0  0  0  0
  -19.3082  -39.5698   -7.4125 C   0  0  0  0  0  0  0  0  0  0  0  0
  -19.9231  -38.2564   -7.2193 C   0  0  2  0  0  0  0  0  0  0  0  0
  -19.6643  -37.6636   -5.8226 C   0  0  0  0  0  0  0  0  0  0  0  0
  -21.4237  -38.2055   -7.3953 C   0  0  0  0  0  0  0  0  0  0  0  0
  -21.9997  -39.1432   -8.3810 C   0  0  0  0  0  0  0  0  0  0  0  0
  -22.5241  -40.4117   -7.7612 C   0  0  0  0  0  0  0  0  0  0  0  0
  -23.9945  -40.4278   -7.4855 C   0  0  0  0  0  0  0  0  0  0  0  0
  -24.1916  -41.2816   -6.2411 C   0  0  0  0  0  0  0  0  0  0  0  0
  -24.7357  -42.6320   -6.5042 C   0  0  0  0  0  0  0  0  0  0  0  0
  -23.9145  -43.5630   -7.3030 C   0  0  0  0  0  0  0  0  0  0  0  0
  -22.7290  -43.9565   -6.7620 O   0  0  0  0  0  0  0  0  0  0  0  0
  -21.4713  -43.4930   -6.4996 C   0  0  0  0  0  0  0  0  0  0  0  0
  -20.4434  -43.0446   -7.3213 C   0  0  0  0  0  0  0  0  0  0  0  0
  -19.2663  -42.6343   -6.7182 C   0  0  0  0  0  0  0  0  0  0  0  0
  -19.1787  -42.6983   -5.2977 C   0  0  0  0  0  0  0  0  0  0  0  0
  -20.2055  -43.1453   -4.5043 C   0  0  0  0  0  0  0  0  0  0  0  0
  -20.0063  -43.1892   -2.7473 Cl  0  0  0  0  0  0  0  0  0  0  0  0
  -21.2810  -43.5144   -5.1148 N   0  0  0  0  0  0  0  0  0  0  0  0
  -18.0083  -42.0943   -7.2535 C   0  0  0  0  0  0  0  0  0  0  0  0
  -16.9335  -42.6351   -6.7148 O   0  0  0  0  0  0  0  0  0  0  0  0
  -17.7025  -41.1280   -8.2121 N   0  0  0  0  0  0  0  0  0  0  0  0
  1  2  1  0
  2  3  1  0
  2  4  1  0
  4  5  2  0
  5  6  1  0
  6  7  2  0
  7  8  1  0
  8  9  2  0
  6 10  1  0
 10 11  1  0
 11 12  1  0
 10 13  1  0
 13 14  1  0
 14 15  1  0
 15 16  1  6
 15 17  1  0
 17 18  1  1
 18 19  1  0
 19 20  1  1
 19 21  1  0
 21 22  1  0
 22 23  1  0
 23 24  1  0
 24 25  1  0
 25 26  1  0
 26 27  1  0
 27 28  1  0
 28 29  1  0
 29 30  2  0
 30 31  1  0
 31 32  2  0
 32 33  1  0
 33 34  1  0
 33 35  2  0
 31 36  1  0
 36 37  2  0
 36 38  1  0
  9  4  1  0
 12 10  1  0
 35 29  1  0
 38 17  1  0
M  END
$$$$
