
     RDKit          3D

 38 41  0  0  0  0  0  0  0  0999 V2000
  -14.6828  -35.5549  -13.8239 C   0  0  0  0  0  0  0  0  0  0  0  0
  -14.9723  -35.5958  -12.3307 C   0  0  0  0  0  0  0  0  0  0  0  0
  -14.9777  -34.1963  -11.7563 C   0  0  0  0  0  0  0  0  0  0  0  0
  -14.0463  -36.4695  -11.5952 C   0  0  0  0  0  0  0  0  0  0  0  0
  -14.3920  -37.7136  -11.0963 C   0  0  0  0  0  0  0  0  0  0  0  0
  -13.5088  -38.4988  -10.4168 C   0  0  0  0  0  0  0  0  0  0  0  0
  -12.2583  -38.0484  -10.2248 N   0  0  0  0  0  0  0  0  0  0  0  0
  -11.8687  -36.8330  -10.6952 C   0  0  0  0  0  0  0  0  0  0  0  0
  -12.7484  -36.0283  -11.3831 C   0  0  0  0  0  0  0  0  0  0  0  0
  -13.8672  -39.8294   -9.8660 C   0  0  0  0  0  0  0  0  0  0  0  0
  -13.3499  -40.9622  -10.7718 C   0  0  0  0  0  0  0  0  0  0  0  0
  -12.8136  -40.7083   -9.3699 C   0  0  0  0  0  0  0  0  0  0  0  0
  -15.2683  -39.9347   -9.4814 N   0  0  0  0  0  0  0  0  0  0  0  0
  -15.7439  -38.7007   -8.8780 C   0  0  0  0  0  0  0  0  0  0  0  0
  -16.6914  -39.0005   -7.7573 C   0  0  1  0  0  0  0  0  0  0  0  0
  -16.7406  -38.0687   -6.7475 O   0  0  0  0  0  0  0  0  0  0  0  0
  -18.0438  -39.5076   -8.1674 C   0  0  2  0  0  0  0  0  0  0  0  0
  -18.9597  -39.9569   -7.0792 C   0  0  0  0  0  0  0  0  0  0  0  0
  -19.3380  -39.0213   -6.0200 C   0  0  2  0  0  0  0  0  0  0  0  0
  -18.5479  -39.2282   -4.7154 C   0  0  0  0  0  0  0  0  0  0  0  0
  -20.7920  -39.0547   -5.6077 C   0  0  0  0  0  0  0  0  0  0  0  0
  -21.7656  -39.3906   -6.6669 C   0  0  0  0  0  0  0  0  0  0  0  0
  -22.1569  -40.8449   -6.6774 C   0  0  0  0  0  0  0  0  0  0  0  0
  -23.4300  -41.1693   -5.9618 C   0  0  0  0  0  0  0  0  0  0  0  0
  -23.2566  -42.5663   -5.3831 C   0  0  0  0  0  0  0  0  0  0  0  0
  -23.9854  -43.6269   -6.1132 C   0  0  0  0  0  0  0  0  0  0  0  0
  -23.5918  -43.8982   -7.5099 C   0  0  0  0  0  0  0  0  0  0  0  0
  -22.3352  -44.3811   -7.7119 O   0  0  0  0  0  0  0  0  0  0  0  0
  -21.0276  -43.9870   -7.7004 C   0  0  0  0  0  0  0  0  0  0  0  0
  -20.3173  -43.0607   -8.4556 C   0  0  0  0  0  0  0  0  0  0  0  0
  -18.9697  -42.8999   -8.1807 C   0  0  0  0  0  0  0  0  0  0  0  0
  -18.3935  -43.6921   -7.1462 C   0  0  0  0  0  0  0  0  0  0  0  0
  -19.1126  -44.6023   -6.4125 C   0  0  0  0  0  0  0  0  0  0  0  0
  -18.3120  -45.5421   -5.1458 Cl  0  0  0  0  0  0  0  0  0  0  0  0
  -20.3643  -44.7129   -6.7066 N   0  0  0  0  0  0  0  0  0  0  0  0
  -17.9356  -42.0213   -8.7457 C   0  0  0  0  0  0  0  0  0  0  0  0
  -16.7970  -42.6396   -8.9891 O   0  0  0  0  0  0  0  0  0  0  0  0
  -17.8962  -40.6679   -9.0815 N   0  0  0  0  0  0  0  0  0  0  0  0
  1  2  1  0
  2  3  1  0
  2  4  1  0
  4  5  2  0
  5  6  1  0
  6  7  2  0
  7  8  1  0
  8  9  2  0
  6 10  1  0
 10 11  1  0
 11 12  1  0
 10 13  1  0
 13 14  1  0
 14 15  1  0
 15 16  1  6
 15 17  1  0
 17 18  1  1
 18 19  1  0
 19 20  1  1
 19 21  1  0
 21 22  1  0
 22 23  1  0
 23 24  1  0
 24 25  1  0
 25 26  1  0
 26 27  1  0
 27 28  1  0
 28 29  1  0
 29 30  2  0
 30 31  1  0
 31 32  2  0
 32 33  1  0
 33 34  1  0
 33 35  2  0
 31 36  1  0
 36 37  2  0
 36 38  1  0
  9  4  1  0
 12 10  1  0
 35 29  1  0
 38 17  1  0
M  END
$$$$
