
     RDKit          3D

 38 41  0  0  0  0  0  0  0  0999 V2000
  -14.1389  -34.6057  -12.9852 C   0  0  0  0  0  0  0  0  0  0  0  0
  -13.2703  -35.1635  -11.8674 C   0  0  0  0  0  0  0  0  0  0  0  0
  -11.9590  -34.4125  -11.7941 C   0  0  0  0  0  0  0  0  0  0  0  0
  -13.0480  -36.6119  -11.9881 C   0  0  0  0  0  0  0  0  0  0  0  0
  -13.4330  -37.5335  -11.0296 C   0  0  0  0  0  0  0  0  0  0  0  0
  -13.2105  -38.8708  -11.1719 C   0  0  0  0  0  0  0  0  0  0  0  0
  -12.5956  -39.3093  -12.2825 N   0  0  0  0  0  0  0  0  0  0  0  0
  -12.1977  -38.4445  -13.2540 C   0  0  0  0  0  0  0  0  0  0  0  0
  -12.4150  -37.0914  -13.1254 C   0  0  0  0  0  0  0  0  0  0  0  0
  -13.6067  -39.8701  -10.1487 C   0  0  0  0  0  0  0  0  0  0  0  0
  -14.2433  -41.1106  -10.8024 C   0  0  0  0  0  0  0  0  0  0  0  0
  -12.9029  -41.1463  -10.0816 C   0  0  0  0  0  0  0  0  0  0  0  0
  -14.3631  -39.2945   -9.0449 N   0  0  0  0  0  0  0  0  0  0  0  0
  -15.5179  -40.1128   -8.7133 C   0  0  0  0  0  0  0  0  0  0  0  0
  -16.7632  -39.2805   -8.7138 C   0  0  1  0  0  0  0  0  0  0  0  0
  -16.7716  -38.2133   -9.5805 O   0  0  0  0  0  0  0  0  0  0  0  0
  -18.0557  -40.0444   -8.6956 C   0  0  2  0  0  0  0  0  0  0  0  0
  -19.1128  -39.5691   -7.7566 C   0  0  0  0  0  0  0  0  0  0  0  0
  -19.6162  -38.2000   -7.8675 C   0  0  2  0  0  0  0  0  0  0  0  0
  -19.0080  -37.2425   -6.8271 C   0  0  0  0  0  0  0  0  0  0  0  0
  -21.1122  -38.0403   -7.7204 C   0  0  0  0  0  0  0  0  0  0  0  0
  -21.9414  -39.1641   -8.2023 C   0  0  0  0  0  0  0  0  0  0  0  0
  -22.3457  -40.1180   -7.1092 C   0  0  0  0  0  0  0  0  0  0  0  0
  -23.7061  -39.8877   -6.5308 C   0  0  0  0  0  0  0  0  0  0  0  0
  -23.6278  -40.2952   -5.0665 C   0  0  0  0  0  0  0  0  0  0  0  0
  -24.2666  -41.5932   -4.7565 C   0  0  0  0  0  0  0  0  0  0  0  0
  -23.6953  -42.8075   -5.3715 C   0  0  0  0  0  0  0  0  0  0  0  0
  -22.4291  -43.1456   -5.0037 O   0  0  0  0  0  0  0  0  0  0  0  0
  -21.1297  -42.7656   -5.1839 C   0  0  0  0  0  0  0  0  0  0  0  0
  -20.3146  -42.7044   -6.3086 C   0  0  0  0  0  0  0  0  0  0  0  0
  -19.0132  -42.2621   -6.1402 C   0  0  0  0  0  0  0  0  0  0  0  0
  -18.5885  -41.9001   -4.8294 C   0  0  0  0  0  0  0  0  0  0  0  0
  -19.4093  -41.9686   -3.7314 C   0  0  0  0  0  0  0  0  0  0  0  0
  -18.7947  -41.4974   -2.1412 Cl  0  0  0  0  0  0  0  0  0  0  0  0
  -20.6124  -42.3853   -3.9420 N   0  0  0  0  0  0  0  0  0  0  0  0
  -17.9028  -42.0524   -7.0802 C   0  0  0  0  0  0  0  0  0  0  0  0
  -16.7497  -42.5184   -6.6430 O   0  0  0  0  0  0  0  0  0  0  0  0
  -17.8028  -41.4634   -8.3409 N   0  0  0  0  0  0  0  0  0  0  0  0
  1  2  1  0
  2  3  1  0
  2  4  1  0
  4  5  2  0
  5  6  1  0
  6  7  2  0
  7  8  1  0
  8  9  2  0
  6 10  1  0
 10 11  1  0
 11 12  1  0
 10 13  1  0
 13 14  1  0
 14 15  1  0
 15 16  1  6
 15 17  1  0
 17 18  1  1
 18 19  1  0
 19 20  1  1
 19 21  1  0
 21 22  1  0
 22 23  1  0
 23 24  1  0
 24 25  1  0
 25 26  1  0
 26 27  1  0
 27 28  1  0
 28 29  1  0
 29 30  2  0
 30 31  1  0
 31 32  2  0
 32 33  1  0
 33 34  1  0
 33 35  2  0
 31 36  1  0
 36 37  2  0
 36 38  1  0
  9  4  1  0
 12 10  1  0
 35 29  1  0
 38 17  1  0
M  END
$$$$
