
     RDKit          3D

 38 41  0  0  0  0  0  0  0  0999 V2000
  -12.2059  -36.8740  -12.2868 C   0  0  0  0  0  0  0  0  0  0  0  0
  -12.8053  -35.5547  -11.8229 C   0  0  0  0  0  0  0  0  0  0  0  0
  -12.0523  -35.0270  -10.6216 C   0  0  0  0  0  0  0  0  0  0  0  0
  -14.2466  -35.6498  -11.5479 C   0  0  0  0  0  0  0  0  0  0  0  0
  -15.0033  -36.7845  -11.7841 C   0  0  0  0  0  0  0  0  0  0  0  0
  -16.3394  -36.8392  -11.5190 C   0  0  0  0  0  0  0  0  0  0  0  0
  -16.9425  -35.7525  -11.0102 N   0  0  0  0  0  0  0  0  0  0  0  0
  -16.2435  -34.6128  -10.7600 C   0  0  0  0  0  0  0  0  0  0  0  0
  -14.8941  -34.5415  -11.0221 C   0  0  0  0  0  0  0  0  0  0  0  0
  -17.1666  -38.0440  -11.7772 C   0  0  0  0  0  0  0  0  0  0  0  0
  -18.4138  -37.6925  -12.6093 C   0  0  0  0  0  0  0  0  0  0  0  0
  -17.2792  -38.5592  -13.1376 C   0  0  0  0  0  0  0  0  0  0  0  0
  -17.4228  -38.8334  -10.5801 N   0  0  0  0  0  0  0  0  0  0  0  0
  -17.1026  -38.0849   -9.3759 C   0  0  0  0  0  0  0  0  0  0  0  0
  -17.4632  -38.8787   -8.1580 C   0  0  1  0  0  0  0  0  0  0  0  0
  -17.1045  -38.3242   -6.9522 O   0  0  0  0  0  0  0  0  0  0  0  0
  -18.8419  -39.4735   -8.1543 C   0  0  2  0  0  0  0  0  0  0  0  0
  -19.0673  -40.6608   -7.2801 C   0  0  0  0  0  0  0  0  0  0  0  0
  -18.8201  -40.5573   -5.8418 C   0  0  2  0  0  0  0  0  0  0  0  0
  -17.4713  -41.1614   -5.4119 C   0  0  0  0  0  0  0  0  0  0  0  0
  -19.8479  -41.2198   -4.9531 C   0  0  0  0  0  0  0  0  0  0  0  0
  -21.2371  -41.2334   -5.4557 C   0  0  0  0  0  0  0  0  0  0  0  0
  -21.6070  -42.5174   -6.1506 C   0  0  0  0  0  0  0  0  0  0  0  0
  -22.3286  -43.5174   -5.3037 C   0  0  0  0  0  0  0  0  0  0  0  0
  -21.9087  -44.8917   -5.8052 C   0  0  0  0  0  0  0  0  0  0  0  0
  -22.9327  -45.5879   -6.6150 C   0  0  0  0  0  0  0  0  0  0  0  0
  -23.3286  -44.9774   -7.8994 C   0  0  0  0  0  0  0  0  0  0  0  0
  -22.3708  -44.8974   -8.8633 O   0  0  0  0  0  0  0  0  0  0  0  0
  -21.2400  -44.2031   -9.1868 C   0  0  0  0  0  0  0  0  0  0  0  0
  -21.0070  -42.8607   -9.4639 C   0  0  0  0  0  0  0  0  0  0  0  0
  -19.7099  -42.4781   -9.7618 C   0  0  0  0  0  0  0  0  0  0  0  0
  -18.6965  -43.4793   -9.7691 C   0  0  0  0  0  0  0  0  0  0  0  0
  -18.9478  -44.8002   -9.4934 C   0  0  0  0  0  0  0  0  0  0  0  0
  -17.6251  -45.9740   -9.5255 Cl  0  0  0  0  0  0  0  0  0  0  0  0
  -20.1719  -45.1045   -9.2204 N   0  0  0  0  0  0  0  0  0  0  0  0
  -19.1025  -41.1771  -10.0765 C   0  0  0  0  0  0  0  0  0  0  0  0
  -18.2697  -41.2197  -11.0976 O   0  0  0  0  0  0  0  0  0  0  0  0
  -19.2153  -39.9002   -9.5262 N   0  0  0  0  0  0  0  0  0  0  0  0
  1  2  1  0
  2  3  1  0
  2  4  1  0
  4  5  2  0
  5  6  1  0
  6  7  2  0
  7  8  1  0
  8  9  2  0
  6 10  1  0
 10 11  1  0
 11 12  1  0
 10 13  1  0
 13 14  1  0
 14 15  1  0
 15 16  1  1
 15 17  1  0
 17 18  1  1
 18 19  1  0
 19 20  1  6
 19 21  1  0
 21 22  1  0
 22 23  1  0
 23 24  1  0
 24 25  1  0
 25 26  1  0
 26 27  1  0
 27 28  1  0
 28 29  1  0
 29 30  2  0
 30 31  1  0
 31 32  2  0
 32 33  1  0
 33 34  1  0
 33 35  2  0
 31 36  1  0
 36 37  2  0
 36 38  1  0
  9  4  1  0
 12 10  1  0
 35 29  1  0
 38 17  1  0
M  END
$$$$
