
     RDKit          3D

 38 41  0  0  0  0  0  0  0  0999 V2000
  -13.3415  -34.8803  -11.4800 C   0  0  0  0  0  0  0  0  0  0  0  0
  -13.9577  -36.0297  -12.2636 C   0  0  0  0  0  0  0  0  0  0  0  0
  -15.4530  -36.0789  -12.0391 C   0  0  0  0  0  0  0  0  0  0  0  0
  -13.3312  -37.3251  -11.9613 C   0  0  0  0  0  0  0  0  0  0  0  0
  -13.5719  -38.0468  -10.8049 C   0  0  0  0  0  0  0  0  0  0  0  0
  -12.9729  -39.2454  -10.5543 C   0  0  0  0  0  0  0  0  0  0  0  0
  -12.1184  -39.7434  -11.4628 N   0  0  0  0  0  0  0  0  0  0  0  0
  -11.8479  -39.0733  -12.6152 C   0  0  0  0  0  0  0  0  0  0  0  0
  -12.4445  -37.8621  -12.8830 C   0  0  0  0  0  0  0  0  0  0  0  0
  -13.2117  -40.0255   -9.3147 C   0  0  0  0  0  0  0  0  0  0  0  0
  -13.1582  -41.5391   -9.5930 C   0  0  0  0  0  0  0  0  0  0  0  0
  -12.1254  -40.8134   -8.7421 C   0  0  0  0  0  0  0  0  0  0  0  0
  -14.3770  -39.5741   -8.5662 N   0  0  0  0  0  0  0  0  0  0  0  0
  -15.5928  -40.2067   -9.0506 C   0  0  0  0  0  0  0  0  0  0  0  0
  -16.7883  -39.6488   -8.3414 C   0  0  1  0  0  0  0  0  0  0  0  0
  -16.9240  -38.2812   -8.3785 O   0  0  0  0  0  0  0  0  0  0  0  0
  -18.0788  -40.3826   -8.5665 C   0  0  2  0  0  0  0  0  0  0  0  0
  -19.2698  -39.9130   -7.8012 C   0  0  0  0  0  0  0  0  0  0  0  0
  -19.7234  -38.5297   -7.9462 C   0  0  2  0  0  0  0  0  0  0  0  0
  -19.2815  -37.6203   -6.7856 C   0  0  0  0  0  0  0  0  0  0  0  0
  -21.2198  -38.3399   -8.0455 C   0  0  0  0  0  0  0  0  0  0  0  0
  -21.9761  -39.4282   -8.6986 C   0  0  0  0  0  0  0  0  0  0  0  0
  -22.5748  -40.4068   -7.7228 C   0  0  0  0  0  0  0  0  0  0  0  0
  -24.0086  -40.1634   -7.3722 C   0  0  0  0  0  0  0  0  0  0  0  0
  -24.1843  -40.6191   -5.9306 C   0  0  0  0  0  0  0  0  0  0  0  0
  -24.8889  -41.9111   -5.7778 C   0  0  0  0  0  0  0  0  0  0  0  0
  -24.2440  -43.1182   -6.3312 C   0  0  0  0  0  0  0  0  0  0  0  0
  -23.0636  -43.4972   -5.7691 O   0  0  0  0  0  0  0  0  0  0  0  0
  -21.7459  -43.1420   -5.7162 C   0  0  0  0  0  0  0  0  0  0  0  0
  -20.7527  -43.0640   -6.6859 C   0  0  0  0  0  0  0  0  0  0  0  0
  -19.4904  -42.6577   -6.2870 C   0  0  0  0  0  0  0  0  0  0  0  0
  -19.2854  -42.3476   -4.9117 C   0  0  0  0  0  0  0  0  0  0  0  0
  -20.2798  -42.4320   -3.9694 C   0  0  0  0  0  0  0  0  0  0  0  0
  -19.9325  -42.0262   -2.2832 Cl  0  0  0  0  0  0  0  0  0  0  0  0
  -21.4377  -42.8137   -4.3926 N   0  0  0  0  0  0  0  0  0  0  0  0
  -18.2345  -42.4441   -7.0202 C   0  0  0  0  0  0  0  0  0  0  0  0
  -17.1795  -42.9505   -6.4133 O   0  0  0  0  0  0  0  0  0  0  0  0
  -17.9141  -41.8177   -8.2248 N   0  0  0  0  0  0  0  0  0  0  0  0
  1  2  1  0
  2  3  1  0
  2  4  1  0
  4  5  2  0
  5  6  1  0
  6  7  2  0
  7  8  1  0
  8  9  2  0
  6 10  1  0
 10 11  1  0
 11 12  1  0
 10 13  1  0
 13 14  1  0
 14 15  1  0
 15 16  1  6
 15 17  1  0
 17 18  1  1
 18 19  1  0
 19 20  1  1
 19 21  1  0
 21 22  1  0
 22 23  1  0
 23 24  1  0
 24 25  1  0
 25 26  1  0
 26 27  1  0
 27 28  1  0
 28 29  1  0
 29 30  2  0
 30 31  1  0
 31 32  2  0
 32 33  1  0
 33 34  1  0
 33 35  2  0
 31 36  1  0
 36 37  2  0
 36 38  1  0
  9  4  1  0
 12 10  1  0
 35 29  1  0
 38 17  1  0
M  END
$$$$
