
     RDKit          3D

 38 41  0  0  0  0  0  0  0  0999 V2000
  -12.1602  -33.9902   -9.4817 C   0  0  0  0  0  0  0  0  0  0  0  0
  -12.7986  -34.5998  -10.7209 C   0  0  0  0  0  0  0  0  0  0  0  0
  -14.3050  -34.4783  -10.6518 C   0  0  0  0  0  0  0  0  0  0  0  0
  -12.3869  -35.9932  -10.9464 C   0  0  0  0  0  0  0  0  0  0  0  0
  -13.2719  -37.0279  -11.1960 C   0  0  0  0  0  0  0  0  0  0  0  0
  -12.8569  -38.3103  -11.3996 C   0  0  0  0  0  0  0  0  0  0  0  0
  -11.5417  -38.5788  -11.3564 N   0  0  0  0  0  0  0  0  0  0  0  0
  -10.6314  -37.5975  -11.1148 C   0  0  0  0  0  0  0  0  0  0  0  0
  -11.0342  -36.2977  -10.9072 C   0  0  0  0  0  0  0  0  0  0  0  0
  -13.7935  -39.4324  -11.6568 C   0  0  0  0  0  0  0  0  0  0  0  0
  -13.4208  -40.1804  -12.9503 C   0  0  0  0  0  0  0  0  0  0  0  0
  -13.3099  -40.8059  -11.5669 C   0  0  0  0  0  0  0  0  0  0  0  0
  -15.1946  -39.0498  -11.5442 N   0  0  0  0  0  0  0  0  0  0  0  0
  -15.7787  -39.5439  -10.3082 C   0  0  0  0  0  0  0  0  0  0  0  0
  -17.2150  -39.1307  -10.2094 C   0  0  1  0  0  0  0  0  0  0  0  0
  -17.6860  -38.3467  -11.2359 O   0  0  0  0  0  0  0  0  0  0  0  0
  -18.1743  -40.2083   -9.7934 C   0  0  2  0  0  0  0  0  0  0  0  0
  -19.4381  -39.7741   -9.1307 C   0  0  0  0  0  0  0  0  0  0  0  0
  -20.3471  -38.8666   -9.8311 C   0  0  2  0  0  0  0  0  0  0  0  0
  -20.2250  -37.4047   -9.3651 C   0  0  0  0  0  0  0  0  0  0  0  0
  -21.8179  -39.1949   -9.7117 C   0  0  0  0  0  0  0  0  0  0  0  0
  -22.1621  -40.6270   -9.5960 C   0  0  0  0  0  0  0  0  0  0  0  0
  -22.3628  -41.0787   -8.1734 C   0  0  0  0  0  0  0  0  0  0  0  0
  -23.7842  -41.1117   -7.7079 C   0  0  0  0  0  0  0  0  0  0  0  0
  -23.7606  -40.7792   -6.2228 C   0  0  0  0  0  0  0  0  0  0  0  0
  -23.9687  -41.9413   -5.3312 C   0  0  0  0  0  0  0  0  0  0  0  0
  -22.9560  -43.0152   -5.3499 C   0  0  0  0  0  0  0  0  0  0  0  0
  -21.7061  -42.6893   -4.9205 O   0  0  0  0  0  0  0  0  0  0  0  0
  -20.5933  -41.9980   -5.3066 C   0  0  0  0  0  0  0  0  0  0  0  0
  -19.7095  -42.1547   -6.3684 C   0  0  0  0  0  0  0  0  0  0  0  0
  -18.6592  -41.2583   -6.4726 C   0  0  0  0  0  0  0  0  0  0  0  0
  -18.5462  -40.2348   -5.4881 C   0  0  0  0  0  0  0  0  0  0  0  0
  -19.4295  -40.0980   -4.4464 C   0  0  0  0  0  0  0  0  0  0  0  0
  -19.2099  -38.7950   -3.2706 Cl  0  0  0  0  0  0  0  0  0  0  0  0
  -20.3910  -40.9572   -4.3954 N   0  0  0  0  0  0  0  0  0  0  0  0
  -17.5715  -41.1075   -7.4497 C   0  0  0  0  0  0  0  0  0  0  0  0
  -16.3938  -40.8967   -6.8959 O   0  0  0  0  0  0  0  0  0  0  0  0
  -17.5138  -41.1380   -8.8432 N   0  0  0  0  0  0  0  0  0  0  0  0
  1  2  1  0
  2  3  1  0
  2  4  1  0
  4  5  2  0
  5  6  1  0
  6  7  2  0
  7  8  1  0
  8  9  2  0
  6 10  1  0
 10 11  1  0
 11 12  1  0
 10 13  1  0
 13 14  1  0
 14 15  1  0
 15 16  1  6
 15 17  1  0
 17 18  1  1
 18 19  1  0
 19 20  1  1
 19 21  1  0
 21 22  1  0
 22 23  1  0
 23 24  1  0
 24 25  1  0
 25 26  1  0
 26 27  1  0
 27 28  1  0
 28 29  1  0
 29 30  2  0
 30 31  1  0
 31 32  2  0
 32 33  1  0
 33 34  1  0
 33 35  2  0
 31 36  1  0
 36 37  2  0
 36 38  1  0
  9  4  1  0
 12 10  1  0
 35 29  1  0
 38 17  1  0
M  END
$$$$
