
     RDKit          3D

 38 41  0  0  0  0  0  0  0  0999 V2000
  -10.5307  -38.5376  -13.4319 C   0  0  0  0  0  0  0  0  0  0  0  0
  -11.4290  -37.3136  -13.5313 C   0  0  0  0  0  0  0  0  0  0  0  0
  -10.6248  -36.0506  -13.3153 C   0  0  0  0  0  0  0  0  0  0  0  0
  -12.5786  -37.3755  -12.6167 C   0  0  0  0  0  0  0  0  0  0  0  0
  -12.7060  -38.3066  -11.6003 C   0  0  0  0  0  0  0  0  0  0  0  0
  -13.7866  -38.3375  -10.7699 C   0  0  0  0  0  0  0  0  0  0  0  0
  -14.7625  -37.4315  -10.9448 N   0  0  0  0  0  0  0  0  0  0  0  0
  -14.6850  -36.4957  -11.9289 C   0  0  0  0  0  0  0  0  0  0  0  0
  -13.6006  -36.4512  -12.7755 C   0  0  0  0  0  0  0  0  0  0  0  0
  -13.9434  -39.3360   -9.6833 C   0  0  0  0  0  0  0  0  0  0  0  0
  -13.3355  -40.6927  -10.0849 C   0  0  0  0  0  0  0  0  0  0  0  0
  -12.7617  -39.8200   -8.9774 C   0  0  0  0  0  0  0  0  0  0  0  0
  -15.2972  -39.3976   -9.1492 N   0  0  0  0  0  0  0  0  0  0  0  0
  -15.2876  -39.5728   -7.7062 C   0  0  0  0  0  0  0  0  0  0  0  0
  -16.5994  -39.1478   -7.1213 C   0  0  1  0  0  0  0  0  0  0  0  0
  -16.6941  -37.8252   -6.7578 O   0  0  0  0  0  0  0  0  0  0  0  0
  -17.8221  -39.6620   -7.8250 C   0  0  2  0  0  0  0  0  0  0  0  0
  -19.0479  -39.8616   -6.9989 C   0  0  0  0  0  0  0  0  0  0  0  0
  -19.6195  -38.7305   -6.2679 C   0  0  2  0  0  0  0  0  0  0  0  0
  -19.2558  -38.7272   -4.7722 C   0  0  0  0  0  0  0  0  0  0  0  0
  -21.1269  -38.6232   -6.3054 C   0  0  0  0  0  0  0  0  0  0  0  0
  -21.7874  -39.1059   -7.5356 C   0  0  0  0  0  0  0  0  0  0  0  0
  -22.2977  -40.5185   -7.4231 C   0  0  0  0  0  0  0  0  0  0  0  0
  -23.7466  -40.6486   -7.0739 C   0  0  0  0  0  0  0  0  0  0  0  0
  -23.8798  -41.9208   -6.2491 C   0  0  0  0  0  0  0  0  0  0  0  0
  -24.4699  -43.0650   -6.9781 C   0  0  0  0  0  0  0  0  0  0  0  0
  -23.7241  -43.6069   -8.1311 C   0  0  0  0  0  0  0  0  0  0  0  0
  -22.5144  -44.1736   -7.8695 O   0  0  0  0  0  0  0  0  0  0  0  0
  -21.2322  -43.8421   -7.5357 C   0  0  0  0  0  0  0  0  0  0  0  0
  -20.2511  -43.1036   -8.1876 C   0  0  0  0  0  0  0  0  0  0  0  0
  -19.0280  -42.9542   -7.5558 C   0  0  0  0  0  0  0  0  0  0  0  0
  -18.8481  -43.5660   -6.2818 C   0  0  0  0  0  0  0  0  0  0  0  0
  -19.8299  -44.2923   -5.6554 C   0  0  0  0  0  0  0  0  0  0  0  0
  -19.5160  -45.0160   -4.0723 Cl  0  0  0  0  0  0  0  0  0  0  0  0
  -20.9512  -44.4002   -6.2850 N   0  0  0  0  0  0  0  0  0  0  0  0
  -17.7965  -42.2416   -7.9249 C   0  0  0  0  0  0  0  0  0  0  0  0
  -16.7007  -42.9437   -7.7150 O   0  0  0  0  0  0  0  0  0  0  0  0
  -17.5334  -40.9766   -8.4510 N   0  0  0  0  0  0  0  0  0  0  0  0
  1  2  1  0
  2  3  1  0
  2  4  1  0
  4  5  2  0
  5  6  1  0
  6  7  2  0
  7  8  1  0
  8  9  2  0
  6 10  1  0
 10 11  1  0
 11 12  1  0
 10 13  1  0
 13 14  1  0
 14 15  1  0
 15 16  1  6
 15 17  1  0
 17 18  1  1
 18 19  1  0
 19 20  1  1
 19 21  1  0
 21 22  1  0
 22 23  1  0
 23 24  1  0
 24 25  1  0
 25 26  1  0
 26 27  1  0
 27 28  1  0
 28 29  1  0
 29 30  2  0
 30 31  1  0
 31 32  2  0
 32 33  1  0
 33 34  1  0
 33 35  2  0
 31 36  1  0
 36 37  2  0
 36 38  1  0
  9  4  1  0
 12 10  1  0
 35 29  1  0
 38 17  1  0
M  END
$$$$
