
     RDKit          3D

 37 39  0  0  0  0  0  0  0  0999 V2000
  -11.2500  -35.6325  -12.6966 C   0  0  0  0  0  0  0  0  0  0  0  0
  -11.7797  -37.0585  -12.8599 C   0  0  0  0  0  0  0  0  0  0  0  0
  -12.5958  -37.3598  -11.6372 C   0  0  0  0  0  0  0  0  0  0  0  0
  -13.2216  -38.7136  -11.7473 C   0  0  0  0  0  0  0  0  0  0  0  0
  -13.9066  -39.2763  -10.6981 C   0  0  0  0  0  0  0  0  0  0  0  0
  -14.3412  -40.5019  -11.1384 C   0  0  0  0  0  0  0  0  0  0  0  0
  -15.1310  -41.5371  -10.4236 C   0  0  0  0  0  0  0  0  0  0  0  0
  -15.3492  -41.2242   -9.0551 N   0  0  0  0  0  0  0  0  0  0  0  0
  -15.7966  -39.8988   -8.7581 C   0  0  0  0  0  0  0  0  0  0  0  0
  -16.6960  -39.7444   -7.5963 C   0  0  1  0  0  0  0  0  0  0  0  0
  -16.8332  -38.4547   -7.1147 O   0  0  0  0  0  0  0  0  0  0  0  0
  -17.9989  -40.5047   -7.7172 C   0  0  2  0  0  0  0  0  0  0  0  0
  -19.1760  -39.7824   -8.1626 C   0  0  0  0  0  0  0  0  0  0  0  0
  -20.0542  -38.9882   -7.3120 C   0  0  2  0  0  0  0  0  0  0  0  0
  -19.6712  -37.5053   -7.1779 C   0  0  0  0  0  0  0  0  0  0  0  0
  -20.4595  -39.5646   -5.9876 C   0  0  0  0  0  0  0  0  0  0  0  0
  -21.8909  -39.2239   -5.6041 C   0  0  0  0  0  0  0  0  0  0  0  0
  -22.8860  -39.9460   -6.4597 C   0  0  0  0  0  0  0  0  0  0  0  0
  -23.3784  -41.2467   -5.8194 C   0  0  0  0  0  0  0  0  0  0  0  0
  -24.3718  -41.9286   -6.6890 C   0  0  0  0  0  0  0  0  0  0  0  0
  -24.0145  -43.2810   -7.1652 C   0  0  0  0  0  0  0  0  0  0  0  0
  -24.0802  -43.5130   -8.6298 C   0  0  0  0  0  0  0  0  0  0  0  0
  -22.8080  -43.9436   -9.1699 N   0  0  0  0  0  0  0  0  0  0  0  0
  -21.4990  -44.0081   -8.6043 C   0  0  0  0  0  0  0  0  0  0  0  0
  -20.9030  -45.2490   -8.9483 C   0  0  0  0  0  0  0  0  0  0  0  0
  -19.6497  -45.6309   -8.5613 C   0  0  0  0  0  0  0  0  0  0  0  0
  -19.0533  -46.9403   -8.9397 C   0  0  0  0  0  0  0  0  0  0  0  0
  -18.9812  -47.7820   -7.8265 O   0  0  0  0  0  0  0  0  0  0  0  0
  -18.4484  -49.0129   -8.2572 C   0  0  0  0  0  0  0  0  0  0  0  0
  -18.9827  -44.7147   -7.7981 C   0  0  0  0  0  0  0  0  0  0  0  0
  -19.5105  -43.4551   -7.4154 C   0  0  0  0  0  0  0  0  0  0  0  0
  -20.7753  -43.1314   -7.8364 C   0  0  0  0  0  0  0  0  0  0  0  0
  -18.5253  -42.7387   -6.5943 C   0  0  0  0  0  0  0  0  0  0  0  0
  -17.8544  -43.4370   -5.6847 O   0  0  0  0  0  0  0  0  0  0  0  0
  -18.1158  -41.3767   -6.5719 N   0  0  0  0  0  0  0  0  0  0  0  0
  -13.9080  -40.6123  -12.3951 N   0  0  0  0  0  0  0  0  0  0  0  0
  -13.2498  -39.5480  -12.7364 O   0  0  0  0  0  0  0  0  0  0  0  0
  1  2  1  0
  2  3  1  0
  3  4  1  0
  4  5  2  0
  5  6  1  0
  6  7  1  0
  7  8  1  0
  8  9  1  0
  9 10  1  0
 10 11  1  6
 10 12  1  0
 12 13  1  1
 13 14  1  0
 14 15  1  1
 14 16  1  0
 16 17  1  0
 17 18  1  0
 18 19  1  0
 19 20  1  0
 20 21  1  0
 21 22  1  0
 22 23  1  0
 23 24  1  0
 24 25  2  0
 25 26  1  0
 26 27  1  0
 27 28  1  0
 28 29  1  0
 26 30  2  0
 30 31  1  0
 31 32  2  0
 31 33  1  0
 33 34  2  0
 33 35  1  0
  6 36  2  0
 36 37  1  0
 32 24  1  0
 35 12  1  0
 37  4  1  0
M  END
$$$$
