
     RDKit          3D

 37 39  0  0  0  0  0  0  0  0999 V2000
  -12.0429  -36.0977  -15.6650 C   0  0  0  0  0  0  0  0  0  0  0  0
  -12.4263  -36.6301  -14.2829 C   0  0  0  0  0  0  0  0  0  0  0  0
  -13.7016  -37.4020  -14.4549 C   0  0  0  0  0  0  0  0  0  0  0  0
  -14.1331  -37.9952  -13.1516 C   0  0  0  0  0  0  0  0  0  0  0  0
  -13.5159  -37.6615  -11.9707 C   0  0  0  0  0  0  0  0  0  0  0  0
  -14.1543  -38.3787  -10.9895 C   0  0  0  0  0  0  0  0  0  0  0  0
  -13.9036  -38.4081   -9.5257 C   0  0  0  0  0  0  0  0  0  0  0  0
  -14.8001  -37.5868   -8.7910 N   0  0  0  0  0  0  0  0  0  0  0  0
  -15.4649  -38.1897   -7.6776 C   0  0  0  0  0  0  0  0  0  0  0  0
  -15.5936  -39.6613   -7.6963 C   0  0  1  0  0  0  0  0  0  0  0  0
  -15.0551  -40.3215   -6.6063 O   0  0  0  0  0  0  0  0  0  0  0  0
  -16.9623  -40.1574   -8.1095 C   0  0  2  0  0  0  0  0  0  0  0  0
  -17.9741  -39.1748   -8.4510 C   0  0  0  0  0  0  0  0  0  0  0  0
  -18.8330  -38.4787   -7.5005 C   0  0  2  0  0  0  0  0  0  0  0  0
  -18.2763  -37.1492   -6.9658 C   0  0  0  0  0  0  0  0  0  0  0  0
  -19.4622  -39.2832   -6.4018 C   0  0  0  0  0  0  0  0  0  0  0  0
  -20.8710  -38.8241   -6.0607 C   0  0  0  0  0  0  0  0  0  0  0  0
  -21.8461  -39.1568   -7.1481 C   0  0  0  0  0  0  0  0  0  0  0  0
  -22.5768  -40.4790   -6.8989 C   0  0  0  0  0  0  0  0  0  0  0  0
  -23.5432  -40.7701   -7.9893 C   0  0  0  0  0  0  0  0  0  0  0  0
  -23.3143  -42.0089   -8.7616 C   0  0  0  0  0  0  0  0  0  0  0  0
  -23.2390  -41.8721  -10.2377 C   0  0  0  0  0  0  0  0  0  0  0  0
  -21.9804  -42.3553  -10.7652 N   0  0  0  0  0  0  0  0  0  0  0  0
  -20.7662  -42.7566  -10.1311 C   0  0  0  0  0  0  0  0  0  0  0  0
  -20.3028  -43.9574  -10.7285 C   0  0  0  0  0  0  0  0  0  0  0  0
  -19.1644  -44.6116  -10.3513 C   0  0  0  0  0  0  0  0  0  0  0  0
  -18.7057  -45.8699  -10.9991 C   0  0  0  0  0  0  0  0  0  0  0  0
  -19.4848  -46.9488  -10.5727 O   0  0  0  0  0  0  0  0  0  0  0  0
  -19.6984  -47.7859  -11.6853 C   0  0  0  0  0  0  0  0  0  0  0  0
  -18.4761  -44.0196   -9.3303 C   0  0  0  0  0  0  0  0  0  0  0  0
  -18.8743  -42.8209   -8.6854 C   0  0  0  0  0  0  0  0  0  0  0  0
  -20.0277  -42.2123   -9.1110 C   0  0  0  0  0  0  0  0  0  0  0  0
  -17.9057  -42.4838   -7.6336 C   0  0  0  0  0  0  0  0  0  0  0  0
  -17.4431  -43.4748   -6.8792 O   0  0  0  0  0  0  0  0  0  0  0  0
  -17.3257  -41.2477   -7.2349 N   0  0  0  0  0  0  0  0  0  0  0  0
  -15.0971  -39.0882  -11.6116 N   0  0  0  0  0  0  0  0  0  0  0  0
  -15.0691  -38.8488  -12.8861 O   0  0  0  0  0  0  0  0  0  0  0  0
  1  2  1  0
  2  3  1  0
  3  4  1  0
  4  5  2  0
  5  6  1  0
  6  7  1  0
  7  8  1  0
  8  9  1  0
  9 10  1  0
 10 11  1  1
 10 12  1  0
 12 13  1  1
 13 14  1  0
 14 15  1  1
 14 16  1  0
 16 17  1  0
 17 18  1  0
 18 19  1  0
 19 20  1  0
 20 21  1  0
 21 22  1  0
 22 23  1  0
 23 24  1  0
 24 25  2  0
 25 26  1  0
 26 27  1  0
 27 28  1  0
 28 29  1  0
 26 30  2  0
 30 31  1  0
 31 32  2  0
 31 33  1  0
 33 34  2  0
 33 35  1  0
  6 36  2  0
 36 37  1  0
 32 24  1  0
 35 12  1  0
 37  4  1  0
M  END
$$$$
