
     RDKit          3D

 37 39  0  0  0  0  0  0  0  0999 V2000
  -20.8427  -35.7967  -12.5962 C   0  0  0  0  0  0  0  0  0  0  0  0
  -19.6063  -36.5223  -12.0621 C   0  0  0  0  0  0  0  0  0  0  0  0
  -18.4863  -35.5235  -12.0582 C   0  0  0  0  0  0  0  0  0  0  0  0
  -17.1831  -36.2011  -11.7770 C   0  0  0  0  0  0  0  0  0  0  0  0
  -16.6448  -36.2278  -10.5136 C   0  0  0  0  0  0  0  0  0  0  0  0
  -15.4640  -36.9207  -10.6155 C   0  0  0  0  0  0  0  0  0  0  0  0
  -14.4700  -37.2538   -9.5631 C   0  0  0  0  0  0  0  0  0  0  0  0
  -14.3884  -38.6466   -9.2955 N   0  0  0  0  0  0  0  0  0  0  0  0
  -15.3306  -39.1822   -8.3625 C   0  0  0  0  0  0  0  0  0  0  0  0
  -15.6442  -40.6207   -8.4847 C   0  0  1  0  0  0  0  0  0  0  0  0
  -14.6356  -41.4864   -8.1006 O   0  0  0  0  0  0  0  0  0  0  0  0
  -17.0172  -41.0002   -7.9737 C   0  0  2  0  0  0  0  0  0  0  0  0
  -17.1226  -42.1193   -7.0560 C   0  0  0  0  0  0  0  0  0  0  0  0
  -17.1954  -43.5242   -7.4389 C   0  0  2  0  0  0  0  0  0  0  0  0
  -15.8417  -44.2441   -7.5505 C   0  0  0  0  0  0  0  0  0  0  0  0
  -18.1022  -43.8971   -8.5743 C   0  0  0  0  0  0  0  0  0  0  0  0
  -18.7915  -45.2368   -8.3692 C   0  0  0  0  0  0  0  0  0  0  0  0
  -19.8259  -45.1737   -7.2877 C   0  0  0  0  0  0  0  0  0  0  0  0
  -21.2324  -44.9122   -7.8332 C   0  0  0  0  0  0  0  0  0  0  0  0
  -22.2327  -44.8685   -6.7353 C   0  0  0  0  0  0  0  0  0  0  0  0
  -22.9717  -43.6003   -6.5652 C   0  0  0  0  0  0  0  0  0  0  0  0
  -22.9550  -42.9935   -5.2107 C   0  0  0  0  0  0  0  0  0  0  0  0
  -22.4085  -41.6530   -5.2219 N   0  0  0  0  0  0  0  0  0  0  0  0
  -21.7359  -40.9005   -6.2313 C   0  0  0  0  0  0  0  0  0  0  0  0
  -22.2623  -39.5832   -6.2595 C   0  0  0  0  0  0  0  0  0  0  0  0
  -21.8390  -38.6067   -7.1160 C   0  0  0  0  0  0  0  0  0  0  0  0
  -22.4122  -37.2338   -7.1196 C   0  0  0  0  0  0  0  0  0  0  0  0
  -21.5220  -36.3332   -6.5286 O   0  0  0  0  0  0  0  0  0  0  0  0
  -22.0854  -35.9177   -5.3062 C   0  0  0  0  0  0  0  0  0  0  0  0
  -20.8447  -38.9881   -7.9718 C   0  0  0  0  0  0  0  0  0  0  0  0
  -20.2678  -40.2834   -8.0026 C   0  0  0  0  0  0  0  0  0  0  0  0
  -20.7373  -41.2194   -7.1164 C   0  0  0  0  0  0  0  0  0  0  0  0
  -19.2383  -40.3379   -9.0491 C   0  0  0  0  0  0  0  0  0  0  0  0
  -19.5035  -39.7449  -10.2080 O   0  0  0  0  0  0  0  0  0  0  0  0
  -17.9428  -40.9244   -9.0797 N   0  0  0  0  0  0  0  0  0  0  0  0
  -15.3539  -37.2665  -11.8990 N   0  0  0  0  0  0  0  0  0  0  0  0
  -16.3771  -36.8333  -12.5682 O   0  0  0  0  0  0  0  0  0  0  0  0
  1  2  1  0
  2  3  1  0
  3  4  1  0
  4  5  2  0
  5  6  1  0
  6  7  1  0
  7  8  1  0
  8  9  1  0
  9 10  1  0
 10 11  1  1
 10 12  1  0
 12 13  1  6
 13 14  1  0
 14 15  1  6
 14 16  1  0
 16 17  1  0
 17 18  1  0
 18 19  1  0
 19 20  1  0
 20 21  1  0
 21 22  1  0
 22 23  1  0
 23 24  1  0
 24 25  2  0
 25 26  1  0
 26 27  1  0
 27 28  1  0
 28 29  1  0
 26 30  2  0
 30 31  1  0
 31 32  2  0
 31 33  1  0
 33 34  2  0
 33 35  1  0
  6 36  2  0
 36 37  1  0
 32 24  1  0
 35 12  1  0
 37  4  1  0
M  END
$$$$
