
     RDKit          3D

 37 39  0  0  0  0  0  0  0  0999 V2000
  -10.0370  -39.3840  -13.9157 C   0  0  0  0  0  0  0  0  0  0  0  0
  -10.6802  -38.0001  -13.8081 C   0  0  0  0  0  0  0  0  0  0  0  0
  -12.1281  -38.2199  -13.4808 C   0  0  0  0  0  0  0  0  0  0  0  0
  -12.3573  -38.0849  -12.0091 C   0  0  0  0  0  0  0  0  0  0  0  0
  -13.5053  -38.5493  -11.4149 C   0  0  0  0  0  0  0  0  0  0  0  0
  -13.3854  -38.2654  -10.0771 C   0  0  0  0  0  0  0  0  0  0  0  0
  -14.3288  -38.5430   -8.9639 C   0  0  0  0  0  0  0  0  0  0  0  0
  -14.2163  -39.8648   -8.4556 N   0  0  0  0  0  0  0  0  0  0  0  0
  -15.2676  -40.3204   -7.5999 C   0  0  0  0  0  0  0  0  0  0  0  0
  -16.4858  -39.4868   -7.5402 C   0  0  1  0  0  0  0  0  0  0  0  0
  -16.4697  -38.3490   -8.3270 O   0  0  0  0  0  0  0  0  0  0  0  0
  -17.7773  -40.2727   -7.6100 C   0  0  2  0  0  0  0  0  0  0  0  0
  -18.9316  -39.6426   -8.2235 C   0  0  0  0  0  0  0  0  0  0  0  0
  -19.8575  -38.7371   -7.5539 C   0  0  2  0  0  0  0  0  0  0  0  0
  -19.4882  -37.2467   -7.6317 C   0  0  0  0  0  0  0  0  0  0  0  0
  -20.3313  -39.1064   -6.1794 C   0  0  0  0  0  0  0  0  0  0  0  0
  -21.7827  -38.7281   -5.9293 C   0  0  0  0  0  0  0  0  0  0  0  0
  -22.7273  -39.5862   -6.7136 C   0  0  0  0  0  0  0  0  0  0  0  0
  -23.2483  -40.7780   -5.9060 C   0  0  0  0  0  0  0  0  0  0  0  0
  -24.1906  -41.5985   -6.7102 C   0  0  0  0  0  0  0  0  0  0  0  0
  -23.8028  -43.0038   -6.9512 C   0  0  0  0  0  0  0  0  0  0  0  0
  -23.7885  -43.4605   -8.3634 C   0  0  0  0  0  0  0  0  0  0  0  0
  -22.4873  -43.9539   -8.7624 N   0  0  0  0  0  0  0  0  0  0  0  0
  -21.2105  -43.9140   -8.1255 C   0  0  0  0  0  0  0  0  0  0  0  0
  -20.5918  -45.1857   -8.2408 C   0  0  0  0  0  0  0  0  0  0  0  0
  -19.3597  -45.4876   -7.7338 C   0  0  0  0  0  0  0  0  0  0  0  0
  -18.7385  -46.8323   -7.8723 C   0  0  0  0  0  0  0  0  0  0  0  0
  -18.6941  -47.4778   -6.6337 O   0  0  0  0  0  0  0  0  0  0  0  0
  -19.8524  -48.2722   -6.5257 C   0  0  0  0  0  0  0  0  0  0  0  0
  -18.7386  -44.4562   -7.0880 C   0  0  0  0  0  0  0  0  0  0  0  0
  -19.2912  -43.1591   -6.9338 C   0  0  0  0  0  0  0  0  0  0  0  0
  -20.5328  -42.9200   -7.4660 C   0  0  0  0  0  0  0  0  0  0  0  0
  -18.3546  -42.3121   -6.1832 C   0  0  0  0  0  0  0  0  0  0  0  0
  -17.7310  -42.8529   -5.1422 O   0  0  0  0  0  0  0  0  0  0  0  0
  -17.9523  -40.9581   -6.3510 N   0  0  0  0  0  0  0  0  0  0  0  0
  -12.2044  -37.6613   -9.9372 N   0  0  0  0  0  0  0  0  0  0  0  0
  -11.6128  -37.5639  -11.0873 O   0  0  0  0  0  0  0  0  0  0  0  0
  1  2  1  0
  2  3  1  0
  3  4  1  0
  4  5  2  0
  5  6  1  0
  6  7  1  0
  7  8  1  0
  8  9  1  0
  9 10  1  0
 10 11  1  6
 10 12  1  0
 12 13  1  1
 13 14  1  0
 14 15  1  1
 14 16  1  0
 16 17  1  0
 17 18  1  0
 18 19  1  0
 19 20  1  0
 20 21  1  0
 21 22  1  0
 22 23  1  0
 23 24  1  0
 24 25  2  0
 25 26  1  0
 26 27  1  0
 27 28  1  0
 28 29  1  0
 26 30  2  0
 30 31  1  0
 31 32  2  0
 31 33  1  0
 33 34  2  0
 33 35  1  0
  6 36  2  0
 36 37  1  0
 32 24  1  0
 35 12  1  0
 37  4  1  0
M  END
$$$$
