
     RDKit          3D

 37 39  0  0  0  0  0  0  0  0999 V2000
  -12.1290  -34.9554  -13.3665 C   0  0  0  0  0  0  0  0  0  0  0  0
  -12.1202  -36.3837  -12.8186 C   0  0  0  0  0  0  0  0  0  0  0  0
  -13.5066  -36.6637  -12.3172 C   0  0  0  0  0  0  0  0  0  0  0  0
  -13.5827  -38.0375  -11.7311 C   0  0  0  0  0  0  0  0  0  0  0  0
  -13.2415  -38.2807  -10.4230 C   0  0  0  0  0  0  0  0  0  0  0  0
  -13.4265  -39.6264  -10.2234 C   0  0  0  0  0  0  0  0  0  0  0  0
  -13.2136  -40.4379   -8.9976 C   0  0  0  0  0  0  0  0  0  0  0  0
  -14.1904  -40.1975   -7.9945 N   0  0  0  0  0  0  0  0  0  0  0  0
  -15.4696  -40.8101   -8.1774 C   0  0  0  0  0  0  0  0  0  0  0  0
  -16.6545  -39.9558   -7.9564 C   0  0  1  0  0  0  0  0  0  0  0  0
  -16.6611  -38.7549   -8.6434 O   0  0  0  0  0  0  0  0  0  0  0  0
  -17.9708  -40.7014   -7.9953 C   0  0  2  0  0  0  0  0  0  0  0  0
  -19.1346  -40.0121   -8.5209 C   0  0  0  0  0  0  0  0  0  0  0  0
  -19.9986  -39.1129   -7.7656 C   0  0  2  0  0  0  0  0  0  0  0  0
  -19.5891  -37.6314   -7.7958 C   0  0  0  0  0  0  0  0  0  0  0  0
  -20.4147  -39.5315   -6.3865 C   0  0  0  0  0  0  0  0  0  0  0  0
  -21.8399  -39.1249   -6.0464 C   0  0  0  0  0  0  0  0  0  0  0  0
  -22.8475  -39.9196   -6.8191 C   0  0  0  0  0  0  0  0  0  0  0  0
  -23.3635  -41.1323   -6.0397 C   0  0  0  0  0  0  0  0  0  0  0  0
  -24.3686  -41.8886   -6.8306 C   0  0  0  0  0  0  0  0  0  0  0  0
  -24.0356  -43.2916   -7.1531 C   0  0  0  0  0  0  0  0  0  0  0  0
  -24.1049  -43.6833   -8.5831 C   0  0  0  0  0  0  0  0  0  0  0  0
  -22.8405  -44.1939   -9.0691 N   0  0  0  0  0  0  0  0  0  0  0  0
  -21.5331  -44.2186   -8.4968 C   0  0  0  0  0  0  0  0  0  0  0  0
  -20.9593  -45.5004   -8.6996 C   0  0  0  0  0  0  0  0  0  0  0  0
  -19.7132  -45.8593   -8.2698 C   0  0  0  0  0  0  0  0  0  0  0  0
  -19.1403  -47.2130   -8.4992 C   0  0  0  0  0  0  0  0  0  0  0  0
  -17.8239  -47.2695   -8.0337 O   0  0  0  0  0  0  0  0  0  0  0  0
  -17.0273  -47.7916   -9.0716 C   0  0  0  0  0  0  0  0  0  0  0  0
  -19.0302  -44.8762   -7.6113 C   0  0  0  0  0  0  0  0  0  0  0  0
  -19.5354  -43.5727   -7.3718 C   0  0  0  0  0  0  0  0  0  0  0  0
  -20.7940  -43.2751   -7.8291 C   0  0  0  0  0  0  0  0  0  0  0  0
  -18.5377  -42.7873   -6.6330 C   0  0  0  0  0  0  0  0  0  0  0  0
  -17.8798  -43.3923   -5.6499 O   0  0  0  0  0  0  0  0  0  0  0  0
  -18.1038  -41.4388   -6.7607 N   0  0  0  0  0  0  0  0  0  0  0  0
  -13.8575  -40.1118  -11.3886 N   0  0  0  0  0  0  0  0  0  0  0  0
  -13.9432  -39.1599  -12.2655 O   0  0  0  0  0  0  0  0  0  0  0  0
  1  2  1  0
  2  3  1  0
  3  4  1  0
  4  5  2  0
  5  6  1  0
  6  7  1  0
  7  8  1  0
  8  9  1  0
  9 10  1  0
 10 11  1  6
 10 12  1  0
 12 13  1  1
 13 14  1  0
 14 15  1  1
 14 16  1  0
 16 17  1  0
 17 18  1  0
 18 19  1  0
 19 20  1  0
 20 21  1  0
 21 22  1  0
 22 23  1  0
 23 24  1  0
 24 25  2  0
 25 26  1  0
 26 27  1  0
 27 28  1  0
 28 29  1  0
 26 30  2  0
 30 31  1  0
 31 32  2  0
 31 33  1  0
 33 34  2  0
 33 35  1  0
  6 36  2  0
 36 37  1  0
 32 24  1  0
 35 12  1  0
 37  4  1  0
M  END
$$$$
