
     RDKit          3D

 37 39  0  0  0  0  0  0  0  0999 V2000
  -10.0262  -34.9465  -10.2521 C   0  0  0  0  0  0  0  0  0  0  0  0
  -10.5440  -36.3460  -10.5893 C   0  0  0  0  0  0  0  0  0  0  0  0
  -11.9510  -36.4229  -10.0734 C   0  0  0  0  0  0  0  0  0  0  0  0
  -12.5690  -37.7359  -10.4350 C   0  0  0  0  0  0  0  0  0  0  0  0
  -13.6378  -37.8149  -11.2941 C   0  0  0  0  0  0  0  0  0  0  0  0
  -13.9446  -39.1488  -11.4013 C   0  0  0  0  0  0  0  0  0  0  0  0
  -15.0095  -39.8125  -12.1962 C   0  0  0  0  0  0  0  0  0  0  0  0
  -15.5095  -40.9917  -11.5816 N   0  0  0  0  0  0  0  0  0  0  0  0
  -16.2010  -40.8307  -10.3402 C   0  0  0  0  0  0  0  0  0  0  0  0
  -17.5255  -40.1786  -10.3957 C   0  0  1  0  0  0  0  0  0  0  0  0
  -17.9730  -39.8427  -11.6610 O   0  0  0  0  0  0  0  0  0  0  0  0
  -18.5728  -40.8295   -9.5184 C   0  0  2  0  0  0  0  0  0  0  0  0
  -19.9411  -40.3565   -9.6174 C   0  0  0  0  0  0  0  0  0  0  0  0
  -20.4904  -39.2016   -8.9175 C   0  0  2  0  0  0  0  0  0  0  0  0
  -20.3840  -37.8664   -9.6721 C   0  0  0  0  0  0  0  0  0  0  0  0
  -20.1500  -39.0319   -7.4664 C   0  0  0  0  0  0  0  0  0  0  0  0
  -21.3018  -38.4708   -6.6474 C   0  0  0  0  0  0  0  0  0  0  0  0
  -22.4105  -39.4653   -6.4872 C   0  0  0  0  0  0  0  0  0  0  0  0
  -22.3071  -40.2564   -5.1804 C   0  0  0  0  0  0  0  0  0  0  0  0
  -23.4282  -41.2228   -5.0498 C   0  0  0  0  0  0  0  0  0  0  0  0
  -23.0620  -42.6519   -4.9658 C   0  0  0  0  0  0  0  0  0  0  0  0
  -23.7198  -43.5682   -5.9305 C   0  0  0  0  0  0  0  0  0  0  0  0
  -22.7591  -44.2758   -6.7503 N   0  0  0  0  0  0  0  0  0  0  0  0
  -21.3502  -44.1247   -6.9223 C   0  0  0  0  0  0  0  0  0  0  0  0
  -20.7381  -45.4047   -6.9037 C   0  0  0  0  0  0  0  0  0  0  0  0
  -19.3950  -45.6142   -7.0394 C   0  0  0  0  0  0  0  0  0  0  0  0
  -18.7844  -46.9707   -7.0158 C   0  0  0  0  0  0  0  0  0  0  0  0
  -18.1854  -47.2132   -5.7768 O   0  0  0  0  0  0  0  0  0  0  0  0
  -18.0391  -48.6076   -5.6403 C   0  0  0  0  0  0  0  0  0  0  0  0
  -18.6523  -44.4787   -7.2000 C   0  0  0  0  0  0  0  0  0  0  0  0
  -19.1911  -43.1671   -7.2306 C   0  0  0  0  0  0  0  0  0  0  0  0
  -20.5480  -43.0242   -7.0886 C   0  0  0  0  0  0  0  0  0  0  0  0
  -18.1052  -42.1941   -7.4095 C   0  0  0  0  0  0  0  0  0  0  0  0
  -16.9807  -42.3914   -6.7300 O   0  0  0  0  0  0  0  0  0  0  0  0
  -18.0012  -41.0202   -8.2060 N   0  0  0  0  0  0  0  0  0  0  0  0
  -13.0698  -39.7876  -10.6230 N   0  0  0  0  0  0  0  0  0  0  0  0
  -12.2668  -38.9378  -10.0615 O   0  0  0  0  0  0  0  0  0  0  0  0
  1  2  1  0
  2  3  1  0
  3  4  1  0
  4  5  2  0
  5  6  1  0
  6  7  1  0
  7  8  1  0
  8  9  1  0
  9 10  1  0
 10 11  1  6
 10 12  1  0
 12 13  1  1
 13 14  1  0
 14 15  1  6
 14 16  1  0
 16 17  1  0
 17 18  1  0
 18 19  1  0
 19 20  1  0
 20 21  1  0
 21 22  1  0
 22 23  1  0
 23 24  1  0
 24 25  2  0
 25 26  1  0
 26 27  1  0
 27 28  1  0
 28 29  1  0
 26 30  2  0
 30 31  1  0
 31 32  2  0
 31 33  1  0
 33 34  2  0
 33 35  1  0
  6 36  2  0
 36 37  1  0
 32 24  1  0
 35 12  1  0
 37  4  1  0
M  END
$$$$
