
     RDKit          3D

 37 39  0  0  0  0  0  0  0  0999 V2000
  -24.3706  -44.6294   -5.6462 C   0  0  0  0  0  0  0  0  0  0  0  0
  -23.5136  -43.6034   -4.9024 C   0  0  0  0  0  0  0  0  0  0  0  0
  -23.3762  -42.4155   -5.8090 C   0  0  0  0  0  0  0  0  0  0  0  0
  -22.5308  -41.3626   -5.1660 C   0  0  0  0  0  0  0  0  0  0  0  0
  -21.1875  -41.5520   -4.9503 C   0  0  0  0  0  0  0  0  0  0  0  0
  -20.7305  -40.4038   -4.3524 C   0  0  0  0  0  0  0  0  0  0  0  0
  -19.3595  -40.0557   -3.8991 C   0  0  0  0  0  0  0  0  0  0  0  0
  -18.3552  -40.4151   -4.8374 N   0  0  0  0  0  0  0  0  0  0  0  0
  -17.2587  -39.5098   -4.9897 C   0  0  0  0  0  0  0  0  0  0  0  0
  -17.3294  -38.5630   -6.1216 C   0  0  1  0  0  0  0  0  0  0  0  0
  -16.6232  -37.3845   -5.9591 O   0  0  0  0  0  0  0  0  0  0  0  0
  -17.1577  -39.2083   -7.4797 C   0  0  2  0  0  0  0  0  0  0  0  0
  -16.0173  -38.8159   -8.2866 C   0  0  0  0  0  0  0  0  0  0  0  0
  -15.9576  -37.6474   -9.1564 C   0  0  2  0  0  0  0  0  0  0  0  0
  -15.4386  -36.3617   -8.4922 C   0  0  0  0  0  0  0  0  0  0  0  0
  -17.1404  -37.3637  -10.0344 C   0  0  0  0  0  0  0  0  0  0  0  0
  -16.7508  -36.8108  -11.3962 C   0  0  0  0  0  0  0  0  0  0  0  0
  -16.0973  -37.8494  -12.2552 C   0  0  0  0  0  0  0  0  0  0  0  0
  -17.0872  -38.5451  -13.1934 C   0  0  0  0  0  0  0  0  0  0  0  0
  -16.4028  -39.5584  -14.0375 C   0  0  0  0  0  0  0  0  0  0  0  0
  -16.8538  -40.9574  -13.8866 C   0  0  0  0  0  0  0  0  0  0  0  0
  -15.8075  -41.9695  -13.5967 C   0  0  0  0  0  0  0  0  0  0  0  0
  -16.0640  -42.6785  -12.3609 N   0  0  0  0  0  0  0  0  0  0  0  0
  -17.0079  -42.4651  -11.3116 C   0  0  0  0  0  0  0  0  0  0  0  0
  -17.5905  -43.7069  -10.9486 C   0  0  0  0  0  0  0  0  0  0  0  0
  -18.5380  -43.8538   -9.9755 C   0  0  0  0  0  0  0  0  0  0  0  0
  -19.1291  -45.1716   -9.6185 C   0  0  0  0  0  0  0  0  0  0  0  0
  -20.4425  -45.2590  -10.0879 O   0  0  0  0  0  0  0  0  0  0  0  0
  -21.1973  -45.9442   -9.1157 C   0  0  0  0  0  0  0  0  0  0  0  0
  -18.9022  -42.6940   -9.3519 C   0  0  0  0  0  0  0  0  0  0  0  0
  -18.3647  -41.4176   -9.6576 C   0  0  0  0  0  0  0  0  0  0  0  0
  -17.4164  -41.3373  -10.6455 C   0  0  0  0  0  0  0  0  0  0  0  0
  -18.9907  -40.4027   -8.7996 C   0  0  0  0  0  0  0  0  0  0  0  0
  -20.2990  -40.4947   -8.5876 O   0  0  0  0  0  0  0  0  0  0  0  0
  -18.4561  -39.2807   -8.1078 N   0  0  0  0  0  0  0  0  0  0  0  0
  -21.7919  -39.6035   -4.2412 N   0  0  0  0  0  0  0  0  0  0  0  0
  -22.8442  -40.1863   -4.7263 O   0  0  0  0  0  0  0  0  0  0  0  0
  1  2  1  0
  2  3  1  0
  3  4  1  0
  4  5  2  0
  5  6  1  0
  6  7  1  0
  7  8  1  0
  8  9  1  0
  9 10  1  0
 10 11  1  1
 10 12  1  0
 12 13  1  6
 13 14  1  0
 14 15  1  1
 14 16  1  0
 16 17  1  0
 17 18  1  0
 18 19  1  0
 19 20  1  0
 20 21  1  0
 21 22  1  0
 22 23  1  0
 23 24  1  0
 24 25  2  0
 25 26  1  0
 26 27  1  0
 27 28  1  0
 28 29  1  0
 26 30  2  0
 30 31  1  0
 31 32  2  0
 31 33  1  0
 33 34  2  0
 33 35  1  0
  6 36  2  0
 36 37  1  0
 32 24  1  0
 35 12  1  0
 37  4  1  0
M  END
$$$$
