
     RDKit          3D

 37 39  0  0  0  0  0  0  0  0999 V2000
  -10.2896  -43.1141  -12.0445 C   0  0  0  0  0  0  0  0  0  0  0  0
  -11.1266  -41.8700  -12.3482 C   0  0  0  0  0  0  0  0  0  0  0  0
  -12.5634  -42.2570  -12.1545 C   0  0  0  0  0  0  0  0  0  0  0  0
  -13.4241  -41.0379  -12.0556 C   0  0  0  0  0  0  0  0  0  0  0  0
  -13.6923  -40.4437  -10.8466 C   0  0  0  0  0  0  0  0  0  0  0  0
  -14.4991  -39.3672  -11.1202 C   0  0  0  0  0  0  0  0  0  0  0  0
  -15.0914  -38.3701  -10.1920 C   0  0  0  0  0  0  0  0  0  0  0  0
  -14.6239  -38.5058   -8.8574 N   0  0  0  0  0  0  0  0  0  0  0  0
  -15.4487  -39.2484   -7.9555 C   0  0  0  0  0  0  0  0  0  0  0  0
  -16.8466  -38.7948   -7.8048 C   0  0  1  0  0  0  0  0  0  0  0  0
  -17.1995  -37.6883   -8.5566 O   0  0  0  0  0  0  0  0  0  0  0  0
  -17.8659  -39.9131   -7.8283 C   0  0  2  0  0  0  0  0  0  0  0  0
  -19.2670  -39.5616   -7.9666 C   0  0  0  0  0  0  0  0  0  0  0  0
  -20.1527  -39.1685   -6.8774 C   0  0  2  0  0  0  0  0  0  0  0  0
  -20.2032  -37.6599   -6.5857 C   0  0  0  0  0  0  0  0  0  0  0  0
  -20.1001  -39.9641   -5.6067 C   0  0  0  0  0  0  0  0  0  0  0  0
  -21.4626  -40.1304   -4.9526 C   0  0  0  0  0  0  0  0  0  0  0  0
  -22.3509  -41.0471   -5.7365 C   0  0  0  0  0  0  0  0  0  0  0  0
  -22.3028  -42.4904   -5.2278 C   0  0  0  0  0  0  0  0  0  0  0  0
  -23.2041  -43.3671   -6.0196 C   0  0  0  0  0  0  0  0  0  0  0  0
  -22.5675  -44.4868   -6.7438 C   0  0  0  0  0  0  0  0  0  0  0  0
  -22.8512  -44.5902   -8.1971 C   0  0  0  0  0  0  0  0  0  0  0  0
  -21.6422  -44.5445   -8.9919 N   0  0  0  0  0  0  0  0  0  0  0  0
  -20.2869  -44.2445   -8.6590 C   0  0  0  0  0  0  0  0  0  0  0  0
  -19.4336  -45.1957   -9.2756 C   0  0  0  0  0  0  0  0  0  0  0  0
  -18.0727  -45.1962   -9.1555 C   0  0  0  0  0  0  0  0  0  0  0  0
  -17.2057  -46.2087   -9.8161 C   0  0  0  0  0  0  0  0  0  0  0  0
  -16.2849  -45.5838  -10.6614 O   0  0  0  0  0  0  0  0  0  0  0  0
  -14.9959  -45.9791  -10.2534 C   0  0  0  0  0  0  0  0  0  0  0  0
  -17.5666  -44.1914   -8.3803 C   0  0  0  0  0  0  0  0  0  0  0  0
  -18.3539  -43.2046   -7.7339 C   0  0  0  0  0  0  0  0  0  0  0  0
  -19.7152  -43.2594   -7.8940 C   0  0  0  0  0  0  0  0  0  0  0  0
  -17.4801  -42.2933   -6.9831 C   0  0  0  0  0  0  0  0  0  0  0  0
  -16.4674  -42.8253   -6.3073 O   0  0  0  0  0  0  0  0  0  0  0  0
  -17.4923  -40.8800   -6.8227 N   0  0  0  0  0  0  0  0  0  0  0  0
  -14.6712  -39.3675  -12.4429 N   0  0  0  0  0  0  0  0  0  0  0  0
  -14.0297  -40.3602  -12.9771 O   0  0  0  0  0  0  0  0  0  0  0  0
  1  2  1  0
  2  3  1  0
  3  4  1  0
  4  5  2  0
  5  6  1  0
  6  7  1  0
  7  8  1  0
  8  9  1  0
  9 10  1  0
 10 11  1  6
 10 12  1  0
 12 13  1  1
 13 14  1  0
 14 15  1  1
 14 16  1  0
 16 17  1  0
 17 18  1  0
 18 19  1  0
 19 20  1  0
 20 21  1  0
 21 22  1  0
 22 23  1  0
 23 24  1  0
 24 25  2  0
 25 26  1  0
 26 27  1  0
 27 28  1  0
 28 29  1  0
 26 30  2  0
 30 31  1  0
 31 32  2  0
 31 33  1  0
 33 34  2  0
 33 35  1  0
  6 36  2  0
 36 37  1  0
 32 24  1  0
 35 12  1  0
 37  4  1  0
M  END
$$$$
