
     RDKit          3D

 37 39  0  0  0  0  0  0  0  0999 V2000
   -9.4392  -39.1553  -12.6734 C   0  0  0  0  0  0  0  0  0  0  0  0
  -10.7383  -39.7150  -12.0908 C   0  0  0  0  0  0  0  0  0  0  0  0
  -11.5707  -40.1746  -13.2517 C   0  0  0  0  0  0  0  0  0  0  0  0
  -12.8918  -40.6896  -12.7759 C   0  0  0  0  0  0  0  0  0  0  0  0
  -13.9723  -39.8568  -12.6156 C   0  0  0  0  0  0  0  0  0  0  0  0
  -15.0030  -40.6485  -12.1734 C   0  0  0  0  0  0  0  0  0  0  0  0
  -16.4019  -40.2784  -11.8378 C   0  0  0  0  0  0  0  0  0  0  0  0
  -16.5007  -39.0349  -11.1581 N   0  0  0  0  0  0  0  0  0  0  0  0
  -17.3845  -38.9799  -10.0352 C   0  0  0  0  0  0  0  0  0  0  0  0
  -17.0393  -39.8260   -8.8743 C   0  0  1  0  0  0  0  0  0  0  0  0
  -16.2900  -39.2096   -7.8881 O   0  0  0  0  0  0  0  0  0  0  0  0
  -18.1898  -40.6587   -8.3517 C   0  0  2  0  0  0  0  0  0  0  0  0
  -19.5331  -40.1216   -8.4663 C   0  0  0  0  0  0  0  0  0  0  0  0
  -20.1575  -39.1959   -7.5291 C   0  0  2  0  0  0  0  0  0  0  0  0
  -19.9521  -37.7054   -7.8450 C   0  0  0  0  0  0  0  0  0  0  0  0
  -19.9967  -39.4656   -6.0622 C   0  0  0  0  0  0  0  0  0  0  0  0
  -21.2370  -39.1177   -5.2543 C   0  0  0  0  0  0  0  0  0  0  0  0
  -22.3625  -40.0699   -5.5198 C   0  0  0  0  0  0  0  0  0  0  0  0
  -22.4245  -41.2075   -4.4970 C   0  0  0  0  0  0  0  0  0  0  0  0
  -23.5585  -42.1238   -4.7838 C   0  0  0  0  0  0  0  0  0  0  0  0
  -23.2133  -43.5302   -5.0775 C   0  0  0  0  0  0  0  0  0  0  0  0
  -23.7529  -44.1020   -6.3365 C   0  0  0  0  0  0  0  0  0  0  0  0
  -22.7029  -44.5821   -7.2098 N   0  0  0  0  0  0  0  0  0  0  0  0
  -21.2827  -44.4456   -7.1662 C   0  0  0  0  0  0  0  0  0  0  0  0
  -20.6846  -45.7006   -7.4502 C   0  0  0  0  0  0  0  0  0  0  0  0
  -19.3361  -45.9169   -7.4847 C   0  0  0  0  0  0  0  0  0  0  0  0
  -18.7406  -47.2465   -7.7864 C   0  0  0  0  0  0  0  0  0  0  0  0
  -17.7826  -47.5800   -6.8252 O   0  0  0  0  0  0  0  0  0  0  0  0
  -18.3556  -48.5400   -5.9682 C   0  0  0  0  0  0  0  0  0  0  0  0
  -18.5731  -44.8147   -7.2209 C   0  0  0  0  0  0  0  0  0  0  0  0
  -19.0968  -43.5290   -6.9306 C   0  0  0  0  0  0  0  0  0  0  0  0
  -20.4601  -43.3776   -6.9111 C   0  0  0  0  0  0  0  0  0  0  0  0
  -17.9918  -42.5910   -6.6917 C   0  0  0  0  0  0  0  0  0  0  0  0
  -16.9602  -43.0216   -5.9738 O   0  0  0  0  0  0  0  0  0  0  0  0
  -17.7845  -41.2426   -7.0946 N   0  0  0  0  0  0  0  0  0  0  0  0
  -14.5051  -41.8833  -12.0920 N   0  0  0  0  0  0  0  0  0  0  0  0
  -13.2588  -41.8876  -12.4513 O   0  0  0  0  0  0  0  0  0  0  0  0
  1  2  1  0
  2  3  1  0
  3  4  1  0
  4  5  2  0
  5  6  1  0
  6  7  1  0
  7  8  1  0
  8  9  1  0
  9 10  1  0
 10 11  1  1
 10 12  1  0
 12 13  1  1
 13 14  1  0
 14 15  1  1
 14 16  1  0
 16 17  1  0
 17 18  1  0
 18 19  1  0
 19 20  1  0
 20 21  1  0
 21 22  1  0
 22 23  1  0
 23 24  1  0
 24 25  2  0
 25 26  1  0
 26 27  1  0
 27 28  1  0
 28 29  1  0
 26 30  2  0
 30 31  1  0
 31 32  2  0
 31 33  1  0
 33 34  2  0
 33 35  1  0
  6 36  2  0
 36 37  1  0
 32 24  1  0
 35 12  1  0
 37  4  1  0
M  END
$$$$
