
     RDKit          3D

 37 39  0  0  0  0  0  0  0  0999 V2000
  -10.9993  -37.6308  -12.6208 C   0  0  0  0  0  0  0  0  0  0  0  0
  -12.0796  -37.9847  -13.6447 C   0  0  0  0  0  0  0  0  0  0  0  0
  -13.4023  -37.7158  -12.9889 C   0  0  0  0  0  0  0  0  0  0  0  0
  -13.8938  -38.9394  -12.2832 C   0  0  0  0  0  0  0  0  0  0  0  0
  -13.5519  -39.2032  -10.9793 C   0  0  0  0  0  0  0  0  0  0  0  0
  -14.1668  -40.3869  -10.6546 C   0  0  0  0  0  0  0  0  0  0  0  0
  -14.1449  -41.1438   -9.3766 C   0  0  0  0  0  0  0  0  0  0  0  0
  -14.1958  -40.3042   -8.2318 N   0  0  0  0  0  0  0  0  0  0  0  0
  -15.1825  -40.6157   -7.2446 C   0  0  0  0  0  0  0  0  0  0  0  0
  -16.4013  -39.7808   -7.2349 C   0  0  1  0  0  0  0  0  0  0  0  0
  -16.3316  -38.6141   -7.9752 O   0  0  0  0  0  0  0  0  0  0  0  0
  -17.6858  -40.5590   -7.4206 C   0  0  2  0  0  0  0  0  0  0  0  0
  -18.7739  -39.9251   -8.1417 C   0  0  0  0  0  0  0  0  0  0  0  0
  -19.7520  -39.0103   -7.5653 C   0  0  2  0  0  0  0  0  0  0  0  0
  -19.3672  -37.5227   -7.6156 C   0  0  0  0  0  0  0  0  0  0  0  0
  -20.3538  -39.3693   -6.2390 C   0  0  0  0  0  0  0  0  0  0  0  0
  -21.8196  -38.9807   -6.1266 C   0  0  0  0  0  0  0  0  0  0  0  0
  -22.6930  -39.8371   -6.9911 C   0  0  0  0  0  0  0  0  0  0  0  0
  -23.2947  -41.0213   -6.2297 C   0  0  0  0  0  0  0  0  0  0  0  0
  -24.1637  -41.8403   -7.1139 C   0  0  0  0  0  0  0  0  0  0  0  0
  -23.7646  -43.2493   -7.3112 C   0  0  0  0  0  0  0  0  0  0  0  0
  -23.6222  -43.7137   -8.7137 C   0  0  0  0  0  0  0  0  0  0  0  0
  -22.2929  -44.2172   -8.9878 N   0  0  0  0  0  0  0  0  0  0  0  0
  -21.0805  -44.1818   -8.2352 C   0  0  0  0  0  0  0  0  0  0  0  0
  -20.4623  -45.4579   -8.2864 C   0  0  0  0  0  0  0  0  0  0  0  0
  -19.2846  -45.7646   -7.6657 C   0  0  0  0  0  0  0  0  0  0  0  0
  -18.6622  -47.1139   -7.7395 C   0  0  0  0  0  0  0  0  0  0  0  0
  -18.7894  -47.7761   -6.5155 O   0  0  0  0  0  0  0  0  0  0  0  0
  -19.7713  -48.7741   -6.6713 C   0  0  0  0  0  0  0  0  0  0  0  0
  -18.7192  -44.7336   -6.9700 C   0  0  0  0  0  0  0  0  0  0  0  0
  -19.2752  -43.4324   -6.8740 C   0  0  0  0  0  0  0  0  0  0  0  0
  -20.4604  -43.1885   -7.5204 C   0  0  0  0  0  0  0  0  0  0  0  0
  -18.4067  -42.5871   -6.0438 C   0  0  0  0  0  0  0  0  0  0  0  0
  -17.8860  -43.1261   -4.9467 O   0  0  0  0  0  0  0  0  0  0  0  0
  -17.9816  -41.2366   -6.1800 N   0  0  0  0  0  0  0  0  0  0  0  0
  -14.8293  -40.7655  -11.7487 N   0  0  0  0  0  0  0  0  0  0  0  0
  -14.6562  -39.8993  -12.6985 O   0  0  0  0  0  0  0  0  0  0  0  0
  1  2  1  0
  2  3  1  0
  3  4  1  0
  4  5  2  0
  5  6  1  0
  6  7  1  0
  7  8  1  0
  8  9  1  0
  9 10  1  0
 10 11  1  6
 10 12  1  0
 12 13  1  1
 13 14  1  0
 14 15  1  1
 14 16  1  0
 16 17  1  0
 17 18  1  0
 18 19  1  0
 19 20  1  0
 20 21  1  0
 21 22  1  0
 22 23  1  0
 23 24  1  0
 24 25  2  0
 25 26  1  0
 26 27  1  0
 27 28  1  0
 28 29  1  0
 26 30  2  0
 30 31  1  0
 31 32  2  0
 31 33  1  0
 33 34  2  0
 33 35  1  0
  6 36  2  0
 36 37  1  0
 32 24  1  0
 35 12  1  0
 37  4  1  0
M  END
$$$$
