
     RDKit          3D

 37 39  0  0  0  0  0  0  0  0999 V2000
  -21.8910  -47.4281   -8.1436 C   0  0  0  0  0  0  0  0  0  0  0  0
  -20.7058  -46.8998   -7.3332 C   0  0  0  0  0  0  0  0  0  0  0  0
  -20.6399  -45.4206   -7.5767 C   0  0  0  0  0  0  0  0  0  0  0  0
  -19.4656  -45.0851   -8.4399 C   0  0  0  0  0  0  0  0  0  0  0  0
  -18.5609  -44.1169   -8.0781 C   0  0  0  0  0  0  0  0  0  0  0  0
  -17.6273  -44.0710   -9.0836 C   0  0  0  0  0  0  0  0  0  0  0  0
  -16.4242  -43.2100   -9.2174 C   0  0  0  0  0  0  0  0  0  0  0  0
  -15.7663  -42.9769   -7.9800 N   0  0  0  0  0  0  0  0  0  0  0  0
  -16.4455  -42.1490   -7.0322 C   0  0  0  0  0  0  0  0  0  0  0  0
  -17.5352  -41.2977   -7.5523 C   0  0  1  0  0  0  0  0  0  0  0  0
  -18.4214  -40.8173   -6.6048 O   0  0  0  0  0  0  0  0  0  0  0  0
  -17.0849  -40.2647   -8.5625 C   0  0  2  0  0  0  0  0  0  0  0  0
  -16.9937  -38.8810   -8.1348 C   0  0  0  0  0  0  0  0  0  0  0  0
  -18.1008  -37.9334   -8.0923 C   0  0  2  0  0  0  0  0  0  0  0  0
  -18.8739  -37.8878   -6.7642 C   0  0  0  0  0  0  0  0  0  0  0  0
  -19.0358  -37.8918   -9.2646 C   0  0  0  0  0  0  0  0  0  0  0  0
  -19.5208  -36.4876   -9.5887 C   0  0  0  0  0  0  0  0  0  0  0  0
  -18.4289  -35.6373  -10.1619 C   0  0  0  0  0  0  0  0  0  0  0  0
  -18.4310  -35.6301  -11.6930 C   0  0  0  0  0  0  0  0  0  0  0  0
  -17.3443  -34.7681  -12.2256 C   0  0  0  0  0  0  0  0  0  0  0  0
  -16.3256  -35.4324  -13.0650 C   0  0  0  0  0  0  0  0  0  0  0  0
  -14.9072  -35.2411  -12.6718 C   0  0  0  0  0  0  0  0  0  0  0  0
  -14.2411  -36.4993  -12.4094 N   0  0  0  0  0  0  0  0  0  0  0  0
  -14.7294  -37.8349  -12.2853 C   0  0  0  0  0  0  0  0  0  0  0  0
  -13.8802  -38.7112  -13.0092 C   0  0  0  0  0  0  0  0  0  0  0  0
  -14.0685  -40.0613  -13.0984 C   0  0  0  0  0  0  0  0  0  0  0  0
  -13.1582  -40.9531  -13.8662 C   0  0  0  0  0  0  0  0  0  0  0  0
  -13.1066  -40.5589  -15.2058 O   0  0  0  0  0  0  0  0  0  0  0  0
  -12.7960  -41.6985  -15.9734 C   0  0  0  0  0  0  0  0  0  0  0  0
  -15.1603  -40.5322  -12.4255 C   0  0  0  0  0  0  0  0  0  0  0  0
  -16.0531  -39.7204  -11.6802 C   0  0  0  0  0  0  0  0  0  0  0  0
  -15.8087  -38.3715  -11.6299 C   0  0  0  0  0  0  0  0  0  0  0  0
  -17.1114  -40.5583  -11.1005 C   0  0  0  0  0  0  0  0  0  0  0  0
  -17.6271  -41.5170  -11.8621 O   0  0  0  0  0  0  0  0  0  0  0  0
  -17.7313  -40.5577   -9.8202 N   0  0  0  0  0  0  0  0  0  0  0  0
  -18.0062  -44.9880   -9.9750 N   0  0  0  0  0  0  0  0  0  0  0  0
  -19.0923  -45.5756   -9.5780 O   0  0  0  0  0  0  0  0  0  0  0  0
  1  2  1  0
  2  3  1  0
  3  4  1  0
  4  5  2  0
  5  6  1  0
  6  7  1  0
  7  8  1  0
  8  9  1  0
  9 10  1  0
 10 11  1  1
 10 12  1  0
 12 13  1  1
 13 14  1  0
 14 15  1  1
 14 16  1  0
 16 17  1  0
 17 18  1  0
 18 19  1  0
 19 20  1  0
 20 21  1  0
 21 22  1  0
 22 23  1  0
 23 24  1  0
 24 25  2  0
 25 26  1  0
 26 27  1  0
 27 28  1  0
 28 29  1  0
 26 30  2  0
 30 31  1  0
 31 32  2  0
 31 33  1  0
 33 34  2  0
 33 35  1  0
  6 36  2  0
 36 37  1  0
 32 24  1  0
 35 12  1  0
 37  4  1  0
M  END
$$$$
