
     RDKit          3D

 37 39  0  0  0  0  0  0  0  0999 V2000
  -11.3444  -39.5720  -15.4729 C   0  0  0  0  0  0  0  0  0  0  0  0
  -12.3050  -40.6343  -14.9350 C   0  0  0  0  0  0  0  0  0  0  0  0
  -13.4893  -39.9029  -14.3743 C   0  0  0  0  0  0  0  0  0  0  0  0
  -13.4753  -39.9542  -12.8797 C   0  0  0  0  0  0  0  0  0  0  0  0
  -13.9185  -38.8991  -12.1201 C   0  0  0  0  0  0  0  0  0  0  0  0
  -13.7663  -39.2803  -10.8100 C   0  0  0  0  0  0  0  0  0  0  0  0
  -14.0843  -38.5341   -9.5657 C   0  0  0  0  0  0  0  0  0  0  0  0
  -15.4737  -38.2844   -9.4063 N   0  0  0  0  0  0  0  0  0  0  0  0
  -15.8851  -37.6773   -8.1786 C   0  0  0  0  0  0  0  0  0  0  0  0
  -16.4349  -38.5761   -7.1429 C   0  0  1  0  0  0  0  0  0  0  0  0
  -16.7396  -37.9774   -5.9335 O   0  0  0  0  0  0  0  0  0  0  0  0
  -17.4964  -39.5281   -7.6501 C   0  0  2  0  0  0  0  0  0  0  0  0
  -18.8447  -39.0215   -7.8265 C   0  0  0  0  0  0  0  0  0  0  0  0
  -19.8529  -38.9150   -6.7788 C   0  0  2  0  0  0  0  0  0  0  0  0
  -19.8670  -37.5802   -6.0161 C   0  0  0  0  0  0  0  0  0  0  0  0
  -20.0190  -40.0753   -5.8426 C   0  0  0  0  0  0  0  0  0  0  0  0
  -21.4663  -40.3133   -5.4418 C   0  0  0  0  0  0  0  0  0  0  0  0
  -22.2817  -40.8449   -6.5804 C   0  0  0  0  0  0  0  0  0  0  0  0
  -22.3786  -42.3729   -6.5717 C   0  0  0  0  0  0  0  0  0  0  0  0
  -23.2035  -42.8633   -7.7060 C   0  0  0  0  0  0  0  0  0  0  0  0
  -22.5296  -43.7481   -8.6788 C   0  0  0  0  0  0  0  0  0  0  0  0
  -22.6122  -43.3560  -10.1080 C   0  0  0  0  0  0  0  0  0  0  0  0
  -21.3031  -43.1726  -10.6982 N   0  0  0  0  0  0  0  0  0  0  0  0
  -19.9943  -43.1224  -10.1307 C   0  0  0  0  0  0  0  0  0  0  0  0
  -19.1125  -43.9029  -10.9222 C   0  0  0  0  0  0  0  0  0  0  0  0
  -17.7836  -44.0689  -10.6523 C   0  0  0  0  0  0  0  0  0  0  0  0
  -16.8853  -44.8946  -11.5036 C   0  0  0  0  0  0  0  0  0  0  0  0
  -15.5996  -44.9358  -10.9574 O   0  0  0  0  0  0  0  0  0  0  0  0
  -14.6968  -44.5383  -11.9630 C   0  0  0  0  0  0  0  0  0  0  0  0
  -17.3405  -43.4156   -9.5372 C   0  0  0  0  0  0  0  0  0  0  0  0
  -18.1593  -42.6172   -8.6984 C   0  0  0  0  0  0  0  0  0  0  0  0
  -19.4859  -42.4906   -9.0241 C   0  0  0  0  0  0  0  0  0  0  0  0
  -17.3540  -42.0786   -7.5942 C   0  0  0  0  0  0  0  0  0  0  0  0
  -16.4741  -42.8905   -7.0181 O   0  0  0  0  0  0  0  0  0  0  0  0
  -17.3167  -40.7955   -6.9814 N   0  0  0  0  0  0  0  0  0  0  0  0
  -13.2536  -40.5112  -10.8459 N   0  0  0  0  0  0  0  0  0  0  0  0
  -13.0889  -40.8915  -12.0750 O   0  0  0  0  0  0  0  0  0  0  0  0
  1  2  1  0
  2  3  1  0
  3  4  1  0
  4  5  2  0
  5  6  1  0
  6  7  1  0
  7  8  1  0
  8  9  1  0
  9 10  1  0
 10 11  1  1
 10 12  1  0
 12 13  1  1
 13 14  1  0
 14 15  1  1
 14 16  1  0
 16 17  1  0
 17 18  1  0
 18 19  1  0
 19 20  1  0
 20 21  1  0
 21 22  1  0
 22 23  1  0
 23 24  1  0
 24 25  2  0
 25 26  1  0
 26 27  1  0
 27 28  1  0
 28 29  1  0
 26 30  2  0
 30 31  1  0
 31 32  2  0
 31 33  1  0
 33 34  2  0
 33 35  1  0
  6 36  2  0
 36 37  1  0
 32 24  1  0
 35 12  1  0
 37  4  1  0
M  END
$$$$
