
     RDKit          3D

 37 39  0  0  0  0  0  0  0  0999 V2000
  -24.4174  -41.9318   -4.3092 C   0  0  0  0  0  0  0  0  0  0  0  0
  -23.0461  -41.4096   -3.8763 C   0  0  0  0  0  0  0  0  0  0  0  0
  -22.0231  -42.3231   -4.4852 C   0  0  0  0  0  0  0  0  0  0  0  0
  -20.6418  -41.8451   -4.1689 C   0  0  0  0  0  0  0  0  0  0  0  0
  -19.5353  -42.4001   -4.7642 C   0  0  0  0  0  0  0  0  0  0  0  0
  -18.4503  -41.7329   -4.2521 C   0  0  0  0  0  0  0  0  0  0  0  0
  -17.0049  -41.9168   -4.5414 C   0  0  0  0  0  0  0  0  0  0  0  0
  -16.4322  -40.8175   -5.2356 N   0  0  0  0  0  0  0  0  0  0  0  0
  -16.5661  -40.8109   -6.6593 C   0  0  0  0  0  0  0  0  0  0  0  0
  -16.2714  -39.5385   -7.3498 C   0  0  1  0  0  0  0  0  0  0  0  0
  -14.9313  -39.2095   -7.4489 O   0  0  0  0  0  0  0  0  0  0  0  0
  -17.0587  -39.3299   -8.6253 C   0  0  2  0  0  0  0  0  0  0  0  0
  -16.3399  -39.3472   -9.8858 C   0  0  0  0  0  0  0  0  0  0  0  0
  -15.6387  -38.2134  -10.4761 C   0  0  2  0  0  0  0  0  0  0  0  0
  -14.1596  -38.0787  -10.0792 C   0  0  0  0  0  0  0  0  0  0  0  0
  -16.3255  -36.8798  -10.4663 C   0  0  0  0  0  0  0  0  0  0  0  0
  -16.0574  -36.0638  -11.7210 C   0  0  0  0  0  0  0  0  0  0  0  0
  -16.7418  -36.6424  -12.9212 C   0  0  0  0  0  0  0  0  0  0  0  0
  -18.1013  -35.9929  -13.1936 C   0  0  0  0  0  0  0  0  0  0  0  0
  -18.7445  -36.5821  -14.3964 C   0  0  0  0  0  0  0  0  0  0  0  0
  -20.0458  -37.2507  -14.1890 C   0  0  0  0  0  0  0  0  0  0  0  0
  -20.1680  -38.6441  -14.6856 C   0  0  0  0  0  0  0  0  0  0  0  0
  -20.5186  -39.5694  -13.6289 N   0  0  0  0  0  0  0  0  0  0  0  0
  -20.5870  -39.4234  -12.2106 C   0  0  0  0  0  0  0  0  0  0  0  0
  -21.7800  -40.0277  -11.7365 C   0  0  0  0  0  0  0  0  0  0  0  0
  -22.1528  -40.0610  -10.4226 C   0  0  0  0  0  0  0  0  0  0  0  0
  -23.4115  -40.7037   -9.9580 C   0  0  0  0  0  0  0  0  0  0  0  0
  -24.3513  -39.7325   -9.6025 O   0  0  0  0  0  0  0  0  0  0  0  0
  -25.5026  -39.9473  -10.3853 C   0  0  0  0  0  0  0  0  0  0  0  0
  -21.2777  -39.4574   -9.5643 C   0  0  0  0  0  0  0  0  0  0  0  0
  -20.0670  -38.8349   -9.9618 C   0  0  0  0  0  0  0  0  0  0  0  0
  -19.7498  -38.8353  -11.2965 C   0  0  0  0  0  0  0  0  0  0  0  0
  -19.3858  -38.2867   -8.7814 C   0  0  0  0  0  0  0  0  0  0  0  0
  -20.1309  -37.6759   -7.8664 O   0  0  0  0  0  0  0  0  0  0  0  0
  -18.0179  -38.2759   -8.3916 N   0  0  0  0  0  0  0  0  0  0  0  0
  -18.9443  -40.8351   -3.3982 N   0  0  0  0  0  0  0  0  0  0  0  0
  -20.2383  -40.9164   -3.3627 O   0  0  0  0  0  0  0  0  0  0  0  0
  1  2  1  0
  2  3  1  0
  3  4  1  0
  4  5  2  0
  5  6  1  0
  6  7  1  0
  7  8  1  0
  8  9  1  0
  9 10  1  0
 10 11  1  6
 10 12  1  0
 12 13  1  6
 13 14  1  0
 14 15  1  1
 14 16  1  0
 16 17  1  0
 17 18  1  0
 18 19  1  0
 19 20  1  0
 20 21  1  0
 21 22  1  0
 22 23  1  0
 23 24  1  0
 24 25  2  0
 25 26  1  0
 26 27  1  0
 27 28  1  0
 28 29  1  0
 26 30  2  0
 30 31  1  0
 31 32  2  0
 31 33  1  0
 33 34  2  0
 33 35  1  0
  6 36  2  0
 36 37  1  0
 32 24  1  0
 35 12  1  0
 37  4  1  0
M  END
$$$$
