
     RDKit          3D

 37 39  0  0  0  0  0  0  0  0999 V2000
  -11.6106  -44.7050  -12.4628 C   0  0  0  0  0  0  0  0  0  0  0  0
  -12.4508  -43.6427  -11.7513 C   0  0  0  0  0  0  0  0  0  0  0  0
  -12.2677  -42.3635  -12.5142 C   0  0  0  0  0  0  0  0  0  0  0  0
  -13.0830  -41.2691  -11.9023 C   0  0  0  0  0  0  0  0  0  0  0  0
  -12.6988  -40.6525  -10.7366 C   0  0  0  0  0  0  0  0  0  0  0  0
  -13.6616  -39.7119  -10.4662 C   0  0  0  0  0  0  0  0  0  0  0  0
  -13.7569  -38.7559   -9.3333 C   0  0  0  0  0  0  0  0  0  0  0  0
  -14.5310  -39.2520   -8.2502 N   0  0  0  0  0  0  0  0  0  0  0  0
  -15.8149  -39.7954   -8.5683 C   0  0  0  0  0  0  0  0  0  0  0  0
  -16.9602  -39.3066   -7.7734 C   0  0  1  0  0  0  0  0  0  0  0  0
  -17.3409  -37.9989   -8.0167 O   0  0  0  0  0  0  0  0  0  0  0  0
  -18.1128  -40.2831   -7.6837 C   0  0  2  0  0  0  0  0  0  0  0  0
  -19.4056  -39.8676   -8.1956 C   0  0  0  0  0  0  0  0  0  0  0  0
  -20.3931  -39.0828   -7.4647 C   0  0  2  0  0  0  0  0  0  0  0  0
  -20.2718  -37.5591   -7.6297 C   0  0  0  0  0  0  0  0  0  0  0  0
  -20.6681  -39.4526   -6.0372 C   0  0  0  0  0  0  0  0  0  0  0  0
  -22.1298  -39.2889   -5.6516 C   0  0  0  0  0  0  0  0  0  0  0  0
  -22.9992  -40.3187   -6.3055 C   0  0  0  0  0  0  0  0  0  0  0  0
  -23.2462  -41.5353   -5.4093 C   0  0  0  0  0  0  0  0  0  0  0  0
  -24.1211  -42.5285   -6.0845 C   0  0  0  0  0  0  0  0  0  0  0  0
  -23.5425  -43.8680   -6.3173 C   0  0  0  0  0  0  0  0  0  0  0  0
  -23.5932  -44.3856   -7.7075 C   0  0  0  0  0  0  0  0  0  0  0  0
  -22.2753  -44.6931   -8.2217 N   0  0  0  0  0  0  0  0  0  0  0  0
  -20.9651  -44.4274   -7.7215 C   0  0  0  0  0  0  0  0  0  0  0  0
  -20.1685  -45.5936   -7.8575 C   0  0  0  0  0  0  0  0  0  0  0  0
  -18.8611  -45.6784   -7.4703 C   0  0  0  0  0  0  0  0  0  0  0  0
  -18.0528  -46.9175   -7.6273 C   0  0  0  0  0  0  0  0  0  0  0  0
  -17.8258  -47.5113   -6.3829 O   0  0  0  0  0  0  0  0  0  0  0  0
  -18.6238  -48.6700   -6.3121 C   0  0  0  0  0  0  0  0  0  0  0  0
  -18.3502  -44.5338   -6.9266 C   0  0  0  0  0  0  0  0  0  0  0  0
  -19.0822  -43.3306   -6.7595 C   0  0  0  0  0  0  0  0  0  0  0  0
  -20.3914  -43.3104   -7.1686 C   0  0  0  0  0  0  0  0  0  0  0  0
  -18.2222  -42.3147   -6.1380 C   0  0  0  0  0  0  0  0  0  0  0  0
  -17.4237  -42.7022   -5.1493 O   0  0  0  0  0  0  0  0  0  0  0  0
  -18.0556  -40.9249   -6.3912 N   0  0  0  0  0  0  0  0  0  0  0  0
  -14.5519  -39.8071  -11.4548 N   0  0  0  0  0  0  0  0  0  0  0  0
  -14.1937  -40.7308  -12.2919 O   0  0  0  0  0  0  0  0  0  0  0  0
  1  2  1  0
  2  3  1  0
  3  4  1  0
  4  5  2  0
  5  6  1  0
  6  7  1  0
  7  8  1  0
  8  9  1  0
  9 10  1  0
 10 11  1  6
 10 12  1  0
 12 13  1  1
 13 14  1  0
 14 15  1  1
 14 16  1  0
 16 17  1  0
 17 18  1  0
 18 19  1  0
 19 20  1  0
 20 21  1  0
 21 22  1  0
 22 23  1  0
 23 24  1  0
 24 25  2  0
 25 26  1  0
 26 27  1  0
 27 28  1  0
 28 29  1  0
 26 30  2  0
 30 31  1  0
 31 32  2  0
 31 33  1  0
 33 34  2  0
 33 35  1  0
  6 36  2  0
 36 37  1  0
 32 24  1  0
 35 12  1  0
 37  4  1  0
M  END
$$$$
