
     RDKit          3D

 37 39  0  0  0  0  0  0  0  0999 V2000
  -13.6024  -40.6579  -15.9984 C   0  0  0  0  0  0  0  0  0  0  0  0
  -13.6930  -40.5421  -14.4756 C   0  0  0  0  0  0  0  0  0  0  0  0
  -13.2721  -39.1459  -14.1218 C   0  0  0  0  0  0  0  0  0  0  0  0
  -13.4196  -38.9124  -12.6519 C   0  0  0  0  0  0  0  0  0  0  0  0
  -14.2027  -37.8966  -12.1606 C   0  0  0  0  0  0  0  0  0  0  0  0
  -14.1119  -37.9710  -10.7927 C   0  0  0  0  0  0  0  0  0  0  0  0
  -14.7524  -37.1223   -9.7556 C   0  0  0  0  0  0  0  0  0  0  0  0
  -15.8507  -37.7579   -9.1168 N   0  0  0  0  0  0  0  0  0  0  0  0
  -15.9235  -37.6469   -7.6929 C   0  0  0  0  0  0  0  0  0  0  0  0
  -16.5419  -38.7759   -6.9680 C   0  0  1  0  0  0  0  0  0  0  0  0
  -16.5186  -38.6836   -5.5877 O   0  0  0  0  0  0  0  0  0  0  0  0
  -17.8698  -39.2245   -7.5386 C   0  0  2  0  0  0  0  0  0  0  0  0
  -19.0767  -38.9108   -6.7965 C   0  0  0  0  0  0  0  0  0  0  0  0
  -19.6175  -39.6918   -5.6905 C   0  0  2  0  0  0  0  0  0  0  0  0
  -19.1179  -39.2847   -4.2948 C   0  0  0  0  0  0  0  0  0  0  0  0
  -19.6573  -41.1842   -5.8373 C   0  0  0  0  0  0  0  0  0  0  0  0
  -20.8910  -41.8108   -5.2069 C   0  0  0  0  0  0  0  0  0  0  0  0
  -22.1357  -41.4918   -5.9768 C   0  0  0  0  0  0  0  0  0  0  0  0
  -22.5035  -42.5874   -6.9810 C   0  0  0  0  0  0  0  0  0  0  0  0
  -23.7480  -42.2435   -7.7164 C   0  0  0  0  0  0  0  0  0  0  0  0
  -23.6317  -42.1050   -9.1829 C   0  0  0  0  0  0  0  0  0  0  0  0
  -24.1342  -40.8409   -9.7769 C   0  0  0  0  0  0  0  0  0  0  0  0
  -23.1037  -40.1377  -10.5113 N   0  0  0  0  0  0  0  0  0  0  0  0
  -21.6939  -40.3366  -10.6130 C   0  0  0  0  0  0  0  0  0  0  0  0
  -21.3041  -40.2254  -11.9728 C   0  0  0  0  0  0  0  0  0  0  0  0
  -20.0196  -40.3665  -12.4160 C   0  0  0  0  0  0  0  0  0  0  0  0
  -19.6438  -40.2434  -13.8503 C   0  0  0  0  0  0  0  0  0  0  0  0
  -19.3107  -38.9207  -14.1542 O   0  0  0  0  0  0  0  0  0  0  0  0
  -17.9576  -38.7327  -13.8106 C   0  0  0  0  0  0  0  0  0  0  0  0
  -19.1026  -40.6295  -11.4379 C   0  0  0  0  0  0  0  0  0  0  0  0
  -19.4148  -40.7532  -10.0600 C   0  0  0  0  0  0  0  0  0  0  0  0
  -20.7239  -40.6006   -9.6794 C   0  0  0  0  0  0  0  0  0  0  0  0
  -18.1900  -41.0446   -9.3031 C   0  0  0  0  0  0  0  0  0  0  0  0
  -17.3303  -41.9105   -9.8287 O   0  0  0  0  0  0  0  0  0  0  0  0
  -17.7051  -40.5629   -8.0556 N   0  0  0  0  0  0  0  0  0  0  0  0
  -13.3014  -38.9990  -10.5367 N   0  0  0  0  0  0  0  0  0  0  0  0
  -12.9032  -39.5416  -11.6455 O   0  0  0  0  0  0  0  0  0  0  0  0
  1  2  1  0
  2  3  1  0
  3  4  1  0
  4  5  2  0
  5  6  1  0
  6  7  1  0
  7  8  1  0
  8  9  1  0
  9 10  1  0
 10 11  1  1
 10 12  1  0
 12 13  1  1
 13 14  1  0
 14 15  1  1
 14 16  1  0
 16 17  1  0
 17 18  1  0
 18 19  1  0
 19 20  1  0
 20 21  1  0
 21 22  1  0
 22 23  1  0
 23 24  1  0
 24 25  2  0
 25 26  1  0
 26 27  1  0
 27 28  1  0
 28 29  1  0
 26 30  2  0
 30 31  1  0
 31 32  2  0
 31 33  1  0
 33 34  2  0
 33 35  1  0
  6 36  2  0
 36 37  1  0
 32 24  1  0
 35 12  1  0
 37  4  1  0
M  END
$$$$
