
     RDKit          3D

 37 39  0  0  0  0  0  0  0  0999 V2000
  -11.3979  -41.7305  -15.7199 C   0  0  0  0  0  0  0  0  0  0  0  0
  -12.3248  -41.0394  -14.7180 C   0  0  0  0  0  0  0  0  0  0  0  0
  -11.5689  -40.9412  -13.4254 C   0  0  0  0  0  0  0  0  0  0  0  0
  -12.4514  -40.4051  -12.3435 C   0  0  0  0  0  0  0  0  0  0  0  0
  -12.3429  -40.8409  -11.0455 C   0  0  0  0  0  0  0  0  0  0  0  0
  -13.2896  -40.1507  -10.3298 C   0  0  0  0  0  0  0  0  0  0  0  0
  -13.6170  -40.2207   -8.8826 C   0  0  0  0  0  0  0  0  0  0  0  0
  -14.6280  -39.3008   -8.4957 N   0  0  0  0  0  0  0  0  0  0  0  0
  -15.9484  -39.5465   -8.9868 C   0  0  0  0  0  0  0  0  0  0  0  0
  -17.0652  -39.2732   -8.0591 C   0  0  1  0  0  0  0  0  0  0  0  0
  -17.4911  -37.9578   -8.0087 O   0  0  0  0  0  0  0  0  0  0  0  0
  -18.1864  -40.2875   -8.1247 C   0  0  2  0  0  0  0  0  0  0  0  0
  -19.5485  -39.7987   -8.2321 C   0  0  0  0  0  0  0  0  0  0  0  0
  -20.3866  -39.3758   -7.1166 C   0  0  2  0  0  0  0  0  0  0  0  0
  -20.2917  -37.8848   -6.7540 C   0  0  0  0  0  0  0  0  0  0  0  0
  -20.4026  -40.2325   -5.8853 C   0  0  0  0  0  0  0  0  0  0  0  0
  -21.7711  -40.3000   -5.2259 C   0  0  0  0  0  0  0  0  0  0  0  0
  -22.7470  -41.0899   -6.0429 C   0  0  0  0  0  0  0  0  0  0  0  0
  -22.8335  -42.5539   -5.6030 C   0  0  0  0  0  0  0  0  0  0  0  0
  -23.8186  -43.3026   -6.4258 C   0  0  0  0  0  0  0  0  0  0  0  0
  -23.2955  -44.4417   -7.2083 C   0  0  0  0  0  0  0  0  0  0  0  0
  -23.5960  -44.4484   -8.6619 C   0  0  0  0  0  0  0  0  0  0  0  0
  -22.3927  -44.4795   -9.4659 N   0  0  0  0  0  0  0  0  0  0  0  0
  -21.0132  -44.3254   -9.1331 C   0  0  0  0  0  0  0  0  0  0  0  0
  -20.2576  -45.3227   -9.8024 C   0  0  0  0  0  0  0  0  0  0  0  0
  -18.9023  -45.4578   -9.6963 C   0  0  0  0  0  0  0  0  0  0  0  0
  -18.1393  -46.5153  -10.4125 C   0  0  0  0  0  0  0  0  0  0  0  0
  -18.0664  -46.2231  -11.7771 O   0  0  0  0  0  0  0  0  0  0  0  0
  -16.7076  -46.2555  -12.1474 C   0  0  0  0  0  0  0  0  0  0  0  0
  -18.2985  -44.5437   -8.8800 C   0  0  0  0  0  0  0  0  0  0  0  0
  -18.9847  -43.5187   -8.1800 C   0  0  0  0  0  0  0  0  0  0  0  0
  -20.3460  -43.4366   -8.3286 C   0  0  0  0  0  0  0  0  0  0  0  0
  -18.0239  -42.7311   -7.3961 C   0  0  0  0  0  0  0  0  0  0  0  0
  -17.0626  -43.3883   -6.7564 O   0  0  0  0  0  0  0  0  0  0  0  0
  -17.9008  -41.3322   -7.1695 N   0  0  0  0  0  0  0  0  0  0  0  0
  -13.9032  -39.3565  -11.2084 N   0  0  0  0  0  0  0  0  0  0  0  0
  -13.3953  -39.5207  -12.3905 O   0  0  0  0  0  0  0  0  0  0  0  0
  1  2  1  0
  2  3  1  0
  3  4  1  0
  4  5  2  0
  5  6  1  0
  6  7  1  0
  7  8  1  0
  8  9  1  0
  9 10  1  0
 10 11  1  6
 10 12  1  0
 12 13  1  1
 13 14  1  0
 14 15  1  1
 14 16  1  0
 16 17  1  0
 17 18  1  0
 18 19  1  0
 19 20  1  0
 20 21  1  0
 21 22  1  0
 22 23  1  0
 23 24  1  0
 24 25  2  0
 25 26  1  0
 26 27  1  0
 27 28  1  0
 28 29  1  0
 26 30  2  0
 30 31  1  0
 31 32  2  0
 31 33  1  0
 33 34  2  0
 33 35  1  0
  6 36  2  0
 36 37  1  0
 32 24  1  0
 35 12  1  0
 37  4  1  0
M  END
$$$$
