
     RDKit          3D

 37 39  0  0  0  0  0  0  0  0999 V2000
  -13.3362  -34.1455  -12.1544 C   0  0  0  0  0  0  0  0  0  0  0  0
  -13.9635  -34.7466  -13.4137 C   0  0  0  0  0  0  0  0  0  0  0  0
  -15.0489  -35.6759  -12.9554 C   0  0  0  0  0  0  0  0  0  0  0  0
  -14.4632  -36.9616  -12.4648 C   0  0  0  0  0  0  0  0  0  0  0  0
  -15.1361  -37.7655  -11.5773 C   0  0  0  0  0  0  0  0  0  0  0  0
  -14.3210  -38.8457  -11.3458 C   0  0  0  0  0  0  0  0  0  0  0  0
  -14.5423  -40.0265  -10.4723 C   0  0  0  0  0  0  0  0  0  0  0  0
  -15.8267  -40.0367   -9.8653 N   0  0  0  0  0  0  0  0  0  0  0  0
  -16.2963  -38.7990   -9.3243 C   0  0  0  0  0  0  0  0  0  0  0  0
  -17.0505  -38.8704   -8.0560 C   0  0  1  0  0  0  0  0  0  0  0  0
  -17.5558  -37.6684   -7.5934 O   0  0  0  0  0  0  0  0  0  0  0  0
  -18.0259  -40.0250   -7.9803 C   0  0  2  0  0  0  0  0  0  0  0  0
  -19.4447  -39.7230   -7.9385 C   0  0  0  0  0  0  0  0  0  0  0  0
  -20.2029  -39.3828   -6.7406 C   0  0  2  0  0  0  0  0  0  0  0  0
  -20.2690  -37.8827   -6.4107 C   0  0  0  0  0  0  0  0  0  0  0  0
  -19.9673  -40.1992   -5.5043 C   0  0  0  0  0  0  0  0  0  0  0  0
  -21.2327  -40.4277   -4.6927 C   0  0  0  0  0  0  0  0  0  0  0  0
  -22.1785  -41.3619   -5.3830 C   0  0  0  0  0  0  0  0  0  0  0  0
  -22.0187  -42.8116   -4.9169 C   0  0  0  0  0  0  0  0  0  0  0  0
  -22.9797  -43.7063   -5.6124 C   0  0  0  0  0  0  0  0  0  0  0  0
  -22.3988  -44.7883   -6.4343 C   0  0  0  0  0  0  0  0  0  0  0  0
  -22.8552  -44.8753   -7.8440 C   0  0  0  0  0  0  0  0  0  0  0  0
  -21.7552  -44.7704   -8.7793 N   0  0  0  0  0  0  0  0  0  0  0  0
  -20.3804  -44.4267   -8.6075 C   0  0  0  0  0  0  0  0  0  0  0  0
  -19.5771  -45.3343   -9.3452 C   0  0  0  0  0  0  0  0  0  0  0  0
  -18.2126  -45.2868   -9.3923 C   0  0  0  0  0  0  0  0  0  0  0  0
  -17.3990  -46.2544  -10.1766 C   0  0  0  0  0  0  0  0  0  0  0  0
  -16.7982  -45.6154  -11.2646 O   0  0  0  0  0  0  0  0  0  0  0  0
  -16.0157  -46.5717  -11.9410 C   0  0  0  0  0  0  0  0  0  0  0  0
  -17.6499  -44.2785   -8.6620 C   0  0  0  0  0  0  0  0  0  0  0  0
  -18.3853  -43.3335   -7.9020 C   0  0  0  0  0  0  0  0  0  0  0  0
  -19.7533  -43.4355   -7.8959 C   0  0  0  0  0  0  0  0  0  0  0  0
  -17.4577  -42.4044   -7.2429 C   0  0  0  0  0  0  0  0  0  0  0  0
  -16.3520  -42.9110   -6.7081 O   0  0  0  0  0  0  0  0  0  0  0  0
  -17.4987  -40.9957   -7.0501 N   0  0  0  0  0  0  0  0  0  0  0  0
  -13.2291  -38.6434  -12.0848 N   0  0  0  0  0  0  0  0  0  0  0  0
  -13.3314  -37.5272  -12.7375 O   0  0  0  0  0  0  0  0  0  0  0  0
  1  2  1  0
  2  3  1  0
  3  4  1  0
  4  5  2  0
  5  6  1  0
  6  7  1  0
  7  8  1  0
  8  9  1  0
  9 10  1  0
 10 11  1  6
 10 12  1  0
 12 13  1  1
 13 14  1  0
 14 15  1  1
 14 16  1  0
 16 17  1  0
 17 18  1  0
 18 19  1  0
 19 20  1  0
 20 21  1  0
 21 22  1  0
 22 23  1  0
 23 24  1  0
 24 25  2  0
 25 26  1  0
 26 27  1  0
 27 28  1  0
 28 29  1  0
 26 30  2  0
 30 31  1  0
 31 32  2  0
 31 33  1  0
 33 34  2  0
 33 35  1  0
  6 36  2  0
 36 37  1  0
 32 24  1  0
 35 12  1  0
 37  4  1  0
M  END
$$$$
