
     RDKit          3D

 37 38  0  0  0  0  0  0  0  0999 V2000
  -16.6588  -37.7397  -11.1890 C   0  0  0  0  0  0  0  0  0  0  0  0
  -15.4569  -38.5326  -11.5731 C   0  0  2  0  0  0  0  0  0  0  0  0
  -15.4442  -39.8170  -10.9123 N   0  0  0  0  0  0  0  0  0  0  0  0
  -16.1299  -39.8120   -9.6363 C   0  0  0  0  0  0  0  0  0  0  0  0
  -17.3002  -38.9126   -9.5962 C   0  0  1  0  0  0  0  0  0  0  0  0
  -17.3014  -37.8442  -10.4504 O   0  0  0  0  0  0  0  0  0  0  0  0
  -18.6039  -39.7307   -9.6510 C   0  0  2  0  0  0  0  0  0  0  0  0
  -19.4269  -39.5935   -8.4293 C   0  0  0  0  0  0  0  0  0  0  0  0
  -20.8344  -39.1970   -8.7193 C   0  0  2  0  0  0  0  0  0  0  0  0
  -20.9728  -37.8239   -9.3378 C   0  0  0  0  0  0  0  0  0  0  0  0
  -21.7615  -39.2263   -7.5333 C   0  0  0  0  0  0  0  0  0  0  0  0
  -21.1118  -39.1374   -6.2018 C   0  0  0  0  0  0  0  0  0  0  0  0
  -21.0329  -40.4528   -5.4557 C   0  0  0  0  0  0  0  0  0  0  0  0
  -22.1854  -40.6760   -4.5190 C   0  0  0  0  0  0  0  0  0  0  0  0
  -22.9852  -41.8459   -4.9824 C   0  0  0  0  0  0  0  0  0  0  0  0
  -22.6665  -43.1355   -4.3247 C   0  0  0  0  0  0  0  0  0  0  0  0
  -21.3868  -43.7822   -4.7643 C   0  0  0  0  0  0  0  0  0  0  0  0
  -21.4823  -44.3474   -6.1766 C   0  0  0  0  0  0  0  0  0  0  0  0
  -19.8717  -44.8001   -6.7107 S   0  0  0  0  0  6  0  0  0  0  0  0
  -19.9045  -45.9268   -7.7311 O   0  0  0  0  0  0  0  0  0  0  0  0
  -19.0600  -45.3528   -5.5447 O   0  0  0  0  0  0  0  0  0  0  0  0
  -18.9404  -43.4875   -7.4002 C   0  0  0  0  0  0  0  0  0  0  0  0
  -19.2577  -43.1536   -8.8251 C   0  0  1  0  0  0  0  0  0  0  0  0
  -20.6363  -42.6983   -9.1018 C   0  0  0  0  0  0  0  0  0  0  0  0
  -18.1789  -42.2675   -9.3356 C   0  0  0  0  0  0  0  0  0  0  0  0
  -17.0140  -42.7532   -9.0448 O   0  0  0  0  0  0  0  0  0  0  0  0
  -18.2390  -41.0809  -10.0316 N   0  0  0  0  0  0  0  0  0  0  0  0
  -14.2400  -37.8049  -11.1239 C   0  0  0  0  0  0  0  0  0  0  0  0
  -13.1641  -37.5024  -11.9099 C   0  0  0  0  0  0  0  0  0  0  0  0
  -12.2629  -36.8289  -11.1042 C   0  0  0  0  0  0  0  0  0  0  0  0
  -10.9445  -36.3239  -11.5979 C   0  0  0  0  0  0  0  0  0  0  0  0
   -9.8157  -36.8815  -10.7725 C   0  0  0  0  0  0  0  0  0  0  0  0
   -8.4784  -36.4017  -11.2670 C   0  0  0  0  0  0  0  0  0  0  0  0
  -10.0321  -36.5700   -9.3128 C   0  0  0  0  0  0  0  0  0  0  0  0
   -9.8599  -38.3905  -10.9174 C   0  0  0  0  0  0  0  0  0  0  0  0
  -12.7945  -36.7521   -9.9285 O   0  0  0  0  0  0  0  0  0  0  0  0
  -13.9640  -37.3176   -9.8983 N   0  0  0  0  0  0  0  0  0  0  0  0
  2  1  1  1
  2  3  1  0
  3  4  1  0
  4  5  1  0
  5  6  1  6
  5  7  1  0
  7  8  1  1
  8  9  1  0
  9 10  1  1
  9 11  1  0
 11 12  1  0
 12 13  1  0
 13 14  1  0
 14 15  1  0
 15 16  1  0
 16 17  1  0
 17 18  1  0
 18 19  1  0
 19 20  2  0
 19 21  2  0
 19 22  1  0
 22 23  1  0
 23 24  1  1
 23 25  1  0
 25 26  2  0
 25 27  1  0
  2 28  1  0
 28 29  1  0
 29 30  2  0
 30 31  1  0
 31 32  1  0
 32 33  1  0
 32 34  1  0
 32 35  1  0
 30 36  1  0
 36 37  1  0
 27  7  1  0
 37 28  2  0
M  END
$$$$
