
     RDKit          3D

 37 38  0  0  0  0  0  0  0  0999 V2000
  -13.0742  -41.2171  -11.0861 C   0  0  0  0  0  0  0  0  0  0  0  0
  -13.5475  -40.0419  -10.3014 C   0  0  2  0  0  0  0  0  0  0  0  0
  -14.6912  -40.3823   -9.4875 N   0  0  0  0  0  0  0  0  0  0  0  0
  -15.0346  -39.3567   -8.5238 C   0  0  0  0  0  0  0  0  0  0  0  0
  -16.0437  -39.7866   -7.5352 C   0  0  1  0  0  0  0  0  0  0  0  0
  -16.2646  -38.9645   -6.4644 O   0  0  0  0  0  0  0  0  0  0  0  0
  -17.3412  -40.2117   -8.2477 C   0  0  2  0  0  0  0  0  0  0  0  0
  -18.5623  -39.8422   -7.4987 C   0  0  0  0  0  0  0  0  0  0  0  0
  -19.5381  -39.0734   -8.3228 C   0  0  2  0  0  0  0  0  0  0  0  0
  -19.0336  -37.7206   -8.7730 C   0  0  0  0  0  0  0  0  0  0  0  0
  -20.8741  -38.8352   -7.6706 C   0  0  0  0  0  0  0  0  0  0  0  0
  -20.8951  -38.9194   -6.1889 C   0  0  0  0  0  0  0  0  0  0  0  0
  -21.4936  -40.1992   -5.6439 C   0  0  0  0  0  0  0  0  0  0  0  0
  -22.9591  -40.0868   -5.3352 C   0  0  0  0  0  0  0  0  0  0  0  0
  -23.7290  -40.9929   -6.2349 C   0  0  0  0  0  0  0  0  0  0  0  0
  -24.0757  -42.3150   -5.6614 C   0  0  0  0  0  0  0  0  0  0  0  0
  -22.9435  -43.2945   -5.5738 C   0  0  0  0  0  0  0  0  0  0  0  0
  -22.5308  -43.8222   -6.9428 C   0  0  0  0  0  0  0  0  0  0  0  0
  -21.0238  -44.7077   -6.7728 S   0  0  0  0  0  6  0  0  0  0  0  0
  -20.8748  -45.7892   -7.8311 O   0  0  0  0  0  0  0  0  0  0  0  0
  -20.9923  -45.4546   -5.4442 O   0  0  0  0  0  0  0  0  0  0  0  0
  -19.5860  -43.7101   -6.8283 C   0  0  0  0  0  0  0  0  0  0  0  0
  -19.1321  -43.3127   -8.1990 C   0  0  1  0  0  0  0  0  0  0  0  0
  -20.0744  -42.4953   -8.9917 C   0  0  0  0  0  0  0  0  0  0  0  0
  -17.7556  -42.7643   -8.0809 C   0  0  0  0  0  0  0  0  0  0  0  0
  -17.0102  -43.5515   -7.3721 O   0  0  0  0  0  0  0  0  0  0  0  0
  -17.1958  -41.6130   -8.5883 N   0  0  0  0  0  0  0  0  0  0  0  0
  -13.9913  -38.9827  -11.2467 C   0  0  0  0  0  0  0  0  0  0  0  0
  -13.1920  -38.0087  -11.7750 C   0  0  0  0  0  0  0  0  0  0  0  0
  -13.9970  -37.2390  -12.5962 C   0  0  0  0  0  0  0  0  0  0  0  0
  -13.4903  -36.0602  -13.3647 C   0  0  0  0  0  0  0  0  0  0  0  0
  -13.5826  -34.8046  -12.5393 C   0  0  0  0  0  0  0  0  0  0  0  0
  -12.8961  -34.9637  -11.2102 C   0  0  0  0  0  0  0  0  0  0  0  0
  -13.0550  -33.6265  -13.3191 C   0  0  0  0  0  0  0  0  0  0  0  0
  -15.0549  -34.5460  -12.2832 C   0  0  0  0  0  0  0  0  0  0  0  0
  -15.1849  -37.7452  -12.5392 O   0  0  0  0  0  0  0  0  0  0  0  0
  -15.2237  -38.7780  -11.7515 N   0  0  0  0  0  0  0  0  0  0  0  0
  2  1  1  6
  2  3  1  0
  3  4  1  0
  4  5  1  0
  5  6  1  1
  5  7  1  0
  7  8  1  1
  8  9  1  0
  9 10  1  1
  9 11  1  0
 11 12  1  0
 12 13  1  0
 13 14  1  0
 14 15  1  0
 15 16  1  0
 16 17  1  0
 17 18  1  0
 18 19  1  0
 19 20  2  0
 19 21  2  0
 19 22  1  0
 22 23  1  0
 23 24  1  1
 23 25  1  0
 25 26  2  0
 25 27  1  0
  2 28  1  0
 28 29  1  0
 29 30  2  0
 30 31  1  0
 31 32  1  0
 32 33  1  0
 32 34  1  0
 32 35  1  0
 30 36  1  0
 36 37  1  0
 27  7  1  0
 37 28  2  0
M  END
$$$$
