
     RDKit          3D

 37 38  0  0  0  0  0  0  0  0999 V2000
  -12.4862  -36.9340   -8.9363 C   0  0  0  0  0  0  0  0  0  0  0  0
  -13.9116  -37.2736   -9.2078 C   0  0  2  0  0  0  0  0  0  0  0  0
  -14.3765  -38.3214   -8.3288 N   0  0  0  0  0  0  0  0  0  0  0  0
  -15.6985  -38.0736   -7.7907 C   0  0  0  0  0  0  0  0  0  0  0  0
  -16.3097  -39.2566   -7.1526 C   0  0  1  0  0  0  0  0  0  0  0  0
  -16.7005  -39.1352   -5.8474 O   0  0  0  0  0  0  0  0  0  0  0  0
  -17.4071  -39.8446   -8.0592 C   0  0  2  0  0  0  0  0  0  0  0  0
  -18.7628  -39.7301   -7.4782 C   0  0  0  0  0  0  0  0  0  0  0  0
  -19.7373  -39.0827   -8.4021 C   0  0  2  0  0  0  0  0  0  0  0  0
  -19.4180  -37.6395   -8.7218 C   0  0  0  0  0  0  0  0  0  0  0  0
  -21.1695  -39.1104   -7.9383 C   0  0  0  0  0  0  0  0  0  0  0  0
  -21.3738  -39.2903   -6.4793 C   0  0  0  0  0  0  0  0  0  0  0  0
  -21.8101  -40.6833   -6.0763 C   0  0  0  0  0  0  0  0  0  0  0  0
  -23.3009  -40.8345   -5.9757 C   0  0  0  0  0  0  0  0  0  0  0  0
  -23.7755  -41.7967   -7.0112 C   0  0  0  0  0  0  0  0  0  0  0  0
  -23.9625  -43.1915   -6.5458 C   0  0  0  0  0  0  0  0  0  0  0  0
  -22.7004  -43.9739   -6.3363 C   0  0  0  0  0  0  0  0  0  0  0  0
  -22.0232  -44.3385   -7.6521 C   0  0  0  0  0  0  0  0  0  0  0  0
  -20.4226  -44.9717   -7.3039 S   0  0  0  0  0  6  0  0  0  0  0  0
  -19.9489  -45.9446   -8.3720 O   0  0  0  0  0  0  0  0  0  0  0  0
  -20.4410  -45.7855   -6.0150 O   0  0  0  0  0  0  0  0  0  0  0  0
  -19.1842  -43.7486   -7.1142 C   0  0  0  0  0  0  0  0  0  0  0  0
  -18.6262  -43.1958   -8.3892 C   0  0  1  0  0  0  0  0  0  0  0  0
  -19.5806  -42.4970   -9.2754 C   0  0  0  0  0  0  0  0  0  0  0  0
  -17.3934  -42.4360   -8.0544 C   0  0  0  0  0  0  0  0  0  0  0  0
  -16.6252  -43.1323   -7.2781 O   0  0  0  0  0  0  0  0  0  0  0  0
  -16.9778  -41.1782   -8.4307 N   0  0  0  0  0  0  0  0  0  0  0  0
  -14.0231  -37.7950  -10.5964 C   0  0  0  0  0  0  0  0  0  0  0  0
  -14.3252  -37.0480  -11.6997 C   0  0  0  0  0  0  0  0  0  0  0  0
  -14.3280  -37.9168  -12.7767 C   0  0  0  0  0  0  0  0  0  0  0  0
  -14.6181  -37.4807  -14.1776 C   0  0  0  0  0  0  0  0  0  0  0  0
  -13.3511  -37.4066  -14.9873 C   0  0  0  0  0  0  0  0  0  0  0  0
  -12.6785  -38.7486  -15.0873 C   0  0  0  0  0  0  0  0  0  0  0  0
  -13.6305  -36.8036  -16.3411 C   0  0  0  0  0  0  0  0  0  0  0  0
  -12.4131  -36.4603  -14.2629 C   0  0  0  0  0  0  0  0  0  0  0  0
  -14.0438  -39.0898  -12.3138 O   0  0  0  0  0  0  0  0  0  0  0  0
  -13.8565  -39.0604  -11.0283 N   0  0  0  0  0  0  0  0  0  0  0  0
  2  1  1  1
  2  3  1  0
  3  4  1  0
  4  5  1  0
  5  6  1  1
  5  7  1  0
  7  8  1  1
  8  9  1  0
  9 10  1  1
  9 11  1  0
 11 12  1  0
 12 13  1  0
 13 14  1  0
 14 15  1  0
 15 16  1  0
 16 17  1  0
 17 18  1  0
 18 19  1  0
 19 20  2  0
 19 21  2  0
 19 22  1  0
 22 23  1  0
 23 24  1  1
 23 25  1  0
 25 26  2  0
 25 27  1  0
  2 28  1  0
 28 29  1  0
 29 30  2  0
 30 31  1  0
 31 32  1  0
 32 33  1  0
 32 34  1  0
 32 35  1  0
 30 36  1  0
 36 37  1  0
 27  7  1  0
 37 28  2  0
M  END
$$$$
