
     RDKit          3D

 37 38  0  0  0  0  0  0  0  0999 V2000
  -13.1944  -37.2012  -11.1619 C   0  0  0  0  0  0  0  0  0  0  0  0
  -14.4796  -37.4433  -10.4473 C   0  0  2  0  0  0  0  0  0  0  0  0
  -14.4285  -38.6648   -9.6780 N   0  0  0  0  0  0  0  0  0  0  0  0
  -15.5841  -38.8538   -8.8251 C   0  0  0  0  0  0  0  0  0  0  0  0
  -15.6795  -40.2097   -8.2484 C   0  0  1  0  0  0  0  0  0  0  0  0
  -14.8212  -40.5214   -7.2299 O   0  0  0  0  0  0  0  0  0  0  0  0
  -17.1466  -40.5510   -7.9273 C   0  0  2  0  0  0  0  0  0  0  0  0
  -17.3040  -41.8579   -7.2523 C   0  0  0  0  0  0  0  0  0  0  0  0
  -18.0888  -41.7673   -5.9881 C   0  0  2  0  0  0  0  0  0  0  0  0
  -17.4245  -40.9428   -4.9082 C   0  0  0  0  0  0  0  0  0  0  0  0
  -18.4395  -43.0900   -5.3600 C   0  0  0  0  0  0  0  0  0  0  0  0
  -17.5804  -44.2374   -5.7454 C   0  0  0  0  0  0  0  0  0  0  0  0
  -18.2136  -45.1855   -6.7420 C   0  0  0  0  0  0  0  0  0  0  0  0
  -18.9162  -46.3454   -6.0967 C   0  0  0  0  0  0  0  0  0  0  0  0
  -20.3778  -46.2633   -6.3801 C   0  0  0  0  0  0  0  0  0  0  0  0
  -20.8506  -47.0766   -7.5256 C   0  0  0  0  0  0  0  0  0  0  0  0
  -20.5140  -46.5332   -8.8822 C   0  0  0  0  0  0  0  0  0  0  0  0
  -21.3302  -45.2926   -9.2248 C   0  0  0  0  0  0  0  0  0  0  0  0
  -20.6588  -44.5605  -10.6730 S   0  0  0  0  0  6  0  0  0  0  0  0
  -21.7061  -43.7900  -11.4612 O   0  0  0  0  0  0  0  0  0  0  0  0
  -20.1619  -45.6363  -11.6320 O   0  0  0  0  0  0  0  0  0  0  0  0
  -19.3128  -43.4792  -10.3820 C   0  0  0  0  0  0  0  0  0  0  0  0
  -19.6822  -42.1017   -9.9252 C   0  0  1  0  0  0  0  0  0  0  0  0
  -20.4039  -42.0077   -8.6389 C   0  0  0  0  0  0  0  0  0  0  0  0
  -18.4735  -41.2444  -10.0424 C   0  0  0  0  0  0  0  0  0  0  0  0
  -17.9165  -41.3975  -11.2016 O   0  0  0  0  0  0  0  0  0  0  0  0
  -17.9007  -40.3649   -9.1511 N   0  0  0  0  0  0  0  0  0  0  0  0
  -15.5619  -37.6128  -11.4535 C   0  0  0  0  0  0  0  0  0  0  0  0
  -16.4842  -36.6629  -11.7905 C   0  0  0  0  0  0  0  0  0  0  0  0
  -17.2999  -37.2283  -12.7548 C   0  0  0  0  0  0  0  0  0  0  0  0
  -18.4439  -36.5008  -13.3861 C   0  0  0  0  0  0  0  0  0  0  0  0
  -19.7421  -36.8607  -12.7141 C   0  0  0  0  0  0  0  0  0  0  0  0
  -19.7148  -36.5345  -11.2458 C   0  0  0  0  0  0  0  0  0  0  0  0
  -20.8985  -36.2040  -13.4254 C   0  0  0  0  0  0  0  0  0  0  0  0
  -19.9209  -38.3594  -12.8623 C   0  0  0  0  0  0  0  0  0  0  0  0
  -16.8671  -38.4297  -12.9554 O   0  0  0  0  0  0  0  0  0  0  0  0
  -15.8404  -38.6961  -12.2050 N   0  0  0  0  0  0  0  0  0  0  0  0
  2  1  1  6
  2  3  1  0
  3  4  1  0
  4  5  1  0
  5  6  1  1
  5  7  1  0
  7  8  1  6
  8  9  1  0
  9 10  1  1
  9 11  1  0
 11 12  1  0
 12 13  1  0
 13 14  1  0
 14 15  1  0
 15 16  1  0
 16 17  1  0
 17 18  1  0
 18 19  1  0
 19 20  2  0
 19 21  2  0
 19 22  1  0
 22 23  1  0
 23 24  1  1
 23 25  1  0
 25 26  2  0
 25 27  1  0
  2 28  1  0
 28 29  1  0
 29 30  2  0
 30 31  1  0
 31 32  1  0
 32 33  1  0
 32 34  1  0
 32 35  1  0
 30 36  1  0
 36 37  1  0
 27  7  1  0
 37 28  2  0
M  END
$$$$
