
     RDKit          3D

 37 38  0  0  0  0  0  0  0  0999 V2000
  -12.9876  -40.6689  -10.3126 C   0  0  0  0  0  0  0  0  0  0  0  0
  -13.5840  -39.4887   -9.6254 C   0  0  2  0  0  0  0  0  0  0  0  0
  -14.9060  -39.7870   -9.1256 N   0  0  0  0  0  0  0  0  0  0  0  0
  -15.2183  -39.1036   -7.8871 C   0  0  0  0  0  0  0  0  0  0  0  0
  -16.0909  -39.8815   -6.9850 C   0  0  1  0  0  0  0  0  0  0  0  0
  -16.4168  -39.3152   -5.7832 O   0  0  0  0  0  0  0  0  0  0  0  0
  -17.3151  -40.4126   -7.7538 C   0  0  2  0  0  0  0  0  0  0  0  0
  -18.5868  -40.2236   -7.0219 C   0  0  0  0  0  0  0  0  0  0  0  0
  -19.6257  -39.5278   -7.8337 C   0  0  2  0  0  0  0  0  0  0  0  0
  -19.2694  -38.1048   -8.2015 C   0  0  0  0  0  0  0  0  0  0  0  0
  -20.9943  -39.4770   -7.2082 C   0  0  0  0  0  0  0  0  0  0  0  0
  -21.0383  -39.6411   -5.7337 C   0  0  0  0  0  0  0  0  0  0  0  0
  -21.4984  -41.0073   -5.2702 C   0  0  0  0  0  0  0  0  0  0  0  0
  -22.9736  -41.0779   -4.9975 C   0  0  0  0  0  0  0  0  0  0  0  0
  -23.6146  -42.0166   -5.9625 C   0  0  0  0  0  0  0  0  0  0  0  0
  -23.8203  -43.3978   -5.4656 C   0  0  0  0  0  0  0  0  0  0  0  0
  -22.5857  -44.2462   -5.3952 C   0  0  0  0  0  0  0  0  0  0  0  0
  -22.0850  -44.6508   -6.7767 C   0  0  0  0  0  0  0  0  0  0  0  0
  -20.4908  -45.3679   -6.6089 S   0  0  0  0  0  6  0  0  0  0  0  0
  -20.1955  -46.3683   -7.7152 O   0  0  0  0  0  0  0  0  0  0  0  0
  -20.4035  -46.1754   -5.3188 O   0  0  0  0  0  0  0  0  0  0  0  0
  -19.1757  -44.2125   -6.5742 C   0  0  0  0  0  0  0  0  0  0  0  0
  -18.7400  -43.6945   -7.9101 C   0  0  1  0  0  0  0  0  0  0  0  0
  -19.7518  -42.9483   -8.6872 C   0  0  0  0  0  0  0  0  0  0  0  0
  -17.4382  -43.0009   -7.7263 C   0  0  0  0  0  0  0  0  0  0  0  0
  -16.6236  -43.7350   -7.0370 O   0  0  0  0  0  0  0  0  0  0  0  0
  -17.0027  -41.7685   -8.1597 N   0  0  0  0  0  0  0  0  0  0  0  0
  -13.7351  -38.3863  -10.6125 C   0  0  0  0  0  0  0  0  0  0  0  0
  -13.4497  -37.0708  -10.3786 C   0  0  0  0  0  0  0  0  0  0  0  0
  -13.7305  -36.3909  -11.5507 C   0  0  0  0  0  0  0  0  0  0  0  0
  -13.5476  -34.9143  -11.7026 C   0  0  0  0  0  0  0  0  0  0  0  0
  -12.7137  -34.6013  -12.9163 C   0  0  0  0  0  0  0  0  0  0  0  0
  -12.1159  -33.2231  -12.8371 C   0  0  0  0  0  0  0  0  0  0  0  0
  -11.6679  -35.6684  -13.1213 C   0  0  0  0  0  0  0  0  0  0  0  0
  -13.6387  -34.6473  -14.1173 C   0  0  0  0  0  0  0  0  0  0  0  0
  -14.1508  -37.2679  -12.4022 O   0  0  0  0  0  0  0  0  0  0  0  0
  -14.1686  -38.4603  -11.8862 N   0  0  0  0  0  0  0  0  0  0  0  0
  2  1  1  6
  2  3  1  0
  3  4  1  0
  4  5  1  0
  5  6  1  1
  5  7  1  0
  7  8  1  1
  8  9  1  0
  9 10  1  1
  9 11  1  0
 11 12  1  0
 12 13  1  0
 13 14  1  0
 14 15  1  0
 15 16  1  0
 16 17  1  0
 17 18  1  0
 18 19  1  0
 19 20  2  0
 19 21  2  0
 19 22  1  0
 22 23  1  0
 23 24  1  1
 23 25  1  0
 25 26  2  0
 25 27  1  0
  2 28  1  0
 28 29  1  0
 29 30  2  0
 30 31  1  0
 31 32  1  0
 32 33  1  0
 32 34  1  0
 32 35  1  0
 30 36  1  0
 36 37  1  0
 27  7  1  0
 37 28  2  0
M  END
$$$$
