
     RDKit          3D

 37 38  0  0  0  0  0  0  0  0999 V2000
  -15.6149  -36.8219  -11.3904 C   0  0  0  0  0  0  0  0  0  0  0  0
  -15.2547  -38.0561  -10.6369 C   0  0  2  0  0  0  0  0  0  0  0  0
  -15.5193  -37.9034   -9.2251 N   0  0  0  0  0  0  0  0  0  0  0  0
  -15.5495  -39.1619   -8.5082 C   0  0  0  0  0  0  0  0  0  0  0  0
  -16.6749  -39.2762   -7.5592 C   0  0  1  0  0  0  0  0  0  0  0  0
  -16.9593  -38.1836   -6.7868 O   0  0  0  0  0  0  0  0  0  0  0  0
  -17.9142  -39.8533   -8.2684 C   0  0  2  0  0  0  0  0  0  0  0  0
  -19.1150  -39.8846   -7.4048 C   0  0  0  0  0  0  0  0  0  0  0  0
  -20.2965  -39.2244   -8.0295 C   0  0  2  0  0  0  0  0  0  0  0  0
  -20.1229  -37.7397   -8.2592 C   0  0  0  0  0  0  0  0  0  0  0  0
  -21.5906  -39.3915   -7.2783 C   0  0  0  0  0  0  0  0  0  0  0  0
  -21.4641  -39.7163   -5.8356 C   0  0  0  0  0  0  0  0  0  0  0  0
  -21.7360  -41.1665   -5.4950 C   0  0  0  0  0  0  0  0  0  0  0  0
  -23.1605  -41.4276   -5.0970 C   0  0  0  0  0  0  0  0  0  0  0  0
  -23.8029  -42.3223   -6.1020 C   0  0  0  0  0  0  0  0  0  0  0  0
  -23.8182  -43.7630   -5.7538 C   0  0  0  0  0  0  0  0  0  0  0  0
  -22.5053  -44.4732   -5.8982 C   0  0  0  0  0  0  0  0  0  0  0  0
  -22.1141  -44.6702   -7.3580 C   0  0  0  0  0  0  0  0  0  0  0  0
  -20.4480  -45.2215   -7.4238 S   0  0  0  0  0  6  0  0  0  0  0  0
  -20.1726  -46.0592   -8.6625 O   0  0  0  0  0  0  0  0  0  0  0  0
  -20.1472  -46.1479   -6.2511 O   0  0  0  0  0  0  0  0  0  0  0  0
  -19.2571  -43.9389   -7.3758 C   0  0  0  0  0  0  0  0  0  0  0  0
  -19.0165  -43.2363   -8.6761 C   0  0  1  0  0  0  0  0  0  0  0  0
  -20.1727  -42.5270   -9.2632 C   0  0  0  0  0  0  0  0  0  0  0  0
  -17.7776  -42.4275   -8.5335 C   0  0  0  0  0  0  0  0  0  0  0  0
  -16.8270  -43.1371   -8.0136 O   0  0  0  0  0  0  0  0  0  0  0  0
  -17.5136  -41.1154   -8.8578 N   0  0  0  0  0  0  0  0  0  0  0  0
  -13.7931  -38.2934  -10.7781 C   0  0  0  0  0  0  0  0  0  0  0  0
  -13.1754  -38.7822  -11.8944 C   0  0  0  0  0  0  0  0  0  0  0  0
  -11.8245  -38.8477  -11.6021 C   0  0  0  0  0  0  0  0  0  0  0  0
  -10.8005  -39.3367  -12.5764 C   0  0  0  0  0  0  0  0  0  0  0  0
  -10.0646  -38.1822  -13.2024 C   0  0  0  0  0  0  0  0  0  0  0  0
  -11.0024  -37.2538  -13.9249 C   0  0  0  0  0  0  0  0  0  0  0  0
   -9.2361  -37.4663  -12.1654 C   0  0  0  0  0  0  0  0  0  0  0  0
   -9.1007  -38.7652  -14.2179 C   0  0  0  0  0  0  0  0  0  0  0  0
  -11.6812  -38.4210  -10.3904 O   0  0  0  0  0  0  0  0  0  0  0  0
  -12.8220  -38.0834   -9.8679 N   0  0  0  0  0  0  0  0  0  0  0  0
  2  1  1  6
  2  3  1  0
  3  4  1  0
  4  5  1  0
  5  6  1  6
  5  7  1  0
  7  8  1  1
  8  9  1  0
  9 10  1  1
  9 11  1  0
 11 12  1  0
 12 13  1  0
 13 14  1  0
 14 15  1  0
 15 16  1  0
 16 17  1  0
 17 18  1  0
 18 19  1  0
 19 20  2  0
 19 21  2  0
 19 22  1  0
 22 23  1  0
 23 24  1  1
 23 25  1  0
 25 26  2  0
 25 27  1  0
  2 28  1  0
 28 29  1  0
 29 30  2  0
 30 31  1  0
 31 32  1  0
 32 33  1  0
 32 34  1  0
 32 35  1  0
 30 36  1  0
 36 37  1  0
 27  7  1  0
 37 28  2  0
M  END
$$$$
