
     RDKit          3D

 37 38  0  0  0  0  0  0  0  0999 V2000
  -12.2131  -40.9342   -9.9218 C   0  0  0  0  0  0  0  0  0  0  0  0
  -13.1055  -39.8761   -9.3697 C   0  0  2  0  0  0  0  0  0  0  0  0
  -14.3617  -40.4316   -8.9229 N   0  0  0  0  0  0  0  0  0  0  0  0
  -15.3212  -39.4253   -8.5163 C   0  0  0  0  0  0  0  0  0  0  0  0
  -16.2707  -39.8937   -7.4870 C   0  0  1  0  0  0  0  0  0  0  0  0
  -16.4616  -39.0907   -6.3961 O   0  0  0  0  0  0  0  0  0  0  0  0
  -17.5892  -40.3444   -8.1430 C   0  0  2  0  0  0  0  0  0  0  0  0
  -18.7694  -40.1373   -7.2754 C   0  0  0  0  0  0  0  0  0  0  0  0
  -19.8557  -39.3685   -7.9472 C   0  0  2  0  0  0  0  0  0  0  0  0
  -19.4788  -37.9461   -8.2963 C   0  0  0  0  0  0  0  0  0  0  0  0
  -21.1492  -39.2912   -7.1804 C   0  0  0  0  0  0  0  0  0  0  0  0
  -21.0480  -39.5151   -5.7166 C   0  0  0  0  0  0  0  0  0  0  0  0
  -21.5159  -40.8808   -5.2593 C   0  0  0  0  0  0  0  0  0  0  0  0
  -22.9567  -40.9058   -4.8366 C   0  0  0  0  0  0  0  0  0  0  0  0
  -23.7333  -41.7777   -5.7638 C   0  0  0  0  0  0  0  0  0  0  0  0
  -23.9456  -43.1696   -5.3006 C   0  0  0  0  0  0  0  0  0  0  0  0
  -22.7477  -44.0672   -5.3919 C   0  0  0  0  0  0  0  0  0  0  0  0
  -22.4099  -44.4326   -6.8324 C   0  0  0  0  0  0  0  0  0  0  0  0
  -20.8389  -45.2171   -6.8595 S   0  0  0  0  0  6  0  0  0  0  0  0
  -20.7023  -46.1809   -8.0276 O   0  0  0  0  0  0  0  0  0  0  0  0
  -20.6537  -46.0808   -5.6171 O   0  0  0  0  0  0  0  0  0  0  0  0
  -19.4790  -44.1158   -6.9192 C   0  0  0  0  0  0  0  0  0  0  0  0
  -19.1615  -43.5594   -8.2728 C   0  0  1  0  0  0  0  0  0  0  0  0
  -20.2152  -42.7428   -8.9111 C   0  0  0  0  0  0  0  0  0  0  0  0
  -17.8193  -42.9249   -8.2003 C   0  0  0  0  0  0  0  0  0  0  0  0
  -16.9702  -43.7182   -7.6282 O   0  0  0  0  0  0  0  0  0  0  0  0
  -17.3786  -41.6932   -8.6302 N   0  0  0  0  0  0  0  0  0  0  0  0
  -13.4238  -38.9062  -10.4516 C   0  0  0  0  0  0  0  0  0  0  0  0
  -13.1895  -37.5611  -10.4020 C   0  0  0  0  0  0  0  0  0  0  0  0
  -13.6326  -37.0381  -11.6041 C   0  0  0  0  0  0  0  0  0  0  0  0
  -13.5507  -35.5834  -11.9419 C   0  0  0  0  0  0  0  0  0  0  0  0
  -12.4200  -35.3203  -12.9003 C   0  0  0  0  0  0  0  0  0  0  0  0
  -12.5591  -36.1343  -14.1578 C   0  0  0  0  0  0  0  0  0  0  0  0
  -12.3078  -33.8433  -13.1835 C   0  0  0  0  0  0  0  0  0  0  0  0
  -11.1389  -35.7393  -12.2051 C   0  0  0  0  0  0  0  0  0  0  0  0
  -14.0918  -38.0274  -12.2977 O   0  0  0  0  0  0  0  0  0  0  0  0
  -13.9868  -39.1498  -11.6514 N   0  0  0  0  0  0  0  0  0  0  0  0
  2  1  1  6
  2  3  1  0
  3  4  1  0
  4  5  1  0
  5  6  1  1
  5  7  1  0
  7  8  1  1
  8  9  1  0
  9 10  1  1
  9 11  1  0
 11 12  1  0
 12 13  1  0
 13 14  1  0
 14 15  1  0
 15 16  1  0
 16 17  1  0
 17 18  1  0
 18 19  1  0
 19 20  2  0
 19 21  2  0
 19 22  1  0
 22 23  1  0
 23 24  1  1
 23 25  1  0
 25 26  2  0
 25 27  1  0
  2 28  1  0
 28 29  1  0
 29 30  2  0
 30 31  1  0
 31 32  1  0
 32 33  1  0
 32 34  1  0
 32 35  1  0
 30 36  1  0
 36 37  1  0
 27  7  1  0
 37 28  2  0
M  END
$$$$
