
     RDKit          3D

 37 38  0  0  0  0  0  0  0  0999 V2000
  -20.4942  -42.2471   -9.5834 C   0  0  0  0  0  0  0  0  0  0  0  0
  -19.9332  -41.1432   -8.7543 C   0  0  2  0  0  0  0  0  0  0  0  0
  -18.4921  -41.2180   -8.6892 N   0  0  0  0  0  0  0  0  0  0  0  0
  -17.8798  -40.0213   -8.1492 C   0  0  0  0  0  0  0  0  0  0  0  0
  -17.2336  -39.1737   -9.1710 C   0  0  1  0  0  0  0  0  0  0  0  0
  -17.6798  -37.8865   -9.2937 O   0  0  0  0  0  0  0  0  0  0  0  0
  -15.7011  -39.2729   -9.0550 C   0  0  2  0  0  0  0  0  0  0  0  0
  -14.9888  -38.4550  -10.0610 C   0  0  0  0  0  0  0  0  0  0  0  0
  -13.9794  -37.5400   -9.4558 C   0  0  2  0  0  0  0  0  0  0  0  0
  -14.5716  -36.4757   -8.5593 C   0  0  0  0  0  0  0  0  0  0  0  0
  -13.0964  -36.8236  -10.4428 C   0  0  0  0  0  0  0  0  0  0  0  0
  -13.6319  -36.7036  -11.8219 C   0  0  0  0  0  0  0  0  0  0  0  0
  -13.0097  -37.6580  -12.8194 C   0  0  0  0  0  0  0  0  0  0  0  0
  -11.8488  -37.0658  -13.5657 C   0  0  0  0  0  0  0  0  0  0  0  0
  -10.6016  -37.8037  -13.2146 C   0  0  0  0  0  0  0  0  0  0  0  0
  -10.2051  -38.8710  -14.1637 C   0  0  0  0  0  0  0  0  0  0  0  0
  -11.0193  -40.1285  -14.0937 C   0  0  0  0  0  0  0  0  0  0  0  0
  -10.7336  -40.9304  -12.8295 C   0  0  0  0  0  0  0  0  0  0  0  0
  -11.9359  -42.2025  -12.6872 S   0  0  0  0  0  6  0  0  0  0  0  0
  -11.4057  -43.4063  -11.9246 O   0  0  0  0  0  0  0  0  0  0  0  0
  -12.3038  -42.7436  -14.0640 O   0  0  0  0  0  0  0  0  0  0  0  0
  -13.4301  -41.7059  -11.9213 C   0  0  0  0  0  0  0  0  0  0  0  0
  -13.3970  -41.6477  -10.4253 C   0  0  1  0  0  0  0  0  0  0  0  0
  -12.4411  -40.6929   -9.8261 C   0  0  0  0  0  0  0  0  0  0  0  0
  -14.7986  -41.5338   -9.9435 C   0  0  0  0  0  0  0  0  0  0  0  0
  -15.5535  -42.4110  -10.5251 O   0  0  0  0  0  0  0  0  0  0  0  0
  -15.3708  -40.6839   -9.0234 N   0  0  0  0  0  0  0  0  0  0  0  0
  -20.4355  -41.2879   -7.3617 C   0  0  0  0  0  0  0  0  0  0  0  0
  -21.5431  -40.6711   -6.8525 C   0  0  0  0  0  0  0  0  0  0  0  0
  -21.6488  -41.0746   -5.5330 C   0  0  0  0  0  0  0  0  0  0  0  0
  -22.7423  -40.6136   -4.6228 C   0  0  0  0  0  0  0  0  0  0  0  0
  -22.7421  -39.1128   -4.5048 C   0  0  0  0  0  0  0  0  0  0  0  0
  -23.8549  -38.6268   -3.6167 C   0  0  0  0  0  0  0  0  0  0  0  0
  -21.3902  -38.6246   -4.0483 C   0  0  0  0  0  0  0  0  0  0  0  0
  -22.9703  -38.5556   -5.8968 C   0  0  0  0  0  0  0  0  0  0  0  0
  -20.6595  -41.8745   -5.3045 O   0  0  0  0  0  0  0  0  0  0  0  0
  -19.9182  -42.0269   -6.3607 N   0  0  0  0  0  0  0  0  0  0  0  0
  2  1  1  6
  2  3  1  0
  3  4  1  0
  4  5  1  0
  5  6  1  1
  5  7  1  0
  7  8  1  6
  8  9  1  0
  9 10  1  6
  9 11  1  0
 11 12  1  0
 12 13  1  0
 13 14  1  0
 14 15  1  0
 15 16  1  0
 16 17  1  0
 17 18  1  0
 18 19  1  0
 19 20  2  0
 19 21  2  0
 19 22  1  0
 22 23  1  0
 23 24  1  6
 23 25  1  0
 25 26  2  0
 25 27  1  0
  2 28  1  0
 28 29  1  0
 29 30  2  0
 30 31  1  0
 31 32  1  0
 32 33  1  0
 32 34  1  0
 32 35  1  0
 30 36  1  0
 36 37  1  0
 27  7  1  0
 37 28  2  0
M  END
$$$$
