
     RDKit          3D

 37 38  0  0  0  0  0  0  0  0999 V2000
  -13.7243  -41.6171  -10.1148 C   0  0  0  0  0  0  0  0  0  0  0  0
  -13.4545  -40.2413   -9.6096 C   0  0  2  0  0  0  0  0  0  0  0  0
  -14.0247  -40.0445   -8.2971 N   0  0  0  0  0  0  0  0  0  0  0  0
  -15.1683  -40.8944   -8.0356 C   0  0  0  0  0  0  0  0  0  0  0  0
  -16.3958  -40.1478   -7.6951 C   0  0  1  0  0  0  0  0  0  0  0  0
  -16.3786  -38.7925   -7.8793 O   0  0  0  0  0  0  0  0  0  0  0  0
  -17.6257  -40.8272   -8.3256 C   0  0  2  0  0  0  0  0  0  0  0  0
  -18.8537  -40.6714   -7.5155 C   0  0  0  0  0  0  0  0  0  0  0  0
  -19.9982  -40.1213   -8.2965 C   0  0  2  0  0  0  0  0  0  0  0  0
  -19.7809  -38.7112   -8.7980 C   0  0  0  0  0  0  0  0  0  0  0  0
  -21.3193  -40.1186   -7.5743 C   0  0  0  0  0  0  0  0  0  0  0  0
  -21.2468  -40.1642   -6.0925 C   0  0  0  0  0  0  0  0  0  0  0  0
  -21.5650  -41.5176   -5.4924 C   0  0  0  0  0  0  0  0  0  0  0  0
  -23.0074  -41.6721   -5.1035 C   0  0  0  0  0  0  0  0  0  0  0  0
  -23.6392  -42.7305   -5.9423 C   0  0  0  0  0  0  0  0  0  0  0  0
  -23.7010  -44.0777   -5.3272 C   0  0  0  0  0  0  0  0  0  0  0  0
  -22.4020  -44.8260   -5.2866 C   0  0  0  0  0  0  0  0  0  0  0  0
  -21.9695  -45.3051   -6.6673 C   0  0  0  0  0  0  0  0  0  0  0  0
  -20.3162  -45.8888   -6.5671 S   0  0  0  0  0  6  0  0  0  0  0  0
  -20.0221  -46.9524   -7.6131 O   0  0  0  0  0  0  0  0  0  0  0  0
  -20.0757  -46.5796   -5.2296 O   0  0  0  0  0  0  0  0  0  0  0  0
  -19.0962  -44.6423   -6.7211 C   0  0  0  0  0  0  0  0  0  0  0  0
  -18.7972  -44.2053   -8.1219 C   0  0  1  0  0  0  0  0  0  0  0  0
  -19.9163  -43.6004   -8.8743 C   0  0  0  0  0  0  0  0  0  0  0  0
  -17.5439  -43.4067   -8.0913 C   0  0  0  0  0  0  0  0  0  0  0  0
  -16.6281  -44.0210   -7.4120 O   0  0  0  0  0  0  0  0  0  0  0  0
  -17.2376  -42.1857   -8.6494 N   0  0  0  0  0  0  0  0  0  0  0  0
  -14.1112  -39.2615  -10.5159 C   0  0  0  0  0  0  0  0  0  0  0  0
  -14.0908  -37.9042  -10.3613 C   0  0  0  0  0  0  0  0  0  0  0  0
  -14.8182  -37.3755  -11.4131 C   0  0  0  0  0  0  0  0  0  0  0  0
  -15.0321  -35.9074  -11.6022 C   0  0  0  0  0  0  0  0  0  0  0  0
  -14.0347  -35.3436  -12.5787 C   0  0  0  0  0  0  0  0  0  0  0  0
  -12.6333  -35.4012  -12.0347 C   0  0  0  0  0  0  0  0  0  0  0  0
  -14.1603  -36.0361  -13.9126 C   0  0  0  0  0  0  0  0  0  0  0  0
  -14.3978  -33.8873  -12.7969 C   0  0  0  0  0  0  0  0  0  0  0  0
  -15.2284  -38.3733  -12.1251 O   0  0  0  0  0  0  0  0  0  0  0  0
  -14.8316  -39.5064  -11.6280 N   0  0  0  0  0  0  0  0  0  0  0  0
  2  1  1  6
  2  3  1  0
  3  4  1  0
  4  5  1  0
  5  6  1  6
  5  7  1  0
  7  8  1  1
  8  9  1  0
  9 10  1  1
  9 11  1  0
 11 12  1  0
 12 13  1  0
 13 14  1  0
 14 15  1  0
 15 16  1  0
 16 17  1  0
 17 18  1  0
 18 19  1  0
 19 20  2  0
 19 21  2  0
 19 22  1  0
 22 23  1  0
 23 24  1  1
 23 25  1  0
 25 26  2  0
 25 27  1  0
  2 28  1  0
 28 29  1  0
 29 30  2  0
 30 31  1  0
 31 32  1  0
 32 33  1  0
 32 34  1  0
 32 35  1  0
 30 36  1  0
 36 37  1  0
 27  7  1  0
 37 28  2  0
M  END
$$$$
