
     RDKit          3D

 37 38  0  0  0  0  0  0  0  0999 V2000
  -13.7190  -41.8944  -10.6907 C   0  0  0  0  0  0  0  0  0  0  0  0
  -13.7353  -40.5560  -10.0355 C   0  0  2  0  0  0  0  0  0  0  0  0
  -14.9396  -40.3674   -9.2604 N   0  0  0  0  0  0  0  0  0  0  0  0
  -14.6886  -39.8705   -7.9230 C   0  0  0  0  0  0  0  0  0  0  0  0
  -15.8852  -39.8671   -7.0580 C   0  0  1  0  0  0  0  0  0  0  0  0
  -16.0581  -38.7932   -6.2285 O   0  0  0  0  0  0  0  0  0  0  0  0
  -17.1416  -40.2002   -7.8841 C   0  0  2  0  0  0  0  0  0  0  0  0
  -18.4005  -39.9910   -7.1357 C   0  0  0  0  0  0  0  0  0  0  0  0
  -19.3691  -39.1205   -7.8612 C   0  0  2  0  0  0  0  0  0  0  0  0
  -18.8913  -37.6996   -8.0605 C   0  0  0  0  0  0  0  0  0  0  0  0
  -20.7350  -39.0276   -7.2347 C   0  0  0  0  0  0  0  0  0  0  0  0
  -20.8078  -39.3575   -5.7894 C   0  0  0  0  0  0  0  0  0  0  0  0
  -21.3853  -40.7247   -5.4886 C   0  0  0  0  0  0  0  0  0  0  0  0
  -22.8639  -40.7019   -5.2266 C   0  0  0  0  0  0  0  0  0  0  0  0
  -23.5713  -41.4647   -6.2947 C   0  0  0  0  0  0  0  0  0  0  0  0
  -23.8969  -42.8721   -5.9624 C   0  0  0  0  0  0  0  0  0  0  0  0
  -22.7384  -43.8239   -5.9909 C   0  0  0  0  0  0  0  0  0  0  0  0
  -22.2592  -44.1061   -7.4099 C   0  0  0  0  0  0  0  0  0  0  0  0
  -20.7323  -44.9696   -7.3261 S   0  0  0  0  0  6  0  0  0  0  0  0
  -20.5105  -45.8560   -8.5414 O   0  0  0  0  0  0  0  0  0  0  0  0
  -20.7261  -45.9259   -6.1390 O   0  0  0  0  0  0  0  0  0  0  0  0
  -19.3256  -43.9410   -7.1565 C   0  0  0  0  0  0  0  0  0  0  0  0
  -18.8344  -43.3099   -8.4226 C   0  0  1  0  0  0  0  0  0  0  0  0
  -19.7722  -42.3959   -9.1078 C   0  0  0  0  0  0  0  0  0  0  0  0
  -17.4811  -42.7546   -8.1586 C   0  0  0  0  0  0  0  0  0  0  0  0
  -16.7379  -43.6298   -7.5592 O   0  0  0  0  0  0  0  0  0  0  0  0
  -16.9396  -41.5213   -8.4452 N   0  0  0  0  0  0  0  0  0  0  0  0
  -13.7329  -39.5070  -11.0900 C   0  0  0  0  0  0  0  0  0  0  0  0
  -12.8470  -38.4701  -11.1720 C   0  0  0  0  0  0  0  0  0  0  0  0
  -13.1993  -37.7367  -12.2913 C   0  0  0  0  0  0  0  0  0  0  0  0
  -12.4648  -36.5094  -12.7283 C   0  0  0  0  0  0  0  0  0  0  0  0
  -13.1932  -35.2667  -12.2909 C   0  0  0  0  0  0  0  0  0  0  0  0
  -13.4639  -35.2752  -10.8111 C   0  0  0  0  0  0  0  0  0  0  0  0
  -12.4378  -34.0368  -12.7280 C   0  0  0  0  0  0  0  0  0  0  0  0
  -14.5257  -35.2520  -13.0153 C   0  0  0  0  0  0  0  0  0  0  0  0
  -14.2254  -38.3219  -12.8161 O   0  0  0  0  0  0  0  0  0  0  0  0
  -14.5724  -39.3729  -12.1354 N   0  0  0  0  0  0  0  0  0  0  0  0
  2  1  1  6
  2  3  1  0
  3  4  1  0
  4  5  1  0
  5  6  1  6
  5  7  1  0
  7  8  1  1
  8  9  1  0
  9 10  1  1
  9 11  1  0
 11 12  1  0
 12 13  1  0
 13 14  1  0
 14 15  1  0
 15 16  1  0
 16 17  1  0
 17 18  1  0
 18 19  1  0
 19 20  2  0
 19 21  2  0
 19 22  1  0
 22 23  1  0
 23 24  1  1
 23 25  1  0
 25 26  2  0
 25 27  1  0
  2 28  1  0
 28 29  1  0
 29 30  2  0
 30 31  1  0
 31 32  1  0
 32 33  1  0
 32 34  1  0
 32 35  1  0
 30 36  1  0
 36 37  1  0
 27  7  1  0
 37 28  2  0
M  END
$$$$
