
     RDKit          3D

 37 38  0  0  0  0  0  0  0  0999 V2000
  -13.2341  -41.2181  -10.6177 C   0  0  0  0  0  0  0  0  0  0  0  0
  -13.8697  -39.8982  -10.3444 C   0  0  2  0  0  0  0  0  0  0  0  0
  -15.2405  -40.0558   -9.9173 N   0  0  0  0  0  0  0  0  0  0  0  0
  -15.5787  -39.2457   -8.7650 C   0  0  0  0  0  0  0  0  0  0  0  0
  -16.2714  -39.9942   -7.6972 C   0  0  1  0  0  0  0  0  0  0  0  0
  -16.3279  -39.4155   -6.4590 O   0  0  0  0  0  0  0  0  0  0  0  0
  -17.6421  -40.4889   -8.1955 C   0  0  2  0  0  0  0  0  0  0  0  0
  -18.7592  -40.0910   -7.3111 C   0  0  0  0  0  0  0  0  0  0  0  0
  -19.8581  -39.3966   -8.0409 C   0  0  2  0  0  0  0  0  0  0  0  0
  -19.4555  -38.0687   -8.6424 C   0  0  0  0  0  0  0  0  0  0  0  0
  -21.0987  -39.1382   -7.2279 C   0  0  0  0  0  0  0  0  0  0  0  0
  -20.9156  -39.1227   -5.7550 C   0  0  0  0  0  0  0  0  0  0  0  0
  -21.4003  -40.3731   -5.0516 C   0  0  0  0  0  0  0  0  0  0  0  0
  -22.8126  -40.2656   -4.5521 C   0  0  0  0  0  0  0  0  0  0  0  0
  -23.6735  -41.2435   -5.2771 C   0  0  0  0  0  0  0  0  0  0  0  0
  -23.9039  -42.5298   -4.5774 C   0  0  0  0  0  0  0  0  0  0  0  0
  -22.7448  -43.4814   -4.5835 C   0  0  0  0  0  0  0  0  0  0  0  0
  -22.5084  -44.0929   -5.9594 C   0  0  0  0  0  0  0  0  0  0  0  0
  -20.9694  -44.9386   -5.9416 S   0  0  0  0  0  6  0  0  0  0  0  0
  -20.9373  -46.0863   -6.9385 O   0  0  0  0  0  0  0  0  0  0  0  0
  -20.7376  -45.5935   -4.5847 O   0  0  0  0  0  0  0  0  0  0  0  0
  -19.5794  -43.9222   -6.2586 C   0  0  0  0  0  0  0  0  0  0  0  0
  -19.3270  -43.6102   -7.7013 C   0  0  1  0  0  0  0  0  0  0  0  0
  -20.3897  -42.8647   -8.4079 C   0  0  0  0  0  0  0  0  0  0  0  0
  -17.9622  -43.0313   -7.8093 C   0  0  0  0  0  0  0  0  0  0  0  0
  -17.1068  -43.7559   -7.1605 O   0  0  0  0  0  0  0  0  0  0  0  0
  -17.5073  -41.9073   -8.4620 N   0  0  0  0  0  0  0  0  0  0  0  0
  -13.8993  -39.1110  -11.6062 C   0  0  0  0  0  0  0  0  0  0  0  0
  -13.5015  -37.8105  -11.7364 C   0  0  0  0  0  0  0  0  0  0  0  0
  -13.6944  -37.4691  -13.0635 C   0  0  0  0  0  0  0  0  0  0  0  0
  -13.3758  -36.1152  -13.6135 C   0  0  0  0  0  0  0  0  0  0  0  0
  -12.3460  -36.2117  -14.7073 C   0  0  0  0  0  0  0  0  0  0  0  0
  -12.0723  -34.8699  -15.3302 C   0  0  0  0  0  0  0  0  0  0  0  0
  -11.0918  -36.8687  -14.1880 C   0  0  0  0  0  0  0  0  0  0  0  0
  -12.9157  -37.1227  -15.7777 C   0  0  0  0  0  0  0  0  0  0  0  0
  -14.1735  -38.5141  -13.6544 O   0  0  0  0  0  0  0  0  0  0  0  0
  -14.3100  -39.5067  -12.8270 N   0  0  0  0  0  0  0  0  0  0  0  0
  2  1  1  6
  2  3  1  0
  3  4  1  0
  4  5  1  0
  5  6  1  1
  5  7  1  0
  7  8  1  1
  8  9  1  0
  9 10  1  1
  9 11  1  0
 11 12  1  0
 12 13  1  0
 13 14  1  0
 14 15  1  0
 15 16  1  0
 16 17  1  0
 17 18  1  0
 18 19  1  0
 19 20  2  0
 19 21  2  0
 19 22  1  0
 22 23  1  0
 23 24  1  1
 23 25  1  0
 25 26  2  0
 25 27  1  0
  2 28  1  0
 28 29  1  0
 29 30  2  0
 30 31  1  0
 31 32  1  0
 32 33  1  0
 32 34  1  0
 32 35  1  0
 30 36  1  0
 36 37  1  0
 27  7  1  0
 37 28  2  0
M  END
$$$$
