
     RDKit          3D

 37 38  0  0  0  0  0  0  0  0999 V2000
  -15.0726  -42.4736   -5.1748 C   0  0  0  0  0  0  0  0  0  0  0  0
  -16.2132  -41.8867   -5.9332 C   0  0  2  0  0  0  0  0  0  0  0  0
  -16.1466  -40.4438   -5.9452 N   0  0  0  0  0  0  0  0  0  0  0  0
  -15.4972  -39.9097   -7.1248 C   0  0  0  0  0  0  0  0  0  0  0  0
  -16.3662  -39.0310   -7.9329 C   0  0  1  0  0  0  0  0  0  0  0  0
  -16.3364  -37.6915   -7.6569 O   0  0  0  0  0  0  0  0  0  0  0  0
  -16.1945  -39.3426   -9.4313 C   0  0  2  0  0  0  0  0  0  0  0  0
  -16.8069  -38.3222  -10.3101 C   0  0  0  0  0  0  0  0  0  0  0  0
  -15.8590  -37.7909  -11.3307 C   0  0  2  0  0  0  0  0  0  0  0  0
  -14.6886  -37.0308  -10.7479 C   0  0  0  0  0  0  0  0  0  0  0  0
  -16.4779  -36.8918  -12.3677 C   0  0  0  0  0  0  0  0  0  0  0  0
  -17.7608  -36.2506  -11.9857 C   0  0  0  0  0  0  0  0  0  0  0  0
  -18.9857  -36.8775  -12.6179 C   0  0  0  0  0  0  0  0  0  0  0  0
  -19.4048  -36.2083  -13.8954 C   0  0  0  0  0  0  0  0  0  0  0  0
  -19.2529  -37.1624  -15.0312 C   0  0  0  0  0  0  0  0  0  0  0  0
  -20.4859  -37.8846  -15.4250 C   0  0  0  0  0  0  0  0  0  0  0  0
  -20.9084  -38.9869  -14.5000 C   0  0  0  0  0  0  0  0  0  0  0  0
  -19.9854  -40.1967  -14.5859 C   0  0  0  0  0  0  0  0  0  0  0  0
  -20.3699  -41.2916  -13.2678 S   0  0  0  0  0  6  0  0  0  0  0  0
  -20.0401  -42.7357  -13.6107 O   0  0  0  0  0  0  0  0  0  0  0  0
  -21.8694  -41.2882  -12.9933 O   0  0  0  0  0  0  0  0  0  0  0  0
  -19.5761  -40.9116  -11.7541 C   0  0  0  0  0  0  0  0  0  0  0  0
  -18.1539  -41.3670  -11.6423 C   0  0  1  0  0  0  0  0  0  0  0  0
  -17.2012  -40.7902  -12.6140 C   0  0  0  0  0  0  0  0  0  0  0  0
  -17.7528  -41.2591  -10.2151 C   0  0  0  0  0  0  0  0  0  0  0  0
  -18.6492  -41.7930   -9.4478 O   0  0  0  0  0  0  0  0  0  0  0  0
  -16.6334  -40.7095   -9.6310 N   0  0  0  0  0  0  0  0  0  0  0  0
  -17.4820  -42.2537   -5.2492 C   0  0  0  0  0  0  0  0  0  0  0  0
  -18.6854  -42.4484   -5.8662 C   0  0  0  0  0  0  0  0  0  0  0  0
  -19.5920  -42.7704   -4.8716 C   0  0  0  0  0  0  0  0  0  0  0  0
  -21.0341  -43.0597   -5.1430 C   0  0  0  0  0  0  0  0  0  0  0  0
  -21.8617  -42.8611   -3.9013 C   0  0  0  0  0  0  0  0  0  0  0  0
  -21.4368  -43.7911   -2.7978 C   0  0  0  0  0  0  0  0  0  0  0  0
  -21.8277  -41.4146   -3.4761 C   0  0  0  0  0  0  0  0  0  0  0  0
  -23.2980  -43.1847   -4.2657 C   0  0  0  0  0  0  0  0  0  0  0  0
  -18.9429  -42.7600   -3.7538 O   0  0  0  0  0  0  0  0  0  0  0  0
  -17.6918  -42.4587   -3.9340 N   0  0  0  0  0  0  0  0  0  0  0  0
  2  1  1  1
  2  3  1  0
  3  4  1  0
  4  5  1  0
  5  6  1  6
  5  7  1  0
  7  8  1  6
  8  9  1  0
  9 10  1  1
  9 11  1  0
 11 12  1  0
 12 13  1  0
 13 14  1  0
 14 15  1  0
 15 16  1  0
 16 17  1  0
 17 18  1  0
 18 19  1  0
 19 20  2  0
 19 21  2  0
 19 22  1  0
 22 23  1  0
 23 24  1  6
 23 25  1  0
 25 26  2  0
 25 27  1  0
  2 28  1  0
 28 29  1  0
 29 30  2  0
 30 31  1  0
 31 32  1  0
 32 33  1  0
 32 34  1  0
 32 35  1  0
 30 36  1  0
 36 37  1  0
 27  7  1  0
 37 28  2  0
M  END
$$$$
