
     RDKit          3D

 37 38  0  0  0  0  0  0  0  0999 V2000
  -13.2462  -41.1782  -10.9737 C   0  0  0  0  0  0  0  0  0  0  0  0
  -13.6944  -39.9480  -10.2620 C   0  0  2  0  0  0  0  0  0  0  0  0
  -14.9494  -40.1654   -9.5807 N   0  0  0  0  0  0  0  0  0  0  0  0
  -15.1532  -39.2747   -8.4566 C   0  0  0  0  0  0  0  0  0  0  0  0
  -16.0867  -39.8044   -7.4426 C   0  0  1  0  0  0  0  0  0  0  0  0
  -16.3727  -39.0026   -6.3718 O   0  0  0  0  0  0  0  0  0  0  0  0
  -17.3452  -40.3752   -8.1226 C   0  0  2  0  0  0  0  0  0  0  0  0
  -18.5806  -40.1481   -7.3410 C   0  0  0  0  0  0  0  0  0  0  0  0
  -19.6592  -39.4960   -8.1370 C   0  0  2  0  0  0  0  0  0  0  0  0
  -19.3248  -38.0942   -8.5956 C   0  0  0  0  0  0  0  0  0  0  0  0
  -20.9962  -39.4126   -7.4496 C   0  0  0  0  0  0  0  0  0  0  0  0
  -20.9686  -39.4990   -5.9682 C   0  0  0  0  0  0  0  0  0  0  0  0
  -21.4022  -40.8391   -5.4120 C   0  0  0  0  0  0  0  0  0  0  0  0
  -22.8624  -40.8954   -5.0650 C   0  0  0  0  0  0  0  0  0  0  0  0
  -23.5467  -41.8835   -5.9474 C   0  0  0  0  0  0  0  0  0  0  0  0
  -23.7246  -43.2368   -5.3695 C   0  0  0  0  0  0  0  0  0  0  0  0
  -22.4858  -44.0802   -5.3145 C   0  0  0  0  0  0  0  0  0  0  0  0
  -22.0513  -44.5567   -6.6954 C   0  0  0  0  0  0  0  0  0  0  0  0
  -20.4490  -45.2639   -6.5674 S   0  0  0  0  0  6  0  0  0  0  0  0
  -20.2048  -46.3209   -7.6328 O   0  0  0  0  0  0  0  0  0  0  0  0
  -20.2974  -46.0026   -5.2426 O   0  0  0  0  0  0  0  0  0  0  0  0
  -19.1367  -44.1081   -6.6570 C   0  0  0  0  0  0  0  0  0  0  0  0
  -18.7673  -43.6609   -8.0376 C   0  0  1  0  0  0  0  0  0  0  0  0
  -19.8174  -42.9566   -8.8029 C   0  0  0  0  0  0  0  0  0  0  0  0
  -17.4600  -42.9585   -7.9535 C   0  0  0  0  0  0  0  0  0  0  0  0
  -16.6112  -43.6554   -7.2668 O   0  0  0  0  0  0  0  0  0  0  0  0
  -17.0492  -41.7505   -8.4714 N   0  0  0  0  0  0  0  0  0  0  0  0
  -13.9286  -38.8740  -11.2641 C   0  0  0  0  0  0  0  0  0  0  0  0
  -13.0723  -37.8443  -11.5345 C   0  0  0  0  0  0  0  0  0  0  0  0
  -13.6712  -37.0807  -12.5209 C   0  0  0  0  0  0  0  0  0  0  0  0
  -13.0441  -35.8505  -13.0956 C   0  0  0  0  0  0  0  0  0  0  0  0
  -13.4961  -34.6227  -12.3510 C   0  0  0  0  0  0  0  0  0  0  0  0
  -12.6681  -34.3870  -11.1172 C   0  0  0  0  0  0  0  0  0  0  0  0
  -13.5063  -33.4277  -13.2709 C   0  0  0  0  0  0  0  0  0  0  0  0
  -14.9296  -34.8650  -11.9192 C   0  0  0  0  0  0  0  0  0  0  0  0
  -14.8021  -37.6429  -12.7964 O   0  0  0  0  0  0  0  0  0  0  0  0
  -14.9920  -38.7065  -12.0745 N   0  0  0  0  0  0  0  0  0  0  0  0
  2  1  1  6
  2  3  1  0
  3  4  1  0
  4  5  1  0
  5  6  1  1
  5  7  1  0
  7  8  1  1
  8  9  1  0
  9 10  1  1
  9 11  1  0
 11 12  1  0
 12 13  1  0
 13 14  1  0
 14 15  1  0
 15 16  1  0
 16 17  1  0
 17 18  1  0
 18 19  1  0
 19 20  2  0
 19 21  2  0
 19 22  1  0
 22 23  1  0
 23 24  1  1
 23 25  1  0
 25 26  2  0
 25 27  1  0
  2 28  1  0
 28 29  1  0
 29 30  2  0
 30 31  1  0
 31 32  1  0
 32 33  1  0
 32 34  1  0
 32 35  1  0
 30 36  1  0
 36 37  1  0
 27  7  1  0
 37 28  2  0
M  END
$$$$
