
     RDKit          3D

 37 38  0  0  0  0  0  0  0  0999 V2000
  -11.5424  -40.7004   -9.4957 C   0  0  0  0  0  0  0  0  0  0  0  0
  -12.5670  -39.6414   -9.2731 C   0  0  2  0  0  0  0  0  0  0  0  0
  -13.6658  -40.1357   -8.4762 N   0  0  0  0  0  0  0  0  0  0  0  0
  -14.7726  -39.2053   -8.3862 C   0  0  0  0  0  0  0  0  0  0  0  0
  -15.8416  -39.6435   -7.4668 C   0  0  1  0  0  0  0  0  0  0  0  0
  -16.2216  -38.7715   -6.4837 O   0  0  0  0  0  0  0  0  0  0  0  0
  -17.0313  -40.2106   -8.2635 C   0  0  2  0  0  0  0  0  0  0  0  0
  -18.3437  -39.8204   -7.7034 C   0  0  0  0  0  0  0  0  0  0  0  0
  -19.2451  -39.1993   -8.7153 C   0  0  2  0  0  0  0  0  0  0  0  0
  -18.7419  -37.8825   -9.2630 C   0  0  0  0  0  0  0  0  0  0  0  0
  -20.6555  -38.9560   -8.2479 C   0  0  0  0  0  0  0  0  0  0  0  0
  -20.8449  -38.8734   -6.7781 C   0  0  0  0  0  0  0  0  0  0  0  0
  -21.4551  -40.1118   -6.1558 C   0  0  0  0  0  0  0  0  0  0  0  0
  -22.9496  -40.0386   -6.0268 C   0  0  0  0  0  0  0  0  0  0  0  0
  -23.5762  -41.0778   -6.8932 C   0  0  0  0  0  0  0  0  0  0  0  0
  -23.9381  -42.3424   -6.2099 C   0  0  0  0  0  0  0  0  0  0  0  0
  -22.7885  -43.2480   -5.8826 C   0  0  0  0  0  0  0  0  0  0  0  0
  -22.2008  -43.9055   -7.1256 C   0  0  0  0  0  0  0  0  0  0  0  0
  -20.6921  -44.6898   -6.6865 S   0  0  0  0  0  6  0  0  0  0  0  0
  -20.3818  -45.8751   -7.5869 O   0  0  0  0  0  0  0  0  0  0  0  0
  -20.7873  -45.2794   -5.2839 O   0  0  0  0  0  0  0  0  0  0  0  0
  -19.2952  -43.6343   -6.6995 C   0  0  0  0  0  0  0  0  0  0  0  0
  -18.7005  -43.3719   -8.0486 C   0  0  1  0  0  0  0  0  0  0  0  0
  -19.5740  -42.6973   -9.0316 C   0  0  0  0  0  0  0  0  0  0  0  0
  -17.3680  -42.7456   -7.8442 C   0  0  0  0  0  0  0  0  0  0  0  0
  -16.6814  -43.4096   -6.9693 O   0  0  0  0  0  0  0  0  0  0  0  0
  -16.7959  -41.6325   -8.4185 N   0  0  0  0  0  0  0  0  0  0  0  0
  -13.1346  -39.2409  -10.5883 C   0  0  0  0  0  0  0  0  0  0  0  0
  -12.9966  -38.0114  -11.1678 C   0  0  0  0  0  0  0  0  0  0  0  0
  -13.6737  -38.0643  -12.3735 C   0  0  0  0  0  0  0  0  0  0  0  0
  -13.7588  -36.9048  -13.3143 C   0  0  0  0  0  0  0  0  0  0  0  0
  -12.7602  -37.0489  -14.4316 C   0  0  0  0  0  0  0  0  0  0  0  0
  -11.3562  -37.1767  -13.9066 C   0  0  0  0  0  0  0  0  0  0  0  0
  -13.1428  -38.1984  -15.3296 C   0  0  0  0  0  0  0  0  0  0  0  0
  -12.8395  -35.7854  -15.2668 C   0  0  0  0  0  0  0  0  0  0  0  0
  -14.1679  -39.2544  -12.4748 O   0  0  0  0  0  0  0  0  0  0  0  0
  -13.8719  -39.9813  -11.4392 N   0  0  0  0  0  0  0  0  0  0  0  0
  2  1  1  6
  2  3  1  0
  3  4  1  0
  4  5  1  0
  5  6  1  6
  5  7  1  0
  7  8  1  1
  8  9  1  0
  9 10  1  1
  9 11  1  0
 11 12  1  0
 12 13  1  0
 13 14  1  0
 14 15  1  0
 15 16  1  0
 16 17  1  0
 17 18  1  0
 18 19  1  0
 19 20  2  0
 19 21  2  0
 19 22  1  0
 22 23  1  0
 23 24  1  6
 23 25  1  0
 25 26  2  0
 25 27  1  0
  2 28  1  0
 28 29  1  0
 29 30  2  0
 30 31  1  0
 31 32  1  0
 32 33  1  0
 32 34  1  0
 32 35  1  0
 30 36  1  0
 36 37  1  0
 27  7  1  0
 37 28  2  0
M  END
$$$$
