
     RDKit          3D

 37 38  0  0  0  0  0  0  0  0999 V2000
  -13.2655  -37.0958  -10.4182 C   0  0  0  0  0  0  0  0  0  0  0  0
  -14.1691  -38.2657  -10.2297 C   0  0  2  0  0  0  0  0  0  0  0  0
  -14.3024  -38.6042   -8.8318 N   0  0  0  0  0  0  0  0  0  0  0  0
  -15.1405  -39.7629   -8.6000 C   0  0  0  0  0  0  0  0  0  0  0  0
  -16.3051  -39.4881   -7.7348 C   0  0  1  0  0  0  0  0  0  0  0  0
  -16.4195  -38.2273   -7.2165 O   0  0  0  0  0  0  0  0  0  0  0  0
  -17.5985  -39.9837   -8.4080 C   0  0  2  0  0  0  0  0  0  0  0  0
  -18.7963  -39.8189   -7.5554 C   0  0  0  0  0  0  0  0  0  0  0  0
  -19.9000  -39.0876   -8.2405 C   0  0  2  0  0  0  0  0  0  0  0  0
  -19.5684  -37.6525   -8.5838 C   0  0  0  0  0  0  0  0  0  0  0  0
  -21.2051  -39.0563   -7.4903 C   0  0  0  0  0  0  0  0  0  0  0  0
  -21.1149  -39.2782   -6.0256 C   0  0  0  0  0  0  0  0  0  0  0  0
  -21.5407  -40.6599   -5.5753 C   0  0  0  0  0  0  0  0  0  0  0  0
  -22.9852  -40.7356   -5.1711 C   0  0  0  0  0  0  0  0  0  0  0  0
  -23.7190  -41.6329   -6.1089 C   0  0  0  0  0  0  0  0  0  0  0  0
  -23.8885  -43.0319   -5.6494 C   0  0  0  0  0  0  0  0  0  0  0  0
  -22.6590  -43.8872   -5.7259 C   0  0  0  0  0  0  0  0  0  0  0  0
  -22.2902  -44.2389   -7.1623 C   0  0  0  0  0  0  0  0  0  0  0  0
  -20.6927  -44.9681   -7.1698 S   0  0  0  0  0  6  0  0  0  0  0  0
  -20.5076  -45.9252   -8.3367 O   0  0  0  0  0  0  0  0  0  0  0  0
  -20.4934  -45.8262   -5.9257 O   0  0  0  0  0  0  0  0  0  0  0  0
  -19.3713  -43.8200   -7.2112 C   0  0  0  0  0  0  0  0  0  0  0  0
  -19.0562  -43.2514   -8.5603 C   0  0  1  0  0  0  0  0  0  0  0  0
  -20.1294  -42.4713   -9.2114 C   0  0  0  0  0  0  0  0  0  0  0  0
  -17.7379  -42.5706   -8.4701 C   0  0  0  0  0  0  0  0  0  0  0  0
  -16.8690  -43.3345   -7.8877 O   0  0  0  0  0  0  0  0  0  0  0  0
  -17.3348  -41.3237   -8.8934 N   0  0  0  0  0  0  0  0  0  0  0  0
  -13.5684  -39.4478  -10.9039 C   0  0  0  0  0  0  0  0  0  0  0  0
  -13.8725  -39.8785  -12.1643 C   0  0  0  0  0  0  0  0  0  0  0  0
  -13.0954  -40.9996  -12.3971 C   0  0  0  0  0  0  0  0  0  0  0  0
  -13.1373  -41.7713  -13.6775 C   0  0  0  0  0  0  0  0  0  0  0  0
  -11.9536  -41.4333  -14.5440 C   0  0  0  0  0  0  0  0  0  0  0  0
  -10.6723  -41.4327  -13.7558 C   0  0  0  0  0  0  0  0  0  0  0  0
  -11.8944  -42.3597  -15.7326 C   0  0  0  0  0  0  0  0  0  0  0  0
  -12.1791  -40.0331  -15.0813 C   0  0  0  0  0  0  0  0  0  0  0  0
  -12.3899  -41.1955  -11.3318 O   0  0  0  0  0  0  0  0  0  0  0  0
  -12.6404  -40.2993  -10.4249 N   0  0  0  0  0  0  0  0  0  0  0  0
  2  1  1  1
  2  3  1  0
  3  4  1  0
  4  5  1  0
  5  6  1  6
  5  7  1  0
  7  8  1  1
  8  9  1  0
  9 10  1  1
  9 11  1  0
 11 12  1  0
 12 13  1  0
 13 14  1  0
 14 15  1  0
 15 16  1  0
 16 17  1  0
 17 18  1  0
 18 19  1  0
 19 20  2  0
 19 21  2  0
 19 22  1  0
 22 23  1  0
 23 24  1  1
 23 25  1  0
 25 26  2  0
 25 27  1  0
  2 28  1  0
 28 29  1  0
 29 30  2  0
 30 31  1  0
 31 32  1  0
 32 33  1  0
 32 34  1  0
 32 35  1  0
 30 36  1  0
 36 37  1  0
 27  7  1  0
 37 28  2  0
M  END
$$$$
