
     RDKit          3D

 37 38  0  0  0  0  0  0  0  0999 V2000
  -20.0909  -37.8634   -5.2292 C   0  0  0  0  0  0  0  0  0  0  0  0
  -19.2686  -38.7700   -6.0793 C   0  0  2  0  0  0  0  0  0  0  0  0
  -18.1586  -38.0640   -6.6759 N   0  0  0  0  0  0  0  0  0  0  0  0
  -17.1007  -38.9413   -7.1338 C   0  0  0  0  0  0  0  0  0  0  0  0
  -15.9660  -38.2280   -7.7534 C   0  0  1  0  0  0  0  0  0  0  0  0
  -15.3532  -37.2564   -7.0106 O   0  0  0  0  0  0  0  0  0  0  0  0
  -14.9745  -39.2341   -8.3671 C   0  0  2  0  0  0  0  0  0  0  0  0
  -14.4267  -38.7893   -9.6674 C   0  0  0  0  0  0  0  0  0  0  0  0
  -12.9367  -38.8132   -9.7081 C   0  0  2  0  0  0  0  0  0  0  0  0
  -12.2785  -37.8448   -8.7510 C   0  0  0  0  0  0  0  0  0  0  0  0
  -12.3324  -38.5520  -11.0622 C   0  0  0  0  0  0  0  0  0  0  0  0
  -13.1963  -37.8279  -12.0277 C   0  0  0  0  0  0  0  0  0  0  0  0
  -13.8094  -38.7057  -13.0985 C   0  0  0  0  0  0  0  0  0  0  0  0
  -12.9978  -38.7595  -14.3610 C   0  0  0  0  0  0  0  0  0  0  0  0
  -12.4914  -40.1464  -14.5694 C   0  0  0  0  0  0  0  0  0  0  0  0
  -13.3021  -40.9898  -15.4795 C   0  0  0  0  0  0  0  0  0  0  0  0
  -14.5899  -41.5009  -14.9057 C   0  0  0  0  0  0  0  0  0  0  0  0
  -14.3638  -42.5802  -13.8536 C   0  0  0  0  0  0  0  0  0  0  0  0
  -15.8842  -42.8906  -13.0313 S   0  0  0  0  0  6  0  0  0  0  0  0
  -15.9625  -44.3104  -12.4931 O   0  0  0  0  0  0  0  0  0  0  0  0
  -17.0499  -42.7781  -14.0072 O   0  0  0  0  0  0  0  0  0  0  0  0
  -16.2267  -41.8010  -11.7041 C   0  0  0  0  0  0  0  0  0  0  0  0
  -15.5307  -42.1179  -10.4165 C   0  0  1  0  0  0  0  0  0  0  0  0
  -14.0535  -42.0781  -10.4412 C   0  0  0  0  0  0  0  0  0  0  0  0
  -16.1724  -41.3144   -9.3431 C   0  0  0  0  0  0  0  0  0  0  0  0
  -17.4620  -41.4166   -9.4059 O   0  0  0  0  0  0  0  0  0  0  0  0
  -15.6247  -40.5294   -8.3531 N   0  0  0  0  0  0  0  0  0  0  0  0
  -20.1111  -39.2718   -7.1977 C   0  0  0  0  0  0  0  0  0  0  0  0
  -20.6796  -40.5124   -7.2645 C   0  0  0  0  0  0  0  0  0  0  0  0
  -21.3723  -40.5659   -8.4612 C   0  0  0  0  0  0  0  0  0  0  0  0
  -22.1381  -41.7701   -8.9089 C   0  0  0  0  0  0  0  0  0  0  0  0
  -22.7204  -41.5536  -10.2802 C   0  0  0  0  0  0  0  0  0  0  0  0
  -21.6574  -41.1973  -11.2834 C   0  0  0  0  0  0  0  0  0  0  0  0
  -23.5259  -42.7568  -10.7020 C   0  0  0  0  0  0  0  0  0  0  0  0
  -23.6834  -40.3865  -10.1770 C   0  0  0  0  0  0  0  0  0  0  0  0
  -21.2082  -39.4227   -9.0417 O   0  0  0  0  0  0  0  0  0  0  0  0
  -20.4681  -38.6291   -8.3269 N   0  0  0  0  0  0  0  0  0  0  0  0
  2  1  1  1
  2  3  1  0
  3  4  1  0
  4  5  1  0
  5  6  1  1
  5  7  1  0
  7  8  1  6
  8  9  1  0
  9 10  1  1
  9 11  1  0
 11 12  1  0
 12 13  1  0
 13 14  1  0
 14 15  1  0
 15 16  1  0
 16 17  1  0
 17 18  1  0
 18 19  1  0
 19 20  2  0
 19 21  2  0
 19 22  1  0
 22 23  1  0
 23 24  1  6
 23 25  1  0
 25 26  2  0
 25 27  1  0
  2 28  1  0
 28 29  1  0
 29 30  2  0
 30 31  1  0
 31 32  1  0
 32 33  1  0
 32 34  1  0
 32 35  1  0
 30 36  1  0
 36 37  1  0
 27  7  1  0
 37 28  2  0
M  END
$$$$
