
     RDKit          3D

 37 38  0  0  0  0  0  0  0  0999 V2000
  -13.4918  -40.6781   -9.9498 C   0  0  0  0  0  0  0  0  0  0  0  0
  -14.2967  -39.4664  -10.2734 C   0  0  2  0  0  0  0  0  0  0  0  0
  -14.9655  -38.9536   -9.1003 N   0  0  0  0  0  0  0  0  0  0  0  0
  -14.4536  -39.5043   -7.8620 C   0  0  0  0  0  0  0  0  0  0  0  0
  -15.5031  -40.0473   -6.9766 C   0  0  1  0  0  0  0  0  0  0  0  0
  -15.7354  -39.3892   -5.8001 O   0  0  0  0  0  0  0  0  0  0  0  0
  -16.7888  -40.3214   -7.7790 C   0  0  2  0  0  0  0  0  0  0  0  0
  -18.0207  -40.1465   -6.9786 C   0  0  0  0  0  0  0  0  0  0  0  0
  -19.0037  -39.2274   -7.6199 C   0  0  2  0  0  0  0  0  0  0  0  0
  -18.5186  -37.8010   -7.7514 C   0  0  0  0  0  0  0  0  0  0  0  0
  -20.3476  -39.1605   -6.9444 C   0  0  0  0  0  0  0  0  0  0  0  0
  -20.3768  -39.5741   -5.5192 C   0  0  0  0  0  0  0  0  0  0  0  0
  -20.9576  -40.9520   -5.2799 C   0  0  0  0  0  0  0  0  0  0  0  0
  -22.4267  -40.9329   -4.9685 C   0  0  0  0  0  0  0  0  0  0  0  0
  -23.1758  -41.6261   -6.0555 C   0  0  0  0  0  0  0  0  0  0  0  0
  -23.5043  -43.0479   -5.7954 C   0  0  0  0  0  0  0  0  0  0  0  0
  -22.3567  -44.0056   -5.9176 C   0  0  0  0  0  0  0  0  0  0  0  0
  -21.9265  -44.2078   -7.3656 C   0  0  0  0  0  0  0  0  0  0  0  0
  -20.4062  -45.0868   -7.3827 S   0  0  0  0  0  6  0  0  0  0  0  0
  -20.2326  -45.9020   -8.6543 O   0  0  0  0  0  0  0  0  0  0  0  0
  -20.3710  -46.1111   -6.2543 O   0  0  0  0  0  0  0  0  0  0  0  0
  -18.9847  -44.0810   -7.1996 C   0  0  0  0  0  0  0  0  0  0  0  0
  -18.5286  -43.3807   -8.4422 C   0  0  1  0  0  0  0  0  0  0  0  0
  -19.4791  -42.4207   -9.0416 C   0  0  0  0  0  0  0  0  0  0  0  0
  -17.1621  -42.8525   -8.1909 C   0  0  0  0  0  0  0  0  0  0  0  0
  -16.4085  -43.7672   -7.6684 O   0  0  0  0  0  0  0  0  0  0  0  0
  -16.6181  -41.6089   -8.4226 N   0  0  0  0  0  0  0  0  0  0  0  0
  -15.3584  -39.8426  -11.2448 C   0  0  0  0  0  0  0  0  0  0  0  0
  -16.0235  -38.9754  -12.0648 C   0  0  0  0  0  0  0  0  0  0  0  0
  -16.9196  -39.7331  -12.7980 C   0  0  0  0  0  0  0  0  0  0  0  0
  -17.8434  -39.1462  -13.8174 C   0  0  0  0  0  0  0  0  0  0  0  0
  -19.0289  -38.4978  -13.1536 C   0  0  0  0  0  0  0  0  0  0  0  0
  -19.9619  -39.5205  -12.5648 C   0  0  0  0  0  0  0  0  0  0  0  0
  -18.5686  -37.4875  -12.1330 C   0  0  0  0  0  0  0  0  0  0  0  0
  -19.7802  -37.7353  -14.2280 C   0  0  0  0  0  0  0  0  0  0  0  0
  -16.7732  -40.9599  -12.4181 O   0  0  0  0  0  0  0  0  0  0  0  0
  -15.8595  -41.0671  -11.5005 N   0  0  0  0  0  0  0  0  0  0  0  0
  2  1  1  1
  2  3  1  0
  3  4  1  0
  4  5  1  0
  5  6  1  1
  5  7  1  0
  7  8  1  1
  8  9  1  0
  9 10  1  1
  9 11  1  0
 11 12  1  0
 12 13  1  0
 13 14  1  0
 14 15  1  0
 15 16  1  0
 16 17  1  0
 17 18  1  0
 18 19  1  0
 19 20  2  0
 19 21  2  0
 19 22  1  0
 22 23  1  0
 23 24  1  1
 23 25  1  0
 25 26  2  0
 25 27  1  0
  2 28  1  0
 28 29  1  0
 29 30  2  0
 30 31  1  0
 31 32  1  0
 32 33  1  0
 32 34  1  0
 32 35  1  0
 30 36  1  0
 36 37  1  0
 27  7  1  0
 37 28  2  0
M  END
$$$$
