
     RDKit          3D

 37 38  0  0  0  0  0  0  0  0999 V2000
  -13.5881  -41.3550  -11.4984 C   0  0  0  0  0  0  0  0  0  0  0  0
  -13.8657  -40.0746  -10.7882 C   0  0  2  0  0  0  0  0  0  0  0  0
  -15.0831  -40.1581  -10.0152 N   0  0  0  0  0  0  0  0  0  0  0  0
  -15.0586  -39.3435   -8.8176 C   0  0  0  0  0  0  0  0  0  0  0  0
  -15.9543  -39.8322   -7.7503 C   0  0  1  0  0  0  0  0  0  0  0  0
  -16.0956  -39.0465   -6.6395 O   0  0  0  0  0  0  0  0  0  0  0  0
  -17.3010  -40.2807   -8.3477 C   0  0  2  0  0  0  0  0  0  0  0  0
  -18.4610  -39.9083   -7.5084 C   0  0  0  0  0  0  0  0  0  0  0  0
  -19.5079  -39.1624   -8.2634 C   0  0  2  0  0  0  0  0  0  0  0  0
  -19.0547  -37.8136   -8.7759 C   0  0  0  0  0  0  0  0  0  0  0  0
  -20.7889  -38.9239   -7.5090 C   0  0  0  0  0  0  0  0  0  0  0  0
  -20.6888  -38.9822   -6.0293 C   0  0  0  0  0  0  0  0  0  0  0  0
  -21.2287  -40.2572   -5.4160 C   0  0  0  0  0  0  0  0  0  0  0  0
  -22.6653  -40.1516   -4.9912 C   0  0  0  0  0  0  0  0  0  0  0  0
  -23.4967  -41.0799   -5.8100 C   0  0  0  0  0  0  0  0  0  0  0  0
  -23.7828  -42.3945   -5.1880 C   0  0  0  0  0  0  0  0  0  0  0  0
  -22.6377  -43.3628   -5.1761 C   0  0  0  0  0  0  0  0  0  0  0  0
  -22.3322  -43.9111   -6.5650 C   0  0  0  0  0  0  0  0  0  0  0  0
  -20.8078  -44.7808   -6.5029 S   0  0  0  0  0  6  0  0  0  0  0  0
  -20.7345  -45.8795   -7.5514 O   0  0  0  0  0  0  0  0  0  0  0  0
  -20.6614  -45.5038   -5.1689 O   0  0  0  0  0  0  0  0  0  0  0  0
  -19.3890  -43.7723   -6.6919 C   0  0  0  0  0  0  0  0  0  0  0  0
  -19.0516  -43.3953   -8.1014 C   0  0  1  0  0  0  0  0  0  0  0  0
  -20.0630  -42.6000   -8.8287 C   0  0  0  0  0  0  0  0  0  0  0  0
  -17.6755  -42.8334   -8.1048 C   0  0  0  0  0  0  0  0  0  0  0  0
  -16.8675  -43.6017   -7.4456 O   0  0  0  0  0  0  0  0  0  0  0  0
  -17.1700  -41.6866   -8.6753 N   0  0  0  0  0  0  0  0  0  0  0  0
  -14.0693  -39.0018  -11.7982 C   0  0  0  0  0  0  0  0  0  0  0  0
  -13.3812  -37.8226  -11.8490 C   0  0  0  0  0  0  0  0  0  0  0  0
  -13.8799  -37.1202  -12.9320 C   0  0  0  0  0  0  0  0  0  0  0  0
  -13.3816  -35.7667  -13.3276 C   0  0  0  0  0  0  0  0  0  0  0  0
  -14.3313  -34.6925  -12.8689 C   0  0  0  0  0  0  0  0  0  0  0  0
  -15.7014  -34.8738  -13.4632 C   0  0  0  0  0  0  0  0  0  0  0  0
  -14.3640  -34.6322  -11.3623 C   0  0  0  0  0  0  0  0  0  0  0  0
  -13.7760  -33.3679  -13.3559 C   0  0  0  0  0  0  0  0  0  0  0  0
  -14.7980  -37.8564  -13.4667 O   0  0  0  0  0  0  0  0  0  0  0  0
  -14.9409  -38.9776  -12.8256 N   0  0  0  0  0  0  0  0  0  0  0  0
  2  1  1  6
  2  3  1  0
  3  4  1  0
  4  5  1  0
  5  6  1  1
  5  7  1  0
  7  8  1  1
  8  9  1  0
  9 10  1  1
  9 11  1  0
 11 12  1  0
 12 13  1  0
 13 14  1  0
 14 15  1  0
 15 16  1  0
 16 17  1  0
 17 18  1  0
 18 19  1  0
 19 20  2  0
 19 21  2  0
 19 22  1  0
 22 23  1  0
 23 24  1  1
 23 25  1  0
 25 26  2  0
 25 27  1  0
  2 28  1  0
 28 29  1  0
 29 30  2  0
 30 31  1  0
 31 32  1  0
 32 33  1  0
 32 34  1  0
 32 35  1  0
 30 36  1  0
 36 37  1  0
 27  7  1  0
 37 28  2  0
M  END
$$$$
