
     RDKit          3D

 37 38  0  0  0  0  0  0  0  0999 V2000
  -19.5697  -37.1411   -6.9985 C   0  0  0  0  0  0  0  0  0  0  0  0
  -19.5189  -38.6221   -6.8408 C   0  0  2  0  0  0  0  0  0  0  0  0
  -18.1902  -39.1299   -7.0920 N   0  0  0  0  0  0  0  0  0  0  0  0
  -17.2664  -38.1144   -7.5545 C   0  0  0  0  0  0  0  0  0  0  0  0
  -16.6095  -38.4495   -8.8337 C   0  0  1  0  0  0  0  0  0  0  0  0
  -16.3147  -37.4150   -9.6788 O   0  0  0  0  0  0  0  0  0  0  0  0
  -15.4139  -39.3890   -8.5895 C   0  0  2  0  0  0  0  0  0  0  0  0
  -14.5989  -39.6184   -9.8027 C   0  0  0  0  0  0  0  0  0  0  0  0
  -13.1495  -39.3429   -9.5888 C   0  0  2  0  0  0  0  0  0  0  0  0
  -12.8365  -37.8962   -9.2785 C   0  0  0  0  0  0  0  0  0  0  0  0
  -12.2508  -39.7387  -10.7301 C   0  0  0  0  0  0  0  0  0  0  0  0
  -12.9050  -39.8596  -12.0569 C   0  0  0  0  0  0  0  0  0  0  0  0
  -13.1539  -41.2850  -12.5035 C   0  0  0  0  0  0  0  0  0  0  0  0
  -12.0512  -41.8426  -13.3572 C   0  0  0  0  0  0  0  0  0  0  0  0
  -11.3921  -42.9740  -12.6440 C   0  0  0  0  0  0  0  0  0  0  0  0
  -11.8746  -44.3261  -13.0126 C   0  0  0  0  0  0  0  0  0  0  0  0
  -13.2163  -44.7030  -12.4587 C   0  0  0  0  0  0  0  0  0  0  0  0
  -13.1687  -44.9589  -10.9571 C   0  0  0  0  0  0  0  0  0  0  0  0
  -14.8139  -45.0872  -10.3564 S   0  0  0  0  0  6  0  0  0  0  0  0
  -14.9024  -45.9638   -9.1172 O   0  0  0  0  0  0  0  0  0  0  0  0
  -15.7041  -45.7746  -11.3853 O   0  0  0  0  0  0  0  0  0  0  0  0
  -15.5688  -43.5539   -9.9759 C   0  0  0  0  0  0  0  0  0  0  0  0
  -15.1919  -42.9628   -8.6525 C   0  0  1  0  0  0  0  0  0  0  0  0
  -13.7643  -42.6297   -8.4646 C   0  0  0  0  0  0  0  0  0  0  0  0
  -16.1476  -41.8634   -8.3568 C   0  0  0  0  0  0  0  0  0  0  0  0
  -17.3671  -42.2549   -8.5496 O   0  0  0  0  0  0  0  0  0  0  0  0
  -15.9337  -40.5712   -7.9316 N   0  0  0  0  0  0  0  0  0  0  0  0
  -20.4156  -39.2420   -7.8529 C   0  0  0  0  0  0  0  0  0  0  0  0
  -21.4571  -40.0824   -7.5777 C   0  0  0  0  0  0  0  0  0  0  0  0
  -22.0202  -40.4255   -8.7943 C   0  0  0  0  0  0  0  0  0  0  0  0
  -23.1970  -41.3398   -8.9210 C   0  0  0  0  0  0  0  0  0  0  0  0
  -24.4847  -40.5814   -8.7391 C   0  0  0  0  0  0  0  0  0  0  0  0
  -24.5982  -39.4408   -9.7135 C   0  0  0  0  0  0  0  0  0  0  0  0
  -25.6609  -41.5219   -8.8186 C   0  0  0  0  0  0  0  0  0  0  0  0
  -24.4689  -40.0052   -7.3363 C   0  0  0  0  0  0  0  0  0  0  0  0
  -21.3394  -39.8160   -9.7086 O   0  0  0  0  0  0  0  0  0  0  0  0
  -20.3812  -39.1057   -9.1930 N   0  0  0  0  0  0  0  0  0  0  0  0
  2  1  1  6
  2  3  1  0
  3  4  1  0
  4  5  1  0
  5  6  1  1
  5  7  1  0
  7  8  1  6
  8  9  1  0
  9 10  1  6
  9 11  1  0
 11 12  1  0
 12 13  1  0
 13 14  1  0
 14 15  1  0
 15 16  1  0
 16 17  1  0
 17 18  1  0
 18 19  1  0
 19 20  2  0
 19 21  2  0
 19 22  1  0
 22 23  1  0
 23 24  1  6
 23 25  1  0
 25 26  2  0
 25 27  1  0
  2 28  1  0
 28 29  1  0
 29 30  2  0
 30 31  1  0
 31 32  1  0
 32 33  1  0
 32 34  1  0
 32 35  1  0
 30 36  1  0
 36 37  1  0
 27  7  1  0
 37 28  2  0
M  END
$$$$
