
     RDKit          3D

 37 38  0  0  0  0  0  0  0  0999 V2000
  -12.3428  -40.6848  -10.4333 C   0  0  0  0  0  0  0  0  0  0  0  0
  -13.1423  -39.6130   -9.7753 C   0  0  2  0  0  0  0  0  0  0  0  0
  -14.2357  -40.1692   -9.0127 N   0  0  0  0  0  0  0  0  0  0  0  0
  -15.0670  -39.1626   -8.3848 C   0  0  0  0  0  0  0  0  0  0  0  0
  -16.0139  -39.7106   -7.3931 C   0  0  1  0  0  0  0  0  0  0  0  0
  -16.2979  -38.9372   -6.3011 O   0  0  0  0  0  0  0  0  0  0  0  0
  -17.2742  -40.2458   -8.0980 C   0  0  2  0  0  0  0  0  0  0  0  0
  -18.5181  -39.9830   -7.3414 C   0  0  0  0  0  0  0  0  0  0  0  0
  -19.5615  -39.3011   -8.1591 C   0  0  2  0  0  0  0  0  0  0  0  0
  -19.1782  -37.9098   -8.6113 C   0  0  0  0  0  0  0  0  0  0  0  0
  -20.9091  -39.1790   -7.4986 C   0  0  0  0  0  0  0  0  0  0  0  0
  -20.9137  -39.2650   -6.0169 C   0  0  0  0  0  0  0  0  0  0  0  0
  -21.3964  -40.5917   -5.4692 C   0  0  0  0  0  0  0  0  0  0  0  0
  -22.8641  -40.6060   -5.1515 C   0  0  0  0  0  0  0  0  0  0  0  0
  -23.5586  -41.5750   -6.0471 C   0  0  0  0  0  0  0  0  0  0  0  0
  -23.7865  -42.9222   -5.4725 C   0  0  0  0  0  0  0  0  0  0  0  0
  -22.5736  -43.8005   -5.3924 C   0  0  0  0  0  0  0  0  0  0  0  0
  -22.1253  -44.2904   -6.7642 C   0  0  0  0  0  0  0  0  0  0  0  0
  -20.5466  -45.0428   -6.6039 S   0  0  0  0  0  6  0  0  0  0  0  0
  -20.3114  -46.1073   -7.6638 O   0  0  0  0  0  0  0  0  0  0  0  0
  -20.4428  -45.7843   -5.2761 O   0  0  0  0  0  0  0  0  0  0  0  0
  -19.2005  -43.9249   -6.6675 C   0  0  0  0  0  0  0  0  0  0  0  0
  -18.7909  -43.4896   -8.0405 C   0  0  1  0  0  0  0  0  0  0  0  0
  -19.8049  -42.7564   -8.8270 C   0  0  0  0  0  0  0  0  0  0  0  0
  -17.4660  -42.8247   -7.9305 C   0  0  0  0  0  0  0  0  0  0  0  0
  -16.6513  -43.5449   -7.2267 O   0  0  0  0  0  0  0  0  0  0  0  0
  -17.0106  -41.6294   -8.4404 N   0  0  0  0  0  0  0  0  0  0  0  0
  -13.7451  -38.7514  -10.8274 C   0  0  0  0  0  0  0  0  0  0  0  0
  -13.2980  -37.5112  -11.1860 C   0  0  0  0  0  0  0  0  0  0  0  0
  -14.1366  -37.0642  -12.1918 C   0  0  0  0  0  0  0  0  0  0  0  0
  -13.9778  -35.7342  -12.8572 C   0  0  0  0  0  0  0  0  0  0  0  0
  -14.6005  -34.6437  -12.0268 C   0  0  0  0  0  0  0  0  0  0  0  0
  -14.0800  -34.6566  -10.6154 C   0  0  0  0  0  0  0  0  0  0  0  0
  -14.4109  -33.3051  -12.6950 C   0  0  0  0  0  0  0  0  0  0  0  0
  -16.0924  -34.9127  -11.9832 C   0  0  0  0  0  0  0  0  0  0  0  0
  -15.0098  -37.9955  -12.3943 O   0  0  0  0  0  0  0  0  0  0  0  0
  -14.8130  -39.0104  -11.6072 N   0  0  0  0  0  0  0  0  0  0  0  0
  2  1  1  6
  2  3  1  0
  3  4  1  0
  4  5  1  0
  5  6  1  1
  5  7  1  0
  7  8  1  1
  8  9  1  0
  9 10  1  1
  9 11  1  0
 11 12  1  0
 12 13  1  0
 13 14  1  0
 14 15  1  0
 15 16  1  0
 16 17  1  0
 17 18  1  0
 18 19  1  0
 19 20  2  0
 19 21  2  0
 19 22  1  0
 22 23  1  0
 23 24  1  1
 23 25  1  0
 25 26  2  0
 25 27  1  0
  2 28  1  0
 28 29  1  0
 29 30  2  0
 30 31  1  0
 31 32  1  0
 32 33  1  0
 32 34  1  0
 32 35  1  0
 30 36  1  0
 36 37  1  0
 27  7  1  0
 37 28  2  0
M  END
$$$$
