
     RDKit          3D

 37 38  0  0  0  0  0  0  0  0999 V2000
  -15.0930  -41.2564  -10.7089 C   0  0  0  0  0  0  0  0  0  0  0  0
  -14.1738  -40.1635  -10.2830 C   0  0  2  0  0  0  0  0  0  0  0  0
  -14.7146  -39.4323   -9.1608 N   0  0  0  0  0  0  0  0  0  0  0  0
  -14.9585  -40.2630   -7.9992 C   0  0  0  0  0  0  0  0  0  0  0  0
  -16.1980  -39.9188   -7.2745 C   0  0  1  0  0  0  0  0  0  0  0  0
  -16.3220  -38.6363   -6.8150 O   0  0  0  0  0  0  0  0  0  0  0  0
  -17.4293  -40.3981   -8.0657 C   0  0  2  0  0  0  0  0  0  0  0  0
  -18.6848  -40.3235   -7.2868 C   0  0  0  0  0  0  0  0  0  0  0  0
  -19.7623  -39.5738   -7.9934 C   0  0  2  0  0  0  0  0  0  0  0  0
  -19.4515  -38.1104   -8.2147 C   0  0  0  0  0  0  0  0  0  0  0  0
  -21.1142  -39.6277   -7.3327 C   0  0  0  0  0  0  0  0  0  0  0  0
  -21.1138  -39.9495   -5.8837 C   0  0  0  0  0  0  0  0  0  0  0  0
  -21.5272  -41.3696   -5.5586 C   0  0  0  0  0  0  0  0  0  0  0  0
  -22.9922  -41.5095   -5.2590 C   0  0  0  0  0  0  0  0  0  0  0  0
  -23.6359  -42.3569   -6.3033 C   0  0  0  0  0  0  0  0  0  0  0  0
  -23.7938  -43.7885   -5.9529 C   0  0  0  0  0  0  0  0  0  0  0  0
  -22.5371  -44.6053   -6.0044 C   0  0  0  0  0  0  0  0  0  0  0  0
  -22.0645  -44.8461   -7.4333 C   0  0  0  0  0  0  0  0  0  0  0  0
  -20.4491  -45.5329   -7.3826 S   0  0  0  0  0  6  0  0  0  0  0  0
  -20.1595  -46.4009   -8.5969 O   0  0  0  0  0  0  0  0  0  0  0  0
  -20.3066  -46.4709   -6.1894 O   0  0  0  0  0  0  0  0  0  0  0  0
  -19.1624  -44.3520   -7.2562 C   0  0  0  0  0  0  0  0  0  0  0  0
  -18.7763  -43.6825   -8.5389 C   0  0  1  0  0  0  0  0  0  0  0  0
  -19.8271  -42.8857   -9.2062 C   0  0  0  0  0  0  0  0  0  0  0  0
  -17.4876  -42.9770   -8.3136 C   0  0  0  0  0  0  0  0  0  0  0  0
  -16.6365  -43.7579   -7.7274 O   0  0  0  0  0  0  0  0  0  0  0  0
  -17.0947  -41.6939   -8.6226 N   0  0  0  0  0  0  0  0  0  0  0  0
  -14.0330  -39.1935  -11.4018 C   0  0  0  0  0  0  0  0  0  0  0  0
  -12.9899  -38.3277  -11.5713 C   0  0  0  0  0  0  0  0  0  0  0  0
  -13.2537  -37.6121  -12.7259 C   0  0  0  0  0  0  0  0  0  0  0  0
  -12.3402  -36.5541  -13.2581 C   0  0  0  0  0  0  0  0  0  0  0  0
  -12.8701  -35.1814  -12.9400 C   0  0  0  0  0  0  0  0  0  0  0  0
  -13.1254  -35.0138  -11.4669 C   0  0  0  0  0  0  0  0  0  0  0  0
  -11.9429  -34.1240  -13.4846 C   0  0  0  0  0  0  0  0  0  0  0  0
  -14.1919  -35.0332  -13.6688 C   0  0  0  0  0  0  0  0  0  0  0  0
  -14.3808  -38.0453  -13.1871 O   0  0  0  0  0  0  0  0  0  0  0  0
  -14.8745  -38.9810  -12.4326 N   0  0  0  0  0  0  0  0  0  0  0  0
  2  1  1  6
  2  3  1  0
  3  4  1  0
  4  5  1  0
  5  6  1  6
  5  7  1  0
  7  8  1  1
  8  9  1  0
  9 10  1  1
  9 11  1  0
 11 12  1  0
 12 13  1  0
 13 14  1  0
 14 15  1  0
 15 16  1  0
 16 17  1  0
 17 18  1  0
 18 19  1  0
 19 20  2  0
 19 21  2  0
 19 22  1  0
 22 23  1  0
 23 24  1  1
 23 25  1  0
 25 26  2  0
 25 27  1  0
  2 28  1  0
 28 29  1  0
 29 30  2  0
 30 31  1  0
 31 32  1  0
 32 33  1  0
 32 34  1  0
 32 35  1  0
 30 36  1  0
 36 37  1  0
 27  7  1  0
 37 28  2  0
M  END
$$$$
