
     RDKit          3D

 37 40  0  0  0  0  0  0  0  0999 V2000
  -17.1766  -41.8985   -5.9990 C   0  0  0  0  0  0  0  0  0  0  0  0
  -18.3138  -42.0766   -6.9620 C   0  0  1  0  0  0  0  0  0  0  0  0
  -18.2564  -41.2326   -8.1749 C   0  0  0  0  0  0  0  0  0  0  0  0
  -19.0659  -41.6737   -9.0908 O   0  0  0  0  0  0  0  0  0  0  0  0
  -17.5321  -40.1129   -8.5005 N   0  0  0  0  0  0  0  0  0  0  0  0
  -17.5485  -38.7422   -8.0523 C   0  0  1  0  0  0  0  0  0  0  0  0
  -18.4861  -38.4007   -6.9599 C   0  0  0  0  0  0  0  0  0  0  0  0
  -19.9251  -38.6644   -7.2373 C   0  0  0  0  0  0  0  0  0  0  0  0
  -20.8531  -39.4684   -6.6348 C   0  0  0  0  0  0  0  0  0  0  0  0
  -22.1253  -39.4818   -7.1494 C   0  0  0  0  0  0  0  0  0  0  0  0
  -23.3725  -40.1999   -6.7820 C   0  0  0  0  0  0  0  0  0  0  0  0
  -23.7046  -41.1035   -7.9941 C   0  0  0  0  0  0  0  0  0  0  0  0
  -22.4875  -41.8134   -8.5169 C   0  0  0  0  0  0  0  0  0  0  0  0
  -22.6876  -43.2942   -8.5677 C   0  0  0  0  0  0  0  0  0  0  0  0
  -21.4020  -44.0925   -8.5892 C   0  0  0  0  0  0  0  0  0  0  0  0
  -20.7399  -44.0025   -7.2352 C   0  0  0  0  0  0  0  0  0  0  0  0
  -19.3076  -44.3930   -7.3002 C   0  0  0  0  0  0  0  0  0  0  0  0
  -19.0775  -45.6433   -7.3264 O   0  0  0  0  0  0  0  0  0  0  0  0
  -18.2277  -43.5089   -7.3340 N   0  0  0  0  0  0  0  0  0  0  0  0
  -16.9123  -43.9557   -7.7484 C   0  0  0  0  0  0  0  0  0  0  0  0
  -22.4424  -38.6723   -8.2784 C   0  0  0  0  0  0  0  0  0  0  0  0
  -21.5456  -37.8597   -8.9049 C   0  0  0  0  0  0  0  0  0  0  0  0
  -20.2964  -37.8751   -8.3644 C   0  0  0  0  0  0  0  0  0  0  0  0
  -16.1151  -38.4160   -7.6760 C   0  0  2  0  0  0  0  0  0  0  0  0
  -15.9783  -37.2988   -6.8862 O   0  0  0  0  0  0  0  0  0  0  0  0
  -15.2966  -38.3365   -8.9422 C   0  0  0  0  0  0  0  0  0  0  0  0
  -14.4743  -39.4868   -9.1916 N   0  0  0  0  0  0  0  0  0  0  0  0
  -14.7994  -40.0861  -10.4420 C   0  0  0  0  0  0  0  0  0  0  0  0
  -14.1704  -39.2329  -11.5149 C   0  0  0  0  0  0  0  0  0  0  0  0
  -13.5143  -38.0708  -11.1773 C   0  0  0  0  0  0  0  0  0  0  0  0
  -12.9195  -37.2584  -12.1260 C   0  0  0  0  0  0  0  0  0  0  0  0
  -13.0283  -37.6929  -13.4342 C   0  0  0  0  0  0  0  0  0  0  0  0
  -13.6708  -38.8317  -13.7699 N   0  0  0  0  0  0  0  0  0  0  0  0
  -14.2491  -39.6180  -12.8307 C   0  0  0  0  0  0  0  0  0  0  0  0
  -12.2229  -36.0008  -11.7440 C   0  0  0  0  0  0  0  0  0  0  0  0
  -10.8308  -36.1110  -11.1146 C   0  0  0  0  0  0  0  0  0  0  0  0
  -12.0115  -35.7602  -10.2718 C   0  0  0  0  0  0  0  0  0  0  0  0
  2  1  1  1
  2  3  1  0
  3  4  2  0
  3  5  1  0
  5  6  1  0
  6  7  1  1
  7  8  1  0
  8  9  1  0
  9 10  2  0
 10 11  1  0
 11 12  1  0
 12 13  1  0
 13 14  1  0
 14 15  1  0
 15 16  1  0
 16 17  1  0
 17 18  2  0
 17 19  1  0
 19 20  1  0
 10 21  1  0
 21 22  2  0
 22 23  1  0
  6 24  1  0
 24 25  1  6
 24 26  1  0
 26 27  1  0
 27 28  1  0
 28 29  1  0
 29 30  2  0
 30 31  1  0
 31 32  2  0
 32 33  1  0
 33 34  2  0
 31 35  1  0
 35 36  1  0
 36 37  1  0
 19  2  1  0
 23  8  2  0
 34 29  1  0
 37 35  1  0
M  END
$$$$
