
     RDKit          3D

 37 40  0  0  0  0  0  0  0  0999 V2000
  -17.5833  -42.2499   -5.7974 C   0  0  0  0  0  0  0  0  0  0  0  0
  -18.7555  -42.3333   -6.7310 C   0  0  1  0  0  0  0  0  0  0  0  0
  -18.6249  -41.5593   -7.9842 C   0  0  0  0  0  0  0  0  0  0  0  0
  -19.5023  -41.9411   -8.8636 O   0  0  0  0  0  0  0  0  0  0  0  0
  -17.7791  -40.5517   -8.3762 N   0  0  0  0  0  0  0  0  0  0  0  0
  -17.6206  -39.1699   -7.9949 C   0  0  1  0  0  0  0  0  0  0  0  0
  -18.4852  -38.6674   -6.9045 C   0  0  0  0  0  0  0  0  0  0  0  0
  -19.9514  -38.7676   -7.1440 C   0  0  0  0  0  0  0  0  0  0  0  0
  -20.9552  -39.4247   -6.4873 C   0  0  0  0  0  0  0  0  0  0  0  0
  -22.2312  -39.3078   -6.9787 C   0  0  0  0  0  0  0  0  0  0  0  0
  -23.5469  -39.8520   -6.5555 C   0  0  0  0  0  0  0  0  0  0  0  0
  -24.0127  -40.7637   -7.7164 C   0  0  0  0  0  0  0  0  0  0  0  0
  -22.9019  -41.6391   -8.2249 C   0  0  0  0  0  0  0  0  0  0  0  0
  -23.2794  -43.0856   -8.2003 C   0  0  0  0  0  0  0  0  0  0  0  0
  -22.0997  -44.0337   -8.2050 C   0  0  0  0  0  0  0  0  0  0  0  0
  -21.4008  -43.9621   -6.8686 C   0  0  0  0  0  0  0  0  0  0  0  0
  -20.0276  -44.5256   -6.9392 C   0  0  0  0  0  0  0  0  0  0  0  0
  -19.9499  -45.7943   -6.9085 O   0  0  0  0  0  0  0  0  0  0  0  0
  -18.8504  -43.7811   -7.0344 N   0  0  0  0  0  0  0  0  0  0  0  0
  -17.6080  -44.4025   -7.4491 C   0  0  0  0  0  0  0  0  0  0  0  0
  -22.4746  -38.5189   -8.1401 C   0  0  0  0  0  0  0  0  0  0  0  0
  -21.5014  -37.8505   -8.8206 C   0  0  0  0  0  0  0  0  0  0  0  0
  -20.2510  -37.9920   -8.3016 C   0  0  0  0  0  0  0  0  0  0  0  0
  -16.1502  -39.0025   -7.6596 C   0  0  2  0  0  0  0  0  0  0  0  0
  -15.7841  -37.7136   -7.3505 O   0  0  0  0  0  0  0  0  0  0  0  0
  -15.3348  -39.5832   -8.7899 C   0  0  0  0  0  0  0  0  0  0  0  0
  -15.2402  -41.0158   -8.7794 N   0  0  0  0  0  0  0  0  0  0  0  0
  -14.0242  -41.4521   -9.3790 C   0  0  0  0  0  0  0  0  0  0  0  0
  -14.1654  -41.2376  -10.8652 C   0  0  0  0  0  0  0  0  0  0  0  0
  -13.4720  -40.2233  -11.4858 C   0  0  0  0  0  0  0  0  0  0  0  0
  -13.5672  -39.9907  -12.8461 C   0  0  0  0  0  0  0  0  0  0  0  0
  -14.4048  -40.8454  -13.5389 C   0  0  0  0  0  0  0  0  0  0  0  0
  -15.0869  -41.8414  -12.9345 N   0  0  0  0  0  0  0  0  0  0  0  0
  -14.9845  -42.0580  -11.6012 C   0  0  0  0  0  0  0  0  0  0  0  0
  -12.8178  -38.8836  -13.4985 C   0  0  0  0  0  0  0  0  0  0  0  0
  -13.5200  -38.0941  -14.6075 C   0  0  0  0  0  0  0  0  0  0  0  0
  -12.4462  -39.0738  -14.9461 C   0  0  0  0  0  0  0  0  0  0  0  0
  2  1  1  1
  2  3  1  0
  3  4  2  0
  3  5  1  0
  5  6  1  0
  6  7  1  1
  7  8  1  0
  8  9  1  0
  9 10  2  0
 10 11  1  0
 11 12  1  0
 12 13  1  0
 13 14  1  0
 14 15  1  0
 15 16  1  0
 16 17  1  0
 17 18  2  0
 17 19  1  0
 19 20  1  0
 10 21  1  0
 21 22  2  0
 22 23  1  0
  6 24  1  0
 24 25  1  6
 24 26  1  0
 26 27  1  0
 27 28  1  0
 28 29  1  0
 29 30  2  0
 30 31  1  0
 31 32  2  0
 32 33  1  0
 33 34  2  0
 31 35  1  0
 35 36  1  0
 36 37  1  0
 19  2  1  0
 23  8  2  0
 34 29  1  0
 37 35  1  0
M  END
$$$$
