
     RDKit          3D

 37 40  0  0  0  0  0  0  0  0999 V2000
  -17.9177  -40.4718   -9.8177 C   0  0  0  0  0  0  0  0  0  0  0  0
  -16.5362  -40.7788  -10.3174 C   0  0  1  0  0  0  0  0  0  0  0  0
  -15.4301  -40.2601   -9.4840 C   0  0  0  0  0  0  0  0  0  0  0  0
  -14.3060  -40.8380   -9.7859 O   0  0  0  0  0  0  0  0  0  0  0  0
  -15.3739  -39.3181   -8.4872 N   0  0  0  0  0  0  0  0  0  0  0  0
  -15.5185  -37.8836   -8.4532 C   0  0  1  0  0  0  0  0  0  0  0  0
  -15.8624  -37.2099   -9.7248 C   0  0  0  0  0  0  0  0  0  0  0  0
  -14.8989  -37.4085  -10.8425 C   0  0  0  0  0  0  0  0  0  0  0  0
  -15.0243  -37.9611  -12.0874 C   0  0  0  0  0  0  0  0  0  0  0  0
  -13.9149  -37.9891  -12.8947 C   0  0  0  0  0  0  0  0  0  0  0  0
  -13.6601  -38.4880  -14.2703 C   0  0  0  0  0  0  0  0  0  0  0  0
  -12.6217  -39.6253  -14.1146 C   0  0  0  0  0  0  0  0  0  0  0  0
  -12.9580  -40.5419  -12.9720 C   0  0  0  0  0  0  0  0  0  0  0  0
  -13.0428  -41.9685  -13.4112 C   0  0  0  0  0  0  0  0  0  0  0  0
  -13.8447  -42.8555  -12.4834 C   0  0  0  0  0  0  0  0  0  0  0  0
  -15.3074  -42.4988  -12.5980 C   0  0  0  0  0  0  0  0  0  0  0  0
  -16.0878  -43.0146  -11.4433 C   0  0  0  0  0  0  0  0  0  0  0  0
  -16.3883  -44.2492  -11.4883 O   0  0  0  0  0  0  0  0  0  0  0  0
  -16.5019  -42.2605  -10.3439 N   0  0  0  0  0  0  0  0  0  0  0  0
  -16.9392  -42.9049   -9.1212 C   0  0  0  0  0  0  0  0  0  0  0  0
  -12.6817  -37.4516  -12.4247 C   0  0  0  0  0  0  0  0  0  0  0  0
  -12.5183  -36.8938  -11.1921 C   0  0  0  0  0  0  0  0  0  0  0  0
  -13.6413  -36.8853  -10.4229 C   0  0  0  0  0  0  0  0  0  0  0  0
  -16.5510  -37.6003   -7.3778 C   0  0  2  0  0  0  0  0  0  0  0  0
  -16.0287  -37.0863   -6.2143 O   0  0  0  0  0  0  0  0  0  0  0  0
  -17.3567  -38.8564   -7.1483 C   0  0  0  0  0  0  0  0  0  0  0  0
  -18.5985  -38.6482   -6.4586 N   0  0  0  0  0  0  0  0  0  0  0  0
  -19.3215  -39.8683   -6.3280 C   0  0  0  0  0  0  0  0  0  0  0  0
  -20.4327  -39.8319   -7.3472 C   0  0  0  0  0  0  0  0  0  0  0  0
  -21.0896  -40.9906   -7.6946 C   0  0  0  0  0  0  0  0  0  0  0  0
  -22.1166  -41.0055   -8.6213 C   0  0  0  0  0  0  0  0  0  0  0  0
  -22.4380  -39.7792   -9.1735 C   0  0  0  0  0  0  0  0  0  0  0  0
  -21.7963  -38.6405   -8.8359 N   0  0  0  0  0  0  0  0  0  0  0  0
  -20.7921  -38.6401   -7.9269 C   0  0  0  0  0  0  0  0  0  0  0  0
  -22.8091  -42.2688   -8.9920 C   0  0  0  0  0  0  0  0  0  0  0  0
  -22.8632  -43.3924   -7.9524 C   0  0  0  0  0  0  0  0  0  0  0  0
  -21.9516  -43.4999   -9.1292 C   0  0  0  0  0  0  0  0  0  0  0  0
  2  1  1  1
  2  3  1  0
  3  4  2  0
  3  5  1  0
  5  6  1  0
  6  7  1  6
  7  8  1  0
  8  9  1  0
  9 10  2  0
 10 11  1  0
 11 12  1  0
 12 13  1  0
 13 14  1  0
 14 15  1  0
 15 16  1  0
 16 17  1  0
 17 18  2  0
 17 19  1  0
 19 20  1  0
 10 21  1  0
 21 22  2  0
 22 23  1  0
  6 24  1  0
 24 25  1  1
 24 26  1  0
 26 27  1  0
 27 28  1  0
 28 29  1  0
 29 30  2  0
 30 31  1  0
 31 32  2  0
 32 33  1  0
 33 34  2  0
 31 35  1  0
 35 36  1  0
 36 37  1  0
 19  2  1  0
 23  8  2  0
 34 29  1  0
 37 35  1  0
M  END
$$$$
