
     RDKit          3D

 37 40  0  0  0  0  0  0  0  0999 V2000
  -17.6286  -42.8905   -5.5996 C   0  0  0  0  0  0  0  0  0  0  0  0
  -18.8071  -42.6872   -6.5063 C   0  0  1  0  0  0  0  0  0  0  0  0
  -18.5697  -41.8019   -7.6668 C   0  0  0  0  0  0  0  0  0  0  0  0
  -19.5023  -41.9424   -8.5610 O   0  0  0  0  0  0  0  0  0  0  0  0
  -17.5829  -40.8952   -7.9638 N   0  0  0  0  0  0  0  0  0  0  0  0
  -17.2116  -39.6068   -7.4327 C   0  0  1  0  0  0  0  0  0  0  0  0
  -17.9804  -39.1091   -6.2706 C   0  0  0  0  0  0  0  0  0  0  0  0
  -19.4465  -38.9582   -6.4823 C   0  0  0  0  0  0  0  0  0  0  0  0
  -20.5337  -39.5276   -5.8787 C   0  0  0  0  0  0  0  0  0  0  0  0
  -21.7807  -39.1631   -6.3208 C   0  0  0  0  0  0  0  0  0  0  0  0
  -23.1607  -39.5475   -5.9284 C   0  0  0  0  0  0  0  0  0  0  0  0
  -23.7699  -40.2378   -7.1727 C   0  0  0  0  0  0  0  0  0  0  0  0
  -22.8103  -41.2062   -7.8053 C   0  0  0  0  0  0  0  0  0  0  0  0
  -23.4046  -42.5720   -7.9349 C   0  0  0  0  0  0  0  0  0  0  0  0
  -22.3840  -43.6805   -8.0772 C   0  0  0  0  0  0  0  0  0  0  0  0
  -21.6716  -43.8705   -6.7595 C   0  0  0  0  0  0  0  0  0  0  0  0
  -20.4014  -44.6230   -6.9286 C   0  0  0  0  0  0  0  0  0  0  0  0
  -20.5186  -45.8839   -7.0438 O   0  0  0  0  0  0  0  0  0  0  0  0
  -19.1250  -44.0590   -6.9691 N   0  0  0  0  0  0  0  0  0  0  0  0
  -17.9957  -44.8088   -7.4832 C   0  0  0  0  0  0  0  0  0  0  0  0
  -21.9099  -38.2174   -7.3789 C   0  0  0  0  0  0  0  0  0  0  0  0
  -20.8513  -37.6295   -8.0041 C   0  0  0  0  0  0  0  0  0  0  0  0
  -19.6331  -38.0174   -7.5366 C   0  0  0  0  0  0  0  0  0  0  0  0
  -15.7303  -39.7035   -7.1184 C   0  0  2  0  0  0  0  0  0  0  0  0
  -15.1805  -38.5441   -6.6241 O   0  0  0  0  0  0  0  0  0  0  0  0
  -15.0144  -40.2080   -8.3482 C   0  0  0  0  0  0  0  0  0  0  0  0
  -13.6208  -39.8673   -8.4064 N   0  0  0  0  0  0  0  0  0  0  0  0
  -13.1468  -39.8817   -9.7494 C   0  0  0  0  0  0  0  0  0  0  0  0
  -13.7061  -38.6552  -10.4259 C   0  0  0  0  0  0  0  0  0  0  0  0
  -14.6126  -38.7858  -11.4536 C   0  0  0  0  0  0  0  0  0  0  0  0
  -15.1549  -37.6903  -12.1012 C   0  0  0  0  0  0  0  0  0  0  0  0
  -14.7254  -36.4572  -11.6464 C   0  0  0  0  0  0  0  0  0  0  0  0
  -13.8365  -36.3243  -10.6390 N   0  0  0  0  0  0  0  0  0  0  0  0
  -13.3131  -37.4058  -10.0134 C   0  0  0  0  0  0  0  0  0  0  0  0
  -16.1261  -37.8505  -13.2166 C   0  0  0  0  0  0  0  0  0  0  0  0
  -16.5253  -36.6018  -14.0089 C   0  0  0  0  0  0  0  0  0  0  0  0
  -17.4793  -37.2130  -13.0374 C   0  0  0  0  0  0  0  0  0  0  0  0
  2  1  1  1
  2  3  1  0
  3  4  2  0
  3  5  1  0
  5  6  1  0
  6  7  1  1
  7  8  1  0
  8  9  1  0
  9 10  2  0
 10 11  1  0
 11 12  1  0
 12 13  1  0
 13 14  1  0
 14 15  1  0
 15 16  1  0
 16 17  1  0
 17 18  2  0
 17 19  1  0
 19 20  1  0
 10 21  1  0
 21 22  2  0
 22 23  1  0
  6 24  1  0
 24 25  1  6
 24 26  1  0
 26 27  1  0
 27 28  1  0
 28 29  1  0
 29 30  2  0
 30 31  1  0
 31 32  2  0
 32 33  1  0
 33 34  2  0
 31 35  1  0
 35 36  1  0
 36 37  1  0
 19  2  1  0
 23  8  2  0
 34 29  1  0
 37 35  1  0
M  END
$$$$
