
     RDKit          3D

 37 40  0  0  0  0  0  0  0  0999 V2000
  -17.1643  -42.2653   -6.4627 C   0  0  0  0  0  0  0  0  0  0  0  0
  -18.5662  -42.3230   -6.9955 C   0  0  1  0  0  0  0  0  0  0  0  0
  -18.8289  -41.4821   -8.1832 C   0  0  0  0  0  0  0  0  0  0  0  0
  -19.9328  -41.8347   -8.7713 O   0  0  0  0  0  0  0  0  0  0  0  0
  -18.1472  -40.4388   -8.7585 N   0  0  0  0  0  0  0  0  0  0  0  0
  -17.8831  -39.0759   -8.3676 C   0  0  1  0  0  0  0  0  0  0  0  0
  -18.3726  -38.6484   -7.0384 C   0  0  0  0  0  0  0  0  0  0  0  0
  -19.8413  -38.7650   -6.8225 C   0  0  0  0  0  0  0  0  0  0  0  0
  -20.5931  -39.4753   -5.9276 C   0  0  0  0  0  0  0  0  0  0  0  0
  -21.9587  -39.3582   -5.9971 C   0  0  0  0  0  0  0  0  0  0  0  0
  -23.0794  -39.9497   -5.2223 C   0  0  0  0  0  0  0  0  0  0  0  0
  -23.8765  -40.8086   -6.2337 C   0  0  0  0  0  0  0  0  0  0  0  0
  -22.9730  -41.6340   -7.1061 C   0  0  0  0  0  0  0  0  0  0  0  0
  -23.3207  -43.0870   -7.0478 C   0  0  0  0  0  0  0  0  0  0  0  0
  -22.1967  -44.0100   -7.4666 C   0  0  0  0  0  0  0  0  0  0  0  0
  -21.1215  -43.9945   -6.4067 C   0  0  0  0  0  0  0  0  0  0  0  0
  -19.8346  -44.5262   -6.9260 C   0  0  0  0  0  0  0  0  0  0  0  0
  -19.7478  -45.7930   -6.9915 O   0  0  0  0  0  0  0  0  0  0  0  0
  -18.7457  -43.7546   -7.3356 N   0  0  0  0  0  0  0  0  0  0  0  0
  -17.6888  -44.3286   -8.1449 C   0  0  0  0  0  0  0  0  0  0  0  0
  -22.5492  -38.5146   -6.9822 C   0  0  0  0  0  0  0  0  0  0  0  0
  -21.8337  -37.7924   -7.8897 C   0  0  0  0  0  0  0  0  0  0  0  0
  -20.4839  -37.9360   -7.7874 C   0  0  0  0  0  0  0  0  0  0  0  0
  -16.3812  -38.8972   -8.4901 C   0  0  2  0  0  0  0  0  0  0  0  0
  -15.9086  -37.7148   -7.9713 O   0  0  0  0  0  0  0  0  0  0  0  0
  -15.9946  -39.0932   -9.9364 C   0  0  0  0  0  0  0  0  0  0  0  0
  -15.1513  -40.2300  -10.1773 N   0  0  0  0  0  0  0  0  0  0  0  0
  -14.1269  -39.9166  -11.1159 C   0  0  0  0  0  0  0  0  0  0  0  0
  -13.1085  -39.0738  -10.3897 C   0  0  0  0  0  0  0  0  0  0  0  0
  -12.8457  -37.7905  -10.8129 C   0  0  0  0  0  0  0  0  0  0  0  0
  -11.9232  -36.9795  -10.1767 C   0  0  0  0  0  0  0  0  0  0  0  0
  -11.2845  -37.5446   -9.0882 C   0  0  0  0  0  0  0  0  0  0  0  0
  -11.5390  -38.8026   -8.6697 N   0  0  0  0  0  0  0  0  0  0  0  0
  -12.4449  -39.5862   -9.3022 C   0  0  0  0  0  0  0  0  0  0  0  0
  -11.6447  -35.5983  -10.6538 C   0  0  0  0  0  0  0  0  0  0  0  0
  -12.8338  -34.6569  -10.8684 C   0  0  0  0  0  0  0  0  0  0  0  0
  -12.1215  -35.2478  -12.0393 C   0  0  0  0  0  0  0  0  0  0  0  0
  2  1  1  6
  2  3  1  0
  3  4  2  0
  3  5  1  0
  5  6  1  0
  6  7  1  1
  7  8  1  0
  8  9  1  0
  9 10  2  0
 10 11  1  0
 11 12  1  0
 12 13  1  0
 13 14  1  0
 14 15  1  0
 15 16  1  0
 16 17  1  0
 17 18  2  0
 17 19  1  0
 19 20  1  0
 10 21  1  0
 21 22  2  0
 22 23  1  0
  6 24  1  0
 24 25  1  6
 24 26  1  0
 26 27  1  0
 27 28  1  0
 28 29  1  0
 29 30  2  0
 30 31  1  0
 31 32  2  0
 32 33  1  0
 33 34  2  0
 31 35  1  0
 35 36  1  0
 36 37  1  0
 19  2  1  0
 23  8  2  0
 34 29  1  0
 37 35  1  0
M  END
$$$$
