
     RDKit          3D

 37 40  0  0  0  0  0  0  0  0999 V2000
  -16.9655  -42.8479   -6.1790 C   0  0  0  0  0  0  0  0  0  0  0  0
  -18.3349  -42.9543   -6.7837 C   0  0  1  0  0  0  0  0  0  0  0  0
  -18.5615  -42.1303   -7.9905 C   0  0  0  0  0  0  0  0  0  0  0  0
  -19.6213  -42.5222   -8.6325 O   0  0  0  0  0  0  0  0  0  0  0  0
  -17.8840  -41.0695   -8.5382 N   0  0  0  0  0  0  0  0  0  0  0  0
  -17.6843  -39.6963   -8.1455 C   0  0  1  0  0  0  0  0  0  0  0  0
  -18.2563  -39.2758   -6.8473 C   0  0  0  0  0  0  0  0  0  0  0  0
  -19.7297  -39.4381   -6.7074 C   0  0  0  0  0  0  0  0  0  0  0  0
  -20.5046  -40.1662   -5.8470 C   0  0  0  0  0  0  0  0  0  0  0  0
  -21.8677  -40.0936   -5.9888 C   0  0  0  0  0  0  0  0  0  0  0  0
  -23.0081  -40.7157   -5.2686 C   0  0  0  0  0  0  0  0  0  0  0  0
  -23.7233  -41.6065   -6.3129 C   0  0  0  0  0  0  0  0  0  0  0  0
  -22.7495  -42.4083   -7.1300 C   0  0  0  0  0  0  0  0  0  0  0  0
  -23.0534  -43.8713   -7.0778 C   0  0  0  0  0  0  0  0  0  0  0  0
  -21.8802  -44.7604   -7.4296 C   0  0  0  0  0  0  0  0  0  0  0  0
  -20.8631  -44.7032   -6.3151 C   0  0  0  0  0  0  0  0  0  0  0  0
  -19.5345  -45.1967   -6.7620 C   0  0  0  0  0  0  0  0  0  0  0  0
  -19.4041  -46.4605   -6.8123 O   0  0  0  0  0  0  0  0  0  0  0  0
  -18.4507  -44.3932   -7.1206 N   0  0  0  0  0  0  0  0  0  0  0  0
  -17.3351  -44.9384   -7.8689 C   0  0  0  0  0  0  0  0  0  0  0  0
  -22.4321  -39.2761   -7.0103 C   0  0  0  0  0  0  0  0  0  0  0  0
  -21.6934  -38.5374   -7.8853 C   0  0  0  0  0  0  0  0  0  0  0  0
  -20.3469  -38.6367   -7.7115 C   0  0  0  0  0  0  0  0  0  0  0  0
  -16.1845  -39.4701   -8.1908 C   0  0  2  0  0  0  0  0  0  0  0  0
  -15.7779  -38.2683   -7.6607 O   0  0  0  0  0  0  0  0  0  0  0  0
  -15.7160  -39.6665   -9.6127 C   0  0  0  0  0  0  0  0  0  0  0  0
  -14.5218  -40.4531   -9.7416 N   0  0  0  0  0  0  0  0  0  0  0  0
  -13.3599  -39.6558   -9.5347 C   0  0  0  0  0  0  0  0  0  0  0  0
  -13.2336  -38.7449  -10.7301 C   0  0  0  0  0  0  0  0  0  0  0  0
  -12.7967  -37.4495  -10.5683 C   0  0  0  0  0  0  0  0  0  0  0  0
  -12.6618  -36.5790  -11.6350 C   0  0  0  0  0  0  0  0  0  0  0  0
  -12.9948  -37.0980  -12.8727 C   0  0  0  0  0  0  0  0  0  0  0  0
  -13.4238  -38.3676  -13.0359 N   0  0  0  0  0  0  0  0  0  0  0  0
  -13.5515  -39.2096  -11.9825 C   0  0  0  0  0  0  0  0  0  0  0  0
  -12.1975  -35.1792  -11.4404 C   0  0  0  0  0  0  0  0  0  0  0  0
  -12.7868  -34.3804  -10.2739 C   0  0  0  0  0  0  0  0  0  0  0  0
  -13.2092  -34.0878  -11.6752 C   0  0  0  0  0  0  0  0  0  0  0  0
  2  1  1  6
  2  3  1  0
  3  4  2  0
  3  5  1  0
  5  6  1  0
  6  7  1  1
  7  8  1  0
  8  9  1  0
  9 10  2  0
 10 11  1  0
 11 12  1  0
 12 13  1  0
 13 14  1  0
 14 15  1  0
 15 16  1  0
 16 17  1  0
 17 18  2  0
 17 19  1  0
 19 20  1  0
 10 21  1  0
 21 22  2  0
 22 23  1  0
  6 24  1  0
 24 25  1  6
 24 26  1  0
 26 27  1  0
 27 28  1  0
 28 29  1  0
 29 30  2  0
 30 31  1  0
 31 32  2  0
 32 33  1  0
 33 34  2  0
 31 35  1  0
 35 36  1  0
 36 37  1  0
 19  2  1  0
 23  8  2  0
 34 29  1  0
 37 35  1  0
M  END
$$$$
