
     RDKit          3D

 37 40  0  0  0  0  0  0  0  0999 V2000
  -17.2482  -42.7744   -5.9991 C   0  0  0  0  0  0  0  0  0  0  0  0
  -18.5624  -42.7764   -6.7239 C   0  0  1  0  0  0  0  0  0  0  0  0
  -18.6194  -41.9326   -7.9370 C   0  0  0  0  0  0  0  0  0  0  0  0
  -19.6435  -42.2421   -8.6746 O   0  0  0  0  0  0  0  0  0  0  0  0
  -17.8197  -40.9225   -8.4108 N   0  0  0  0  0  0  0  0  0  0  0  0
  -17.5555  -39.5696   -7.9870 C   0  0  1  0  0  0  0  0  0  0  0  0
  -18.2085  -39.1136   -6.7400 C   0  0  0  0  0  0  0  0  0  0  0  0
  -19.6965  -39.1669   -6.7330 C   0  0  0  0  0  0  0  0  0  0  0  0
  -20.5964  -39.8394   -5.9527 C   0  0  0  0  0  0  0  0  0  0  0  0
  -21.9324  -39.6653   -6.2139 C   0  0  0  0  0  0  0  0  0  0  0  0
  -23.1750  -40.2044   -5.6044 C   0  0  0  0  0  0  0  0  0  0  0  0
  -23.8578  -41.0352   -6.7178 C   0  0  0  0  0  0  0  0  0  0  0  0
  -22.8765  -41.9033   -7.4541 C   0  0  0  0  0  0  0  0  0  0  0  0
  -23.2903  -43.3400   -7.4450 C   0  0  0  0  0  0  0  0  0  0  0  0
  -22.1589  -44.3120   -7.7012 C   0  0  0  0  0  0  0  0  0  0  0  0
  -21.2438  -44.3352   -6.5004 C   0  0  0  0  0  0  0  0  0  0  0  0
  -19.9205  -44.9238   -6.8332 C   0  0  0  0  0  0  0  0  0  0  0  0
  -19.8792  -46.1936   -6.8855 O   0  0  0  0  0  0  0  0  0  0  0  0
  -18.7529  -44.2013   -7.0856 N   0  0  0  0  0  0  0  0  0  0  0  0
  -17.6181  -44.8243   -7.7379 C   0  0  0  0  0  0  0  0  0  0  0  0
  -22.3420  -38.8038   -7.2724 C   0  0  0  0  0  0  0  0  0  0  0  0
  -21.4759  -38.1180   -8.0704 C   0  0  0  0  0  0  0  0  0  0  0  0
  -20.1612  -38.3176   -7.7790 C   0  0  0  0  0  0  0  0  0  0  0  0
  -16.0451  -39.4550   -7.8967 C   0  0  2  0  0  0  0  0  0  0  0  0
  -15.6023  -38.5243   -6.9866 O   0  0  0  0  0  0  0  0  0  0  0  0
  -15.5020  -39.2148   -9.2849 C   0  0  0  0  0  0  0  0  0  0  0  0
  -15.0640  -40.4008   -9.9652 N   0  0  0  0  0  0  0  0  0  0  0  0
  -13.6507  -40.3964  -10.1416 C   0  0  0  0  0  0  0  0  0  0  0  0
  -13.3506  -39.4314  -11.2611 C   0  0  0  0  0  0  0  0  0  0  0  0
  -12.5810  -38.3152  -11.0234 C   0  0  0  0  0  0  0  0  0  0  0  0
  -12.2768  -37.4044  -12.0192 C   0  0  0  0  0  0  0  0  0  0  0  0
  -12.7974  -37.6914  -13.2677 C   0  0  0  0  0  0  0  0  0  0  0  0
  -13.5527  -38.7848  -13.5053 N   0  0  0  0  0  0  0  0  0  0  0  0
  -13.8432  -39.6686  -12.5208 C   0  0  0  0  0  0  0  0  0  0  0  0
  -11.4515  -36.1982  -11.7420 C   0  0  0  0  0  0  0  0  0  0  0  0
  -10.7342  -36.1111  -10.3914 C   0  0  0  0  0  0  0  0  0  0  0  0
  -11.9405  -35.2735  -10.6577 C   0  0  0  0  0  0  0  0  0  0  0  0
  2  1  1  6
  2  3  1  0
  3  4  2  0
  3  5  1  0
  5  6  1  0
  6  7  1  1
  7  8  1  0
  8  9  1  0
  9 10  2  0
 10 11  1  0
 11 12  1  0
 12 13  1  0
 13 14  1  0
 14 15  1  0
 15 16  1  0
 16 17  1  0
 17 18  2  0
 17 19  1  0
 19 20  1  0
 10 21  1  0
 21 22  2  0
 22 23  1  0
  6 24  1  0
 24 25  1  1
 24 26  1  0
 26 27  1  0
 27 28  1  0
 28 29  1  0
 29 30  2  0
 30 31  1  0
 31 32  2  0
 32 33  1  0
 33 34  2  0
 31 35  1  0
 35 36  1  0
 36 37  1  0
 19  2  1  0
 23  8  2  0
 34 29  1  0
 37 35  1  0
M  END
$$$$
