
     RDKit          3D

 37 40  0  0  0  0  0  0  0  0999 V2000
  -17.3597  -42.6373   -6.2275 C   0  0  0  0  0  0  0  0  0  0  0  0
  -18.6282  -42.5862   -7.0280 C   0  0  1  0  0  0  0  0  0  0  0  0
  -18.6251  -41.6370   -8.1620 C   0  0  0  0  0  0  0  0  0  0  0  0
  -19.5988  -41.8883   -8.9851 O   0  0  0  0  0  0  0  0  0  0  0  0
  -17.8135  -40.5810   -8.4942 N   0  0  0  0  0  0  0  0  0  0  0  0
  -17.5950  -39.2694   -7.9358 C   0  0  1  0  0  0  0  0  0  0  0  0
  -18.3278  -38.9337   -6.6951 C   0  0  0  0  0  0  0  0  0  0  0  0
  -19.8126  -39.0012   -6.7832 C   0  0  0  0  0  0  0  0  0  0  0  0
  -20.7474  -39.7496   -6.1221 C   0  0  0  0  0  0  0  0  0  0  0  0
  -22.0679  -39.5651   -6.4473 C   0  0  0  0  0  0  0  0  0  0  0  0
  -23.3366  -40.1684   -5.9650 C   0  0  0  0  0  0  0  0  0  0  0  0
  -23.9395  -40.9018   -7.1876 C   0  0  0  0  0  0  0  0  0  0  0  0
  -22.9034  -41.6908   -7.9376 C   0  0  0  0  0  0  0  0  0  0  0  0
  -23.2959  -43.1263   -8.0822 C   0  0  0  0  0  0  0  0  0  0  0  0
  -22.1371  -44.0607   -8.3551 C   0  0  0  0  0  0  0  0  0  0  0  0
  -21.2949  -44.1835   -7.1079 C   0  0  0  0  0  0  0  0  0  0  0  0
  -19.9457  -44.7275   -7.4111 C   0  0  0  0  0  0  0  0  0  0  0  0
  -19.8827  -45.9869   -7.5741 O   0  0  0  0  0  0  0  0  0  0  0  0
  -18.7758  -43.9743   -7.5265 N   0  0  0  0  0  0  0  0  0  0  0  0
  -17.5952  -44.5255   -8.1619 C   0  0  0  0  0  0  0  0  0  0  0  0
  -22.4263  -38.6155   -7.4475 C   0  0  0  0  0  0  0  0  0  0  0  0
  -21.5243  -37.8526   -8.1269 C   0  0  0  0  0  0  0  0  0  0  0  0
  -20.2266  -38.0654   -7.7753 C   0  0  0  0  0  0  0  0  0  0  0  0
  -16.0945  -39.1494   -7.7442 C   0  0  2  0  0  0  0  0  0  0  0  0
  -15.6911  -37.9686   -7.1666 O   0  0  0  0  0  0  0  0  0  0  0  0
  -15.4228  -39.4063   -9.0718 C   0  0  0  0  0  0  0  0  0  0  0  0
  -14.0247  -39.7196   -8.9797 N   0  0  0  0  0  0  0  0  0  0  0  0
  -13.4345  -39.8082  -10.2729 C   0  0  0  0  0  0  0  0  0  0  0  0
  -13.5535  -38.4439  -10.9046 C   0  0  0  0  0  0  0  0  0  0  0  0
  -12.9587  -38.1911  -12.1200 C   0  0  0  0  0  0  0  0  0  0  0  0
  -13.0437  -36.9570  -12.7392 C   0  0  0  0  0  0  0  0  0  0  0  0
  -13.7659  -35.9964  -12.0554 C   0  0  0  0  0  0  0  0  0  0  0  0
  -14.3507  -36.2398  -10.8632 N   0  0  0  0  0  0  0  0  0  0  0  0
  -14.2595  -37.4530  -10.2678 C   0  0  0  0  0  0  0  0  0  0  0  0
  -12.3864  -36.6987  -14.0485 C   0  0  0  0  0  0  0  0  0  0  0  0
  -10.9395  -37.1665  -14.2327 C   0  0  0  0  0  0  0  0  0  0  0  0
  -11.2441  -35.7163  -14.0543 C   0  0  0  0  0  0  0  0  0  0  0  0
  2  1  1  6
  2  3  1  0
  3  4  2  0
  3  5  1  0
  5  6  1  0
  6  7  1  1
  7  8  1  0
  8  9  1  0
  9 10  2  0
 10 11  1  0
 11 12  1  0
 12 13  1  0
 13 14  1  0
 14 15  1  0
 15 16  1  0
 16 17  1  0
 17 18  2  0
 17 19  1  0
 19 20  1  0
 10 21  1  0
 21 22  2  0
 22 23  1  0
  6 24  1  0
 24 25  1  6
 24 26  1  0
 26 27  1  0
 27 28  1  0
 28 29  1  0
 29 30  2  0
 30 31  1  0
 31 32  2  0
 32 33  1  0
 33 34  2  0
 31 35  1  0
 35 36  1  0
 36 37  1  0
 19  2  1  0
 23  8  2  0
 34 29  1  0
 37 35  1  0
M  END
$$$$
