
     RDKit          3D

 37 40  0  0  0  0  0  0  0  0999 V2000
  -16.7095  -42.5695   -6.3411 C   0  0  0  0  0  0  0  0  0  0  0  0
  -18.0858  -42.6847   -6.9287 C   0  0  1  0  0  0  0  0  0  0  0  0
  -18.3857  -41.7458   -8.0311 C   0  0  0  0  0  0  0  0  0  0  0  0
  -19.4383  -42.1228   -8.6935 O   0  0  0  0  0  0  0  0  0  0  0  0
  -17.7796  -40.5946   -8.4688 N   0  0  0  0  0  0  0  0  0  0  0  0
  -17.6441  -39.2644   -7.9284 C   0  0  1  0  0  0  0  0  0  0  0  0
  -18.2058  -39.0231   -6.5810 C   0  0  0  0  0  0  0  0  0  0  0  0
  -19.6646  -39.2822   -6.4331 C   0  0  0  0  0  0  0  0  0  0  0  0
  -20.3780  -40.1435   -5.6456 C   0  0  0  0  0  0  0  0  0  0  0  0
  -21.7461  -40.1319   -5.7533 C   0  0  0  0  0  0  0  0  0  0  0  0
  -22.8335  -40.8929   -5.0865 C   0  0  0  0  0  0  0  0  0  0  0  0
  -23.5254  -41.7011   -6.2108 C   0  0  0  0  0  0  0  0  0  0  0  0
  -22.5304  -42.3515   -7.1304 C   0  0  0  0  0  0  0  0  0  0  0  0
  -22.7541  -43.8259   -7.2369 C   0  0  0  0  0  0  0  0  0  0  0  0
  -21.5440  -44.6035   -7.7077 C   0  0  0  0  0  0  0  0  0  0  0  0
  -20.5044  -44.6134   -6.6128 C   0  0  0  0  0  0  0  0  0  0  0  0
  -19.1627  -44.9792   -7.1365 C   0  0  0  0  0  0  0  0  0  0  0  0
  -18.9660  -46.2203   -7.3305 O   0  0  0  0  0  0  0  0  0  0  0  0
  -18.1325  -44.0815   -7.4226 N   0  0  0  0  0  0  0  0  0  0  0  0
  -17.0080  -44.4770   -8.2476 C   0  0  0  0  0  0  0  0  0  0  0  0
  -22.3784  -39.2391   -6.6662 C   0  0  0  0  0  0  0  0  0  0  0  0
  -21.7019  -38.3677   -7.4663 C   0  0  0  0  0  0  0  0  0  0  0  0
  -20.3482  -38.4102   -7.3295 C   0  0  0  0  0  0  0  0  0  0  0  0
  -16.1602  -38.9510   -7.9757 C   0  0  2  0  0  0  0  0  0  0  0  0
  -15.7314  -38.0953   -6.9884 O   0  0  0  0  0  0  0  0  0  0  0  0
  -15.8219  -38.4559   -9.3613 C   0  0  0  0  0  0  0  0  0  0  0  0
  -15.2832  -39.4592  -10.2358 N   0  0  0  0  0  0  0  0  0  0  0  0
  -13.8849  -39.6256  -10.0226 C   0  0  0  0  0  0  0  0  0  0  0  0
  -13.2001  -38.4376  -10.6508 C   0  0  0  0  0  0  0  0  0  0  0  0
  -13.6897  -37.8954  -11.8176 C   0  0  0  0  0  0  0  0  0  0  0  0
  -13.0975  -36.8044  -12.4281 C   0  0  0  0  0  0  0  0  0  0  0  0
  -11.9824  -36.2963  -11.7874 C   0  0  0  0  0  0  0  0  0  0  0  0
  -11.4988  -36.8249  -10.6432 N   0  0  0  0  0  0  0  0  0  0  0  0
  -12.0885  -37.8937  -10.0559 C   0  0  0  0  0  0  0  0  0  0  0  0
  -13.6344  -36.2375  -13.6942 C   0  0  0  0  0  0  0  0  0  0  0  0
  -12.6357  -35.6968  -14.7220 C   0  0  0  0  0  0  0  0  0  0  0  0
  -13.4579  -34.7562  -13.9054 C   0  0  0  0  0  0  0  0  0  0  0  0
  2  1  1  6
  2  3  1  0
  3  4  2  0
  3  5  1  0
  5  6  1  0
  6  7  1  1
  7  8  1  0
  8  9  1  0
  9 10  2  0
 10 11  1  0
 11 12  1  0
 12 13  1  0
 13 14  1  0
 14 15  1  0
 15 16  1  0
 16 17  1  0
 17 18  2  0
 17 19  1  0
 19 20  1  0
 10 21  1  0
 21 22  2  0
 22 23  1  0
  6 24  1  0
 24 25  1  1
 24 26  1  0
 26 27  1  0
 27 28  1  0
 28 29  1  0
 29 30  2  0
 30 31  1  0
 31 32  2  0
 32 33  1  0
 33 34  2  0
 31 35  1  0
 35 36  1  0
 36 37  1  0
 19  2  1  0
 23  8  2  0
 34 29  1  0
 37 35  1  0
M  END
$$$$
