
     RDKit          3D

 37 40  0  0  0  0  0  0  0  0999 V2000
  -17.3714  -42.8168   -7.0496 C   0  0  0  0  0  0  0  0  0  0  0  0
  -18.5484  -42.6758   -7.9701 C   0  0  1  0  0  0  0  0  0  0  0  0
  -18.6455  -41.3838   -8.6829 C   0  0  0  0  0  0  0  0  0  0  0  0
  -19.4703  -41.4626   -9.6841 O   0  0  0  0  0  0  0  0  0  0  0  0
  -18.0467  -40.1636   -8.4909 N   0  0  0  0  0  0  0  0  0  0  0  0
  -18.1562  -39.1404   -7.4805 C   0  0  1  0  0  0  0  0  0  0  0  0
  -19.0475  -39.4183   -6.3327 C   0  0  0  0  0  0  0  0  0  0  0  0
  -20.4722  -39.6880   -6.6714 C   0  0  0  0  0  0  0  0  0  0  0  0
  -21.2836  -40.7706   -6.4712 C   0  0  0  0  0  0  0  0  0  0  0  0
  -22.5803  -40.6947   -6.9142 C   0  0  0  0  0  0  0  0  0  0  0  0
  -23.7320  -41.6322   -6.8806 C   0  0  0  0  0  0  0  0  0  0  0  0
  -24.0602  -41.9410   -8.3614 C   0  0  0  0  0  0  0  0  0  0  0  0
  -22.8212  -42.2117   -9.1679 C   0  0  0  0  0  0  0  0  0  0  0  0
  -22.8912  -43.5313   -9.8671 C   0  0  0  0  0  0  0  0  0  0  0  0
  -21.5436  -44.0937  -10.2649 C   0  0  0  0  0  0  0  0  0  0  0  0
  -20.8056  -44.5368   -9.0245 C   0  0  0  0  0  0  0  0  0  0  0  0
  -19.3514  -44.7005   -9.2830 C   0  0  0  0  0  0  0  0  0  0  0  0
  -19.0129  -45.7786   -9.8659 O   0  0  0  0  0  0  0  0  0  0  0  0
  -18.3592  -43.7799   -8.9410 N   0  0  0  0  0  0  0  0  0  0  0  0
  -17.0390  -43.8530   -9.5352 C   0  0  0  0  0  0  0  0  0  0  0  0
  -23.0411  -39.5112   -7.5603 C   0  0  0  0  0  0  0  0  0  0  0  0
  -22.2631  -38.4136   -7.7775 C   0  0  0  0  0  0  0  0  0  0  0  0
  -20.9849  -38.5290   -7.3236 C   0  0  0  0  0  0  0  0  0  0  0  0
  -16.7362  -38.8591   -7.0254 C   0  0  2  0  0  0  0  0  0  0  0  0
  -16.6401  -38.3657   -5.7456 O   0  0  0  0  0  0  0  0  0  0  0  0
  -16.0782  -37.9612   -8.0455 C   0  0  0  0  0  0  0  0  0  0  0  0
  -14.9013  -38.5150   -8.6535 N   0  0  0  0  0  0  0  0  0  0  0  0
  -14.5199  -37.7666   -9.8037 C   0  0  0  0  0  0  0  0  0  0  0  0
  -13.0998  -38.1558  -10.1301 C   0  0  0  0  0  0  0  0  0  0  0  0
  -12.4634  -37.5997  -11.2167 C   0  0  0  0  0  0  0  0  0  0  0  0
  -11.1611  -37.9233  -11.5529 C   0  0  0  0  0  0  0  0  0  0  0  0
  -10.5431  -38.8416  -10.7242 C   0  0  0  0  0  0  0  0  0  0  0  0
  -11.1634  -39.3897   -9.6577 N   0  0  0  0  0  0  0  0  0  0  0  0
  -12.4392  -39.0639   -9.3398 C   0  0  0  0  0  0  0  0  0  0  0  0
  -10.4923  -37.3197  -12.7366 C   0  0  0  0  0  0  0  0  0  0  0  0
   -9.6954  -38.2436  -13.6627 C   0  0  0  0  0  0  0  0  0  0  0  0
   -8.9857  -37.3125  -12.7369 C   0  0  0  0  0  0  0  0  0  0  0  0
  2  1  1  1
  2  3  1  0
  3  4  2  0
  3  5  1  0
  5  6  1  0
  6  7  1  1
  7  8  1  0
  8  9  1  0
  9 10  2  0
 10 11  1  0
 11 12  1  0
 12 13  1  0
 13 14  1  0
 14 15  1  0
 15 16  1  0
 16 17  1  0
 17 18  2  0
 17 19  1  0
 19 20  1  0
 10 21  1  0
 21 22  2  0
 22 23  1  0
  6 24  1  0
 24 25  1  1
 24 26  1  0
 26 27  1  0
 27 28  1  0
 28 29  1  0
 29 30  2  0
 30 31  1  0
 31 32  2  0
 32 33  1  0
 33 34  2  0
 31 35  1  0
 35 36  1  0
 36 37  1  0
 19  2  1  0
 23  8  2  0
 34 29  1  0
 37 35  1  0
M  END
$$$$
