
     RDKit          3D

 37 40  0  0  0  0  0  0  0  0999 V2000
  -16.7499  -41.8630   -7.1689 C   0  0  0  0  0  0  0  0  0  0  0  0
  -18.1788  -42.0733   -7.5769 C   0  0  1  0  0  0  0  0  0  0  0  0
  -18.6831  -41.1535   -8.6192 C   0  0  0  0  0  0  0  0  0  0  0  0
  -19.7832  -41.6016   -9.1463 O   0  0  0  0  0  0  0  0  0  0  0  0
  -18.2206  -39.9601   -9.1153 N   0  0  0  0  0  0  0  0  0  0  0  0
  -18.1103  -38.6260   -8.5788 C   0  0  1  0  0  0  0  0  0  0  0  0
  -18.5094  -38.4312   -7.1674 C   0  0  0  0  0  0  0  0  0  0  0  0
  -19.9153  -38.7942   -6.8375 C   0  0  0  0  0  0  0  0  0  0  0  0
  -20.4593  -39.7075   -5.9768 C   0  0  0  0  0  0  0  0  0  0  0  0
  -21.8273  -39.7930   -5.9082 C   0  0  0  0  0  0  0  0  0  0  0  0
  -22.7639  -40.6324   -5.1180 C   0  0  0  0  0  0  0  0  0  0  0  0
  -23.5363  -41.4829   -6.1553 C   0  0  0  0  0  0  0  0  0  0  0  0
  -22.6248  -42.0567   -7.2034 C   0  0  0  0  0  0  0  0  0  0  0  0
  -22.7564  -43.5429   -7.3002 C   0  0  0  0  0  0  0  0  0  0  0  0
  -21.5655  -44.2302   -7.9325 C   0  0  0  0  0  0  0  0  0  0  0  0
  -20.3955  -44.1708   -6.9799 C   0  0  0  0  0  0  0  0  0  0  0  0
  -19.1100  -44.4378   -7.6760 C   0  0  0  0  0  0  0  0  0  0  0  0
  -18.8534  -45.6609   -7.9103 O   0  0  0  0  0  0  0  0  0  0  0  0
  -18.1907  -43.4678   -8.0796 N   0  0  0  0  0  0  0  0  0  0  0  0
  -17.1568  -43.7786   -9.0470 C   0  0  0  0  0  0  0  0  0  0  0  0
  -22.6328  -38.9435   -6.7206 C   0  0  0  0  0  0  0  0  0  0  0  0
  -22.1277  -38.0226   -7.5889 C   0  0  0  0  0  0  0  0  0  0  0  0
  -20.7680  -37.9692   -7.6271 C   0  0  0  0  0  0  0  0  0  0  0  0
  -16.6704  -38.2075   -8.8114 C   0  0  2  0  0  0  0  0  0  0  0  0
  -16.4864  -37.4020   -9.9105 O   0  0  0  0  0  0  0  0  0  0  0  0
  -15.8138  -39.4502   -8.8517 C   0  0  0  0  0  0  0  0  0  0  0  0
  -14.7031  -39.4361   -7.9420 N   0  0  0  0  0  0  0  0  0  0  0  0
  -13.5082  -39.8651   -8.5876 C   0  0  0  0  0  0  0  0  0  0  0  0
  -13.0655  -38.7378   -9.4865 C   0  0  0  0  0  0  0  0  0  0  0  0
  -13.0077  -38.9230  -10.8493 C   0  0  0  0  0  0  0  0  0  0  0  0
  -12.6112  -37.9179  -11.7132 C   0  0  0  0  0  0  0  0  0  0  0  0
  -12.2779  -36.7164  -11.1154 C   0  0  0  0  0  0  0  0  0  0  0  0
  -12.3330  -36.5303   -9.7794 N   0  0  0  0  0  0  0  0  0  0  0  0
  -12.7230  -37.5234   -8.9448 C   0  0  0  0  0  0  0  0  0  0  0  0
  -12.5453  -38.1388  -13.1827 C   0  0  0  0  0  0  0  0  0  0  0  0
  -13.3736  -37.2209  -14.0870 C   0  0  0  0  0  0  0  0  0  0  0  0
  -13.8009  -38.6318  -13.8538 C   0  0  0  0  0  0  0  0  0  0  0  0
  2  1  1  6
  2  3  1  0
  3  4  2  0
  3  5  1  0
  5  6  1  0
  6  7  1  1
  7  8  1  0
  8  9  1  0
  9 10  2  0
 10 11  1  0
 11 12  1  0
 12 13  1  0
 13 14  1  0
 14 15  1  0
 15 16  1  0
 16 17  1  0
 17 18  2  0
 17 19  1  0
 19 20  1  0
 10 21  1  0
 21 22  2  0
 22 23  1  0
  6 24  1  0
 24 25  1  6
 24 26  1  0
 26 27  1  0
 27 28  1  0
 28 29  1  0
 29 30  2  0
 30 31  1  0
 31 32  2  0
 32 33  1  0
 33 34  2  0
 31 35  1  0
 35 36  1  0
 36 37  1  0
 19  2  1  0
 23  8  2  0
 34 29  1  0
 37 35  1  0
M  END
$$$$
