
     RDKit          3D

 37 40  0  0  0  0  0  0  0  0999 V2000
  -17.0909  -42.5998   -5.8455 C   0  0  0  0  0  0  0  0  0  0  0  0
  -18.4656  -42.6494   -6.4456 C   0  0  1  0  0  0  0  0  0  0  0  0
  -18.6279  -41.9193   -7.7213 C   0  0  0  0  0  0  0  0  0  0  0  0
  -19.7168  -42.2804   -8.3319 O   0  0  0  0  0  0  0  0  0  0  0  0
  -17.8689  -40.9682   -8.3565 N   0  0  0  0  0  0  0  0  0  0  0  0
  -17.5594  -39.5860   -8.0849 C   0  0  1  0  0  0  0  0  0  0  0  0
  -18.0935  -39.0087   -6.8316 C   0  0  0  0  0  0  0  0  0  0  0  0
  -19.5750  -39.0402   -6.6857 C   0  0  0  0  0  0  0  0  0  0  0  0
  -20.4039  -39.6256   -5.7687 C   0  0  0  0  0  0  0  0  0  0  0  0
  -21.7571  -39.4573   -5.9234 C   0  0  0  0  0  0  0  0  0  0  0  0
  -22.9422  -39.9208   -5.1572 C   0  0  0  0  0  0  0  0  0  0  0  0
  -23.7283  -40.8401   -6.1231 C   0  0  0  0  0  0  0  0  0  0  0  0
  -22.8231  -41.7857   -6.8615 C   0  0  0  0  0  0  0  0  0  0  0  0
  -23.2428  -43.2095   -6.6826 C   0  0  0  0  0  0  0  0  0  0  0  0
  -22.1451  -44.2169   -6.9488 C   0  0  0  0  0  0  0  0  0  0  0  0
  -21.1246  -44.1431   -5.8385 C   0  0  0  0  0  0  0  0  0  0  0  0
  -19.8405  -44.7784   -6.2334 C   0  0  0  0  0  0  0  0  0  0  0  0
  -19.8115  -46.0480   -6.1718 O   0  0  0  0  0  0  0  0  0  0  0  0
  -18.6966  -44.0985   -6.6555 N   0  0  0  0  0  0  0  0  0  0  0  0
  -17.6295  -44.7946   -7.3472 C   0  0  0  0  0  0  0  0  0  0  0  0
  -22.2564  -38.6905   -7.0157 C   0  0  0  0  0  0  0  0  0  0  0  0
  -21.4625  -38.0928   -7.9483 C   0  0  0  0  0  0  0  0  0  0  0  0
  -20.1280  -38.2835   -7.7594 C   0  0  0  0  0  0  0  0  0  0  0  0
  -16.0464  -39.4850   -8.1421 C   0  0  2  0  0  0  0  0  0  0  0  0
  -15.5408  -38.2979   -7.6670 O   0  0  0  0  0  0  0  0  0  0  0  0
  -15.6023  -39.7823   -9.5542 C   0  0  0  0  0  0  0  0  0  0  0  0
  -14.1784  -39.8331   -9.7312 N   0  0  0  0  0  0  0  0  0  0  0  0
  -13.6069  -38.5309   -9.6529 C   0  0  0  0  0  0  0  0  0  0  0  0
  -14.0484  -37.7825  -10.8856 C   0  0  0  0  0  0  0  0  0  0  0  0
  -13.1260  -37.1026  -11.6484 C   0  0  0  0  0  0  0  0  0  0  0  0
  -13.4834  -36.4054  -12.7885 C   0  0  0  0  0  0  0  0  0  0  0  0
  -14.8280  -36.4382  -13.1093 C   0  0  0  0  0  0  0  0  0  0  0  0
  -15.7361  -37.1035  -12.3642 N   0  0  0  0  0  0  0  0  0  0  0  0
  -15.3724  -37.7822  -11.2497 C   0  0  0  0  0  0  0  0  0  0  0  0
  -12.4744  -35.6681  -13.5955 C   0  0  0  0  0  0  0  0  0  0  0  0
  -12.9767  -34.6218  -14.5952 C   0  0  0  0  0  0  0  0  0  0  0  0
  -12.4608  -35.9364  -15.0780 C   0  0  0  0  0  0  0  0  0  0  0  0
  2  1  1  6
  2  3  1  0
  3  4  2  0
  3  5  1  0
  5  6  1  0
  6  7  1  1
  7  8  1  0
  8  9  1  0
  9 10  2  0
 10 11  1  0
 11 12  1  0
 12 13  1  0
 13 14  1  0
 14 15  1  0
 15 16  1  0
 16 17  1  0
 17 18  2  0
 17 19  1  0
 19 20  1  0
 10 21  1  0
 21 22  2  0
 22 23  1  0
  6 24  1  0
 24 25  1  6
 24 26  1  0
 26 27  1  0
 27 28  1  0
 28 29  1  0
 29 30  2  0
 30 31  1  0
 31 32  2  0
 32 33  1  0
 33 34  2  0
 31 35  1  0
 35 36  1  0
 36 37  1  0
 19  2  1  0
 23  8  2  0
 34 29  1  0
 37 35  1  0
M  END
$$$$
