
     RDKit          3D

 37 40  0  0  0  0  0  0  0  0999 V2000
  -17.3881  -42.3801   -5.6959 C   0  0  0  0  0  0  0  0  0  0  0  0
  -18.6920  -42.4101   -6.4384 C   0  0  1  0  0  0  0  0  0  0  0  0
  -18.6834  -41.7523   -7.7628 C   0  0  0  0  0  0  0  0  0  0  0  0
  -19.7169  -42.1052   -8.4673 O   0  0  0  0  0  0  0  0  0  0  0  0
  -17.8175  -40.8729   -8.3636 N   0  0  0  0  0  0  0  0  0  0  0  0
  -17.4742  -39.4906   -8.1373 C   0  0  1  0  0  0  0  0  0  0  0  0
  -18.1109  -38.8175   -6.9837 C   0  0  0  0  0  0  0  0  0  0  0  0
  -19.5993  -38.7799   -6.9983 C   0  0  0  0  0  0  0  0  0  0  0  0
  -20.5475  -39.2748   -6.1458 C   0  0  0  0  0  0  0  0  0  0  0  0
  -21.8672  -39.0614   -6.4559 C   0  0  0  0  0  0  0  0  0  0  0  0
  -23.1474  -39.4293   -5.7987 C   0  0  0  0  0  0  0  0  0  0  0  0
  -23.8686  -40.3727   -6.7917 C   0  0  0  0  0  0  0  0  0  0  0  0
  -22.9354  -41.3971   -7.3735 C   0  0  0  0  0  0  0  0  0  0  0  0
  -23.4379  -42.7893   -7.1622 C   0  0  0  0  0  0  0  0  0  0  0  0
  -22.3665  -43.8545   -7.2510 C   0  0  0  0  0  0  0  0  0  0  0  0
  -21.4674  -43.7553   -6.0420 C   0  0  0  0  0  0  0  0  0  0  0  0
  -20.1798  -44.4648   -6.2588 C   0  0  0  0  0  0  0  0  0  0  0  0
  -20.2171  -45.7286   -6.1239 O   0  0  0  0  0  0  0  0  0  0  0  0
  -18.9669  -43.8587   -6.5912 N   0  0  0  0  0  0  0  0  0  0  0  0
  -17.8662  -44.6379   -7.1228 C   0  0  0  0  0  0  0  0  0  0  0  0
  -22.2111  -38.3423   -7.6371 C   0  0  0  0  0  0  0  0  0  0  0  0
  -21.2955  -37.8347   -8.5096 C   0  0  0  0  0  0  0  0  0  0  0  0
  -19.9991  -38.0677   -8.1663 C   0  0  0  0  0  0  0  0  0  0  0  0
  -15.9606  -39.4547   -8.0351 C   0  0  2  0  0  0  0  0  0  0  0  0
  -15.4077  -38.2172   -8.2667 O   0  0  0  0  0  0  0  0  0  0  0  0
  -15.3966  -40.5223   -8.9415 C   0  0  0  0  0  0  0  0  0  0  0  0
  -14.6762  -40.0184  -10.0767 N   0  0  0  0  0  0  0  0  0  0  0  0
  -14.0022  -38.8052   -9.7568 C   0  0  0  0  0  0  0  0  0  0  0  0
  -14.3196  -37.8231  -10.8565 C   0  0  0  0  0  0  0  0  0  0  0  0
  -13.5747  -36.6734  -10.9922 C   0  0  0  0  0  0  0  0  0  0  0  0
  -13.8264  -35.7457  -11.9870 C   0  0  0  0  0  0  0  0  0  0  0  0
  -14.8752  -36.0517  -12.8346 C   0  0  0  0  0  0  0  0  0  0  0  0
  -15.6085  -37.1777  -12.7052 N   0  0  0  0  0  0  0  0  0  0  0  0
  -15.3513  -38.0779  -11.7262 C   0  0  0  0  0  0  0  0  0  0  0  0
  -13.0173  -34.5038  -12.1128 C   0  0  0  0  0  0  0  0  0  0  0  0
  -11.9645  -34.2181  -11.0375 C   0  0  0  0  0  0  0  0  0  0  0  0
  -13.2374  -33.4396  -11.0693 C   0  0  0  0  0  0  0  0  0  0  0  0
  2  1  1  6
  2  3  1  0
  3  4  2  0
  3  5  1  0
  5  6  1  0
  6  7  1  1
  7  8  1  0
  8  9  1  0
  9 10  2  0
 10 11  1  0
 11 12  1  0
 12 13  1  0
 13 14  1  0
 14 15  1  0
 15 16  1  0
 16 17  1  0
 17 18  2  0
 17 19  1  0
 19 20  1  0
 10 21  1  0
 21 22  2  0
 22 23  1  0
  6 24  1  0
 24 25  1  6
 24 26  1  0
 26 27  1  0
 27 28  1  0
 28 29  1  0
 29 30  2  0
 30 31  1  0
 31 32  2  0
 32 33  1  0
 33 34  2  0
 31 35  1  0
 35 36  1  0
 36 37  1  0
 19  2  1  0
 23  8  2  0
 34 29  1  0
 37 35  1  0
M  END
$$$$
