
     RDKit          3D

 37 40  0  0  0  0  0  0  0  0999 V2000
  -17.2635  -42.0207   -6.3260 C   0  0  0  0  0  0  0  0  0  0  0  0
  -18.6096  -42.1610   -6.9748 C   0  0  1  0  0  0  0  0  0  0  0  0
  -18.7800  -41.4280   -8.2478 C   0  0  0  0  0  0  0  0  0  0  0  0
  -19.8183  -41.8583   -8.9002 O   0  0  0  0  0  0  0  0  0  0  0  0
  -18.0700  -40.4169   -8.8459 N   0  0  0  0  0  0  0  0  0  0  0  0
  -17.8704  -39.0197   -8.5492 C   0  0  1  0  0  0  0  0  0  0  0  0
  -18.4876  -38.4984   -7.3097 C   0  0  0  0  0  0  0  0  0  0  0  0
  -19.9671  -38.6377   -7.2164 C   0  0  0  0  0  0  0  0  0  0  0  0
  -20.7828  -39.2928   -6.3354 C   0  0  0  0  0  0  0  0  0  0  0  0
  -22.1385  -39.2199   -6.5359 C   0  0  0  0  0  0  0  0  0  0  0  0
  -23.3128  -39.7768   -5.8170 C   0  0  0  0  0  0  0  0  0  0  0  0
  -23.9968  -40.7377   -6.8194 C   0  0  0  0  0  0  0  0  0  0  0  0
  -23.0010  -41.6064   -7.5352 C   0  0  0  0  0  0  0  0  0  0  0  0
  -23.3229  -43.0588   -7.3859 C   0  0  0  0  0  0  0  0  0  0  0  0
  -22.1470  -43.9814   -7.6237 C   0  0  0  0  0  0  0  0  0  0  0  0
  -21.1733  -43.8490   -6.4773 C   0  0  0  0  0  0  0  0  0  0  0  0
  -19.8340  -44.3855   -6.8332 C   0  0  0  0  0  0  0  0  0  0  0  0
  -19.7157  -45.6506   -6.7838 O   0  0  0  0  0  0  0  0  0  0  0  0
  -18.7281  -43.6201   -7.2077 N   0  0  0  0  0  0  0  0  0  0  0  0
  -17.5905  -44.2290   -7.8685 C   0  0  0  0  0  0  0  0  0  0  0  0
  -22.6537  -38.4768   -7.6372 C   0  0  0  0  0  0  0  0  0  0  0  0
  -21.8734  -37.8118   -8.5350 C   0  0  0  0  0  0  0  0  0  0  0  0
  -20.5359  -37.9089   -8.3012 C   0  0  0  0  0  0  0  0  0  0  0  0
  -16.3675  -38.8099   -8.5520 C   0  0  2  0  0  0  0  0  0  0  0  0
  -15.9061  -38.0413   -9.5946 O   0  0  0  0  0  0  0  0  0  0  0  0
  -15.6978  -40.1615   -8.4854 C   0  0  0  0  0  0  0  0  0  0  0  0
  -14.7924  -40.4300   -9.5668 N   0  0  0  0  0  0  0  0  0  0  0  0
  -13.5389  -39.7876   -9.3553 C   0  0  0  0  0  0  0  0  0  0  0  0
  -13.3949  -38.7403  -10.4311 C   0  0  0  0  0  0  0  0  0  0  0  0
  -13.0997  -37.4389  -10.0931 C   0  0  0  0  0  0  0  0  0  0  0  0
  -12.9548  -36.4455  -11.0449 C   0  0  0  0  0  0  0  0  0  0  0  0
  -13.1260  -36.8483  -12.3565 C   0  0  0  0  0  0  0  0  0  0  0  0
  -13.4158  -38.1233  -12.6925 N   0  0  0  0  0  0  0  0  0  0  0  0
  -13.5551  -39.0864  -11.7502 C   0  0  0  0  0  0  0  0  0  0  0  0
  -12.6451  -35.0421  -10.6609 C   0  0  0  0  0  0  0  0  0  0  0  0
  -11.3367  -34.4284  -11.1686 C   0  0  0  0  0  0  0  0  0  0  0  0
  -11.4728  -34.8320   -9.7382 C   0  0  0  0  0  0  0  0  0  0  0  0
  2  1  1  6
  2  3  1  0
  3  4  2  0
  3  5  1  0
  5  6  1  0
  6  7  1  1
  7  8  1  0
  8  9  1  0
  9 10  2  0
 10 11  1  0
 11 12  1  0
 12 13  1  0
 13 14  1  0
 14 15  1  0
 15 16  1  0
 16 17  1  0
 17 18  2  0
 17 19  1  0
 19 20  1  0
 10 21  1  0
 21 22  2  0
 22 23  1  0
  6 24  1  0
 24 25  1  6
 24 26  1  0
 26 27  1  0
 27 28  1  0
 28 29  1  0
 29 30  2  0
 30 31  1  0
 31 32  2  0
 32 33  1  0
 33 34  2  0
 31 35  1  0
 35 36  1  0
 36 37  1  0
 19  2  1  0
 23  8  2  0
 34 29  1  0
 37 35  1  0
M  END
$$$$
