
     RDKit          3D

 37 40  0  0  0  0  0  0  0  0999 V2000
  -17.3439  -42.6478   -6.0225 C   0  0  0  0  0  0  0  0  0  0  0  0
  -18.6299  -42.6302   -6.7959 C   0  0  1  0  0  0  0  0  0  0  0  0
  -18.6457  -41.7460   -7.9811 C   0  0  0  0  0  0  0  0  0  0  0  0
  -19.6399  -42.0342   -8.7668 O   0  0  0  0  0  0  0  0  0  0  0  0
  -17.8339  -40.7175   -8.3903 N   0  0  0  0  0  0  0  0  0  0  0  0
  -17.5925  -39.3787   -7.9115 C   0  0  1  0  0  0  0  0  0  0  0  0
  -18.2941  -38.9676   -6.6754 C   0  0  0  0  0  0  0  0  0  0  0  0
  -19.7810  -39.0267   -6.7262 C   0  0  0  0  0  0  0  0  0  0  0  0
  -20.7061  -39.7285   -6.0033 C   0  0  0  0  0  0  0  0  0  0  0  0
  -22.0322  -39.5507   -6.3086 C   0  0  0  0  0  0  0  0  0  0  0  0
  -23.2941  -40.1147   -5.7648 C   0  0  0  0  0  0  0  0  0  0  0  0
  -23.9305  -40.9100   -6.9304 C   0  0  0  0  0  0  0  0  0  0  0  0
  -22.9179  -41.7490   -7.6580 C   0  0  0  0  0  0  0  0  0  0  0  0
  -23.3246  -43.1867   -7.7129 C   0  0  0  0  0  0  0  0  0  0  0  0
  -22.1796  -44.1453   -7.9589 C   0  0  0  0  0  0  0  0  0  0  0  0
  -21.3100  -44.2056   -6.7260 C   0  0  0  0  0  0  0  0  0  0  0  0
  -19.9722  -44.7777   -7.0284 C   0  0  0  0  0  0  0  0  0  0  0  0
  -19.9227  -46.0448   -7.1218 O   0  0  0  0  0  0  0  0  0  0  0  0
  -18.7996  -44.0427   -7.2122 N   0  0  0  0  0  0  0  0  0  0  0  0
  -17.6381  -44.6390   -7.8420 C   0  0  0  0  0  0  0  0  0  0  0  0
  -22.4062  -38.6555   -7.3522 C   0  0  0  0  0  0  0  0  0  0  0  0
  -21.5142  -37.9398   -8.0934 C   0  0  0  0  0  0  0  0  0  0  0  0
  -20.2105  -38.1442   -7.7597 C   0  0  0  0  0  0  0  0  0  0  0  0
  -16.0872  -39.2616   -7.7607 C   0  0  2  0  0  0  0  0  0  0  0  0
  -15.6755  -38.1735   -7.0277 O   0  0  0  0  0  0  0  0  0  0  0  0
  -15.4660  -39.3045   -9.1362 C   0  0  0  0  0  0  0  0  0  0  0  0
  -15.0314  -40.6084   -9.5515 N   0  0  0  0  0  0  0  0  0  0  0  0
  -13.6368  -40.6143   -9.8404 C   0  0  0  0  0  0  0  0  0  0  0  0
  -13.4451  -39.8040  -11.0980 C   0  0  0  0  0  0  0  0  0  0  0  0
  -12.7414  -38.6217  -11.0575 C   0  0  0  0  0  0  0  0  0  0  0  0
  -12.5372  -37.8470  -12.1852 C   0  0  0  0  0  0  0  0  0  0  0  0
  -13.0869  -38.3407  -13.3541 C   0  0  0  0  0  0  0  0  0  0  0  0
  -13.7778  -39.4995  -13.3984 N   0  0  0  0  0  0  0  0  0  0  0  0
  -13.9705  -40.2485  -12.2863 C   0  0  0  0  0  0  0  0  0  0  0  0
  -11.7823  -36.5668  -12.1211 C   0  0  0  0  0  0  0  0  0  0  0  0
  -12.2707  -35.4907  -11.1465 C   0  0  0  0  0  0  0  0  0  0  0  0
  -12.4923  -35.3327  -12.6140 C   0  0  0  0  0  0  0  0  0  0  0  0
  2  1  1  6
  2  3  1  0
  3  4  2  0
  3  5  1  0
  5  6  1  0
  6  7  1  1
  7  8  1  0
  8  9  1  0
  9 10  2  0
 10 11  1  0
 11 12  1  0
 12 13  1  0
 13 14  1  0
 14 15  1  0
 15 16  1  0
 16 17  1  0
 17 18  2  0
 17 19  1  0
 19 20  1  0
 10 21  1  0
 21 22  2  0
 22 23  1  0
  6 24  1  0
 24 25  1  6
 24 26  1  0
 26 27  1  0
 27 28  1  0
 28 29  1  0
 29 30  2  0
 30 31  1  0
 31 32  2  0
 32 33  1  0
 33 34  2  0
 31 35  1  0
 35 36  1  0
 36 37  1  0
 19  2  1  0
 23  8  2  0
 34 29  1  0
 37 35  1  0
M  END
$$$$
