
     RDKit          3D

 37 40  0  0  0  0  0  0  0  0999 V2000
  -17.3708  -42.8060   -6.5777 C   0  0  0  0  0  0  0  0  0  0  0  0
  -18.6201  -42.6875   -7.4010 C   0  0  1  0  0  0  0  0  0  0  0  0
  -18.6433  -41.5629   -8.3609 C   0  0  0  0  0  0  0  0  0  0  0  0
  -19.5806  -41.7230   -9.2467 O   0  0  0  0  0  0  0  0  0  0  0  0
  -17.8854  -40.4253   -8.4857 N   0  0  0  0  0  0  0  0  0  0  0  0
  -17.7558  -39.2162   -7.7102 C   0  0  1  0  0  0  0  0  0  0  0  0
  -18.5368  -39.1319   -6.4564 C   0  0  0  0  0  0  0  0  0  0  0  0
  -20.0127  -39.2610   -6.6046 C   0  0  0  0  0  0  0  0  0  0  0  0
  -20.9192  -40.1572   -6.1089 C   0  0  0  0  0  0  0  0  0  0  0  0
  -22.2397  -39.9900   -6.4433 C   0  0  0  0  0  0  0  0  0  0  0  0
  -23.4834  -40.7308   -6.1109 C   0  0  0  0  0  0  0  0  0  0  0  0
  -24.0133  -41.2793   -7.4579 C   0  0  0  0  0  0  0  0  0  0  0  0
  -22.9158  -41.8765   -8.2931 C   0  0  0  0  0  0  0  0  0  0  0  0
  -23.2221  -43.2858   -8.6871 C   0  0  0  0  0  0  0  0  0  0  0  0
  -22.0056  -44.0996   -9.0721 C   0  0  0  0  0  0  0  0  0  0  0  0
  -21.1887  -44.3857   -7.8349 C   0  0  0  0  0  0  0  0  0  0  0  0
  -19.8035  -44.8001   -8.1784 C   0  0  0  0  0  0  0  0  0  0  0  0
  -19.6649  -46.0093   -8.5461 O   0  0  0  0  0  0  0  0  0  0  0  0
  -18.6761  -43.9783   -8.1277 N   0  0  0  0  0  0  0  0  0  0  0  0
  -17.4507  -44.3529   -8.8055 C   0  0  0  0  0  0  0  0  0  0  0  0
  -22.6269  -38.9062   -7.2834 C   0  0  0  0  0  0  0  0  0  0  0  0
  -21.7536  -37.9942   -7.7959 C   0  0  0  0  0  0  0  0  0  0  0  0
  -20.4549  -38.1950   -7.4410 C   0  0  0  0  0  0  0  0  0  0  0  0
  -16.2697  -39.0520   -7.4509 C   0  0  2  0  0  0  0  0  0  0  0  0
  -15.9585  -38.6754   -6.1655 O   0  0  0  0  0  0  0  0  0  0  0  0
  -15.7072  -38.1073   -8.4857 C   0  0  0  0  0  0  0  0  0  0  0  0
  -15.8371  -38.5643   -9.8406 N   0  0  0  0  0  0  0  0  0  0  0  0
  -15.4320  -37.5559  -10.7611 C   0  0  0  0  0  0  0  0  0  0  0  0
  -14.0349  -37.9054  -11.2090 C   0  0  0  0  0  0  0  0  0  0  0  0
  -13.0655  -36.9301  -11.2724 C   0  0  0  0  0  0  0  0  0  0  0  0
  -11.7702  -37.2039  -11.6738 C   0  0  0  0  0  0  0  0  0  0  0  0
  -11.5160  -38.5219  -12.0060 C   0  0  0  0  0  0  0  0  0  0  0  0
  -12.4636  -39.4815  -11.9454 N   0  0  0  0  0  0  0  0  0  0  0  0
  -13.7284  -39.1996  -11.5507 C   0  0  0  0  0  0  0  0  0  0  0  0
  -10.7378  -36.1354  -11.7457 C   0  0  0  0  0  0  0  0  0  0  0  0
  -11.1088  -34.7398  -11.2350 C   0  0  0  0  0  0  0  0  0  0  0  0
  -10.9991  -34.9997  -12.7006 C   0  0  0  0  0  0  0  0  0  0  0  0
  2  1  1  6
  2  3  1  0
  3  4  2  0
  3  5  1  0
  5  6  1  0
  6  7  1  1
  7  8  1  0
  8  9  1  0
  9 10  2  0
 10 11  1  0
 11 12  1  0
 12 13  1  0
 13 14  1  0
 14 15  1  0
 15 16  1  0
 16 17  1  0
 17 18  2  0
 17 19  1  0
 19 20  1  0
 10 21  1  0
 21 22  2  0
 22 23  1  0
  6 24  1  0
 24 25  1  1
 24 26  1  0
 26 27  1  0
 27 28  1  0
 28 29  1  0
 29 30  2  0
 30 31  1  0
 31 32  2  0
 32 33  1  0
 33 34  2  0
 31 35  1  0
 35 36  1  0
 36 37  1  0
 19  2  1  0
 23  8  2  0
 34 29  1  0
 37 35  1  0
M  END
$$$$
