
     RDKit          3D

 37 39  0  0  0  0  0  0  0  0999 V2000
  -13.0722  -36.2999  -11.3006 C   0  0  0  0  0  0  0  0  0  0  0  0
  -12.9153  -37.3264  -10.1709 C   0  0  2  0  0  0  0  0  0  0  0  0
  -11.5676  -37.9391  -10.2956 C   0  0  0  0  0  0  0  0  0  0  0  0
  -11.2837  -38.6692  -11.5602 C   0  0  0  0  0  0  0  0  0  0  0  0
  -10.4447  -37.8729  -12.5557 C   0  0  0  0  0  0  0  0  0  0  0  0
   -9.8667  -38.7736  -13.6201 C   0  0  0  0  0  0  0  0  0  0  0  0
  -10.7265  -39.9667  -13.9035 C   0  0  0  0  0  0  0  0  0  0  0  0
  -11.9013  -39.6653  -14.8084 C   0  0  0  0  0  0  0  0  0  0  0  0
  -12.3881  -40.9089  -15.4436 C   0  0  0  0  0  0  0  0  0  0  0  0
  -13.4950  -41.5279  -14.9204 O   0  0  0  0  0  0  0  0  0  0  0  0
  -14.3888  -41.3907  -13.8834 C   0  0  0  0  0  0  0  0  0  0  0  0
  -14.1488  -41.3582  -12.5147 C   0  0  0  0  0  0  0  0  0  0  0  0
  -15.2019  -41.2111  -11.6430 C   0  0  0  0  0  0  0  0  0  0  0  0
  -16.5112  -41.0981  -12.1802 C   0  0  0  0  0  0  0  0  0  0  0  0
  -16.7970  -41.1252  -13.5186 C   0  0  0  0  0  0  0  0  0  0  0  0
  -15.7131  -41.2732  -14.3478 C   0  0  0  0  0  0  0  0  0  0  0  0
  -15.2785  -41.1505  -10.1799 C   0  0  0  0  0  0  0  0  0  0  0  0
  -16.2259  -41.8906   -9.6037 O   0  0  0  0  0  0  0  0  0  0  0  0
  -14.5380  -40.4490   -9.1973 N   0  0  0  0  0  0  0  0  0  0  0  0
  -14.3867  -39.0293   -9.0148 C   0  0  1  0  0  0  0  0  0  0  0  0
  -14.0828  -38.2487  -10.2460 C   0  0  0  0  0  0  0  0  0  0  0  0
  -15.5428  -38.4162   -8.2554 C   0  0  2  0  0  0  0  0  0  0  0  0
  -15.1055  -37.4610   -7.3409 O   0  0  0  0  0  0  0  0  0  0  0  0
  -16.3453  -39.4441   -7.5400 C   0  0  0  0  0  0  0  0  0  0  0  0
  -17.7393  -39.4468   -7.9884 N   0  0  0  0  0  0  0  0  0  0  0  0
  -18.5433  -40.2010   -7.0370 C   0  0  0  0  0  0  0  0  0  0  0  0
  -19.9628  -39.9965   -7.4240 C   0  0  0  0  0  0  0  0  0  0  0  0
  -20.9262  -40.7587   -6.7996 C   0  0  0  0  0  0  0  0  0  0  0  0
  -22.2654  -40.5944   -7.1382 C   0  0  0  0  0  0  0  0  0  0  0  0
  -23.3332  -41.4023   -6.4804 C   0  0  0  0  0  0  0  0  0  0  0  0
  -23.7712  -40.6806   -5.2159 C   0  0  0  0  0  0  0  0  0  0  0  0
  -24.9935  -41.3694   -4.6760 C   0  0  0  0  0  0  0  0  0  0  0  0
  -22.6167  -40.7155   -4.2389 C   0  0  0  0  0  0  0  0  0  0  0  0
  -24.1073  -39.2439   -5.4931 C   0  0  0  0  0  0  0  0  0  0  0  0
  -22.5508  -39.6560   -8.1010 C   0  0  0  0  0  0  0  0  0  0  0  0
  -21.6013  -38.9147   -8.7067 N   0  0  0  0  0  0  0  0  0  0  0  0
  -20.3053  -39.0683   -8.3842 C   0  0  0  0  0  0  0  0  0  0  0  0
  2  1  1  6
  2  3  1  0
  3  4  1  0
  4  5  1  0
  5  6  1  0
  6  7  1  0
  7  8  1  0
  8  9  1  0
  9 10  1  0
 10 11  1  0
 11 12  1  0
 12 13  2  0
 13 14  1  0
 14 15  2  0
 15 16  1  0
 13 17  1  0
 17 18  2  0
 17 19  1  0
 19 20  1  0
 20 21  1  6
 20 22  1  0
 22 23  1  1
 22 24  1  0
 24 25  1  0
 25 26  1  0
 26 27  1  0
 27 28  2  0
 28 29  1  0
 29 30  1  0
 30 31  1  0
 31 32  1  0
 31 33  1  0
 31 34  1  0
 29 35  2  0
 35 36  1  0
 36 37  2  0
 16 11  2  0
 21  2  1  0
 37 27  1  0
M  END
$$$$
