
     RDKit          3D

 37 39  0  0  0  0  0  0  0  0999 V2000
  -15.4480  -35.4075   -9.5293 C   0  0  0  0  0  0  0  0  0  0  0  0
  -15.0467  -36.8216   -9.0890 C   0  0  2  0  0  0  0  0  0  0  0  0
  -13.8661  -37.2313   -9.8924 C   0  0  0  0  0  0  0  0  0  0  0  0
  -14.0548  -37.2951  -11.3666 C   0  0  0  0  0  0  0  0  0  0  0  0
  -13.4933  -36.0876  -12.1119 C   0  0  0  0  0  0  0  0  0  0  0  0
  -13.3577  -36.3760  -13.5872 C   0  0  0  0  0  0  0  0  0  0  0  0
  -14.3698  -37.3621  -14.0835 C   0  0  0  0  0  0  0  0  0  0  0  0
  -15.7330  -36.7556  -14.3359 C   0  0  0  0  0  0  0  0  0  0  0  0
  -16.5051  -37.6060  -15.2673 C   0  0  0  0  0  0  0  0  0  0  0  0
  -17.4494  -38.4586  -14.7541 O   0  0  0  0  0  0  0  0  0  0  0  0
  -17.9634  -38.8566  -13.5415 C   0  0  0  0  0  0  0  0  0  0  0  0
  -17.3114  -39.4301  -12.4561 C   0  0  0  0  0  0  0  0  0  0  0  0
  -18.0262  -39.7542  -11.3271 C   0  0  0  0  0  0  0  0  0  0  0  0
  -19.4208  -39.4890  -11.3128 C   0  0  0  0  0  0  0  0  0  0  0  0
  -20.1064  -38.9272  -12.3558 C   0  0  0  0  0  0  0  0  0  0  0  0
  -19.3494  -38.6211  -13.4594 C   0  0  0  0  0  0  0  0  0  0  0  0
  -17.6422  -40.3640  -10.0501 C   0  0  0  0  0  0  0  0  0  0  0  0
  -18.4303  -41.3390   -9.5968 O   0  0  0  0  0  0  0  0  0  0  0  0
  -16.5731  -40.1380   -9.1489 N   0  0  0  0  0  0  0  0  0  0  0  0
  -16.2417  -38.9465   -8.4124 C   0  0  1  0  0  0  0  0  0  0  0  0
  -16.2609  -37.6785   -9.1929 C   0  0  0  0  0  0  0  0  0  0  0  0
  -17.0454  -38.8110   -7.1376 C   0  0  2  0  0  0  0  0  0  0  0  0
  -16.2828  -38.2665   -6.1071 O   0  0  0  0  0  0  0  0  0  0  0  0
  -17.6054  -40.1151   -6.6924 C   0  0  0  0  0  0  0  0  0  0  0  0
  -18.9992  -40.2739   -7.1123 N   0  0  0  0  0  0  0  0  0  0  0  0
  -19.8673  -39.6440   -6.1275 C   0  0  0  0  0  0  0  0  0  0  0  0
  -20.7435  -40.7146   -5.5866 C   0  0  0  0  0  0  0  0  0  0  0  0
  -21.4506  -40.4585   -4.4318 C   0  0  0  0  0  0  0  0  0  0  0  0
  -22.2799  -41.4387   -3.8965 C   0  0  0  0  0  0  0  0  0  0  0  0
  -23.0601  -41.1935   -2.6489 C   0  0  0  0  0  0  0  0  0  0  0  0
  -22.3510  -41.8849   -1.4953 C   0  0  0  0  0  0  0  0  0  0  0  0
  -22.1355  -43.3257   -1.8664 C   0  0  0  0  0  0  0  0  0  0  0  0
  -21.0480  -41.1568   -1.2492 C   0  0  0  0  0  0  0  0  0  0  0  0
  -23.1661  -41.8257   -0.2360 C   0  0  0  0  0  0  0  0  0  0  0  0
  -22.3434  -42.6339   -4.5723 C   0  0  0  0  0  0  0  0  0  0  0  0
  -21.6477  -42.8754   -5.7018 N   0  0  0  0  0  0  0  0  0  0  0  0
  -20.8445  -41.9326   -6.2245 C   0  0  0  0  0  0  0  0  0  0  0  0
  2  1  1  6
  2  3  1  0
  3  4  1  0
  4  5  1  0
  5  6  1  0
  6  7  1  0
  7  8  1  0
  8  9  1  0
  9 10  1  0
 10 11  1  0
 11 12  1  0
 12 13  2  0
 13 14  1  0
 14 15  2  0
 15 16  1  0
 13 17  1  0
 17 18  2  0
 17 19  1  0
 19 20  1  0
 20 21  1  6
 20 22  1  0
 22 23  1  1
 22 24  1  0
 24 25  1  0
 25 26  1  0
 26 27  1  0
 27 28  2  0
 28 29  1  0
 29 30  1  0
 30 31  1  0
 31 32  1  0
 31 33  1  0
 31 34  1  0
 29 35  2  0
 35 36  1  0
 36 37  2  0
 16 11  2  0
 21  2  1  0
 37 27  1  0
M  END
$$$$
