
     RDKit          3D

 37 39  0  0  0  0  0  0  0  0999 V2000
  -19.6871  -38.6131   -5.4805 C   0  0  0  0  0  0  0  0  0  0  0  0
  -19.2363  -38.4549   -6.9386 C   0  0  2  0  0  0  0  0  0  0  0  0
  -20.4384  -38.1517   -7.7571 C   0  0  0  0  0  0  0  0  0  0  0  0
  -21.5134  -39.1799   -7.7659 C   0  0  0  0  0  0  0  0  0  0  0  0
  -22.6899  -38.8483   -6.8521 C   0  0  0  0  0  0  0  0  0  0  0  0
  -23.8927  -39.6961   -7.1876 C   0  0  0  0  0  0  0  0  0  0  0  0
  -23.5236  -41.0357   -7.7467 C   0  0  0  0  0  0  0  0  0  0  0  0
  -23.1193  -42.0418   -6.6912 C   0  0  0  0  0  0  0  0  0  0  0  0
  -23.2630  -43.4169   -7.2158 C   0  0  0  0  0  0  0  0  0  0  0  0
  -22.1443  -44.0731   -7.6631 O   0  0  0  0  0  0  0  0  0  0  0  0
  -20.7955  -43.8623   -7.8337 C   0  0  0  0  0  0  0  0  0  0  0  0
  -20.1460  -42.8947   -8.5913 C   0  0  0  0  0  0  0  0  0  0  0  0
  -18.7717  -42.8638   -8.6215 C   0  0  0  0  0  0  0  0  0  0  0  0
  -18.0588  -43.8345   -7.8697 C   0  0  0  0  0  0  0  0  0  0  0  0
  -18.6532  -44.8060   -7.1104 C   0  0  0  0  0  0  0  0  0  0  0  0
  -20.0259  -44.7951   -7.1120 C   0  0  0  0  0  0  0  0  0  0  0  0
  -17.8132  -41.9965   -9.3137 C   0  0  0  0  0  0  0  0  0  0  0  0
  -16.8009  -42.6048   -9.9321 O   0  0  0  0  0  0  0  0  0  0  0  0
  -17.7174  -40.5931   -9.4789 N   0  0  0  0  0  0  0  0  0  0  0  0
  -17.5666  -39.5684   -8.4793 C   0  0  1  0  0  0  0  0  0  0  0  0
  -18.4685  -39.6795   -7.2995 C   0  0  0  0  0  0  0  0  0  0  0  0
  -16.1279  -39.3876   -8.0472 C   0  0  2  0  0  0  0  0  0  0  0  0
  -16.0416  -38.9158   -6.7396 O   0  0  0  0  0  0  0  0  0  0  0  0
  -15.3889  -38.4634   -8.9484 C   0  0  0  0  0  0  0  0  0  0  0  0
  -14.2175  -39.1118   -9.5413 N   0  0  0  0  0  0  0  0  0  0  0  0
  -13.8269  -38.3837  -10.7402 C   0  0  0  0  0  0  0  0  0  0  0  0
  -13.7450  -39.3828  -11.8365 C   0  0  0  0  0  0  0  0  0  0  0  0
  -12.6281  -39.3766  -12.6435 C   0  0  0  0  0  0  0  0  0  0  0  0
  -12.5185  -40.2973  -13.6805 C   0  0  0  0  0  0  0  0  0  0  0  0
  -11.3222  -40.3186  -14.5715 C   0  0  0  0  0  0  0  0  0  0  0  0
  -10.1560  -40.9101  -13.7956 C   0  0  0  0  0  0  0  0  0  0  0  0
   -8.9664  -40.9853  -14.7117 C   0  0  0  0  0  0  0  0  0  0  0  0
   -9.8996  -40.0234  -12.5971 C   0  0  0  0  0  0  0  0  0  0  0  0
  -10.4725  -42.2907  -13.2981 C   0  0  0  0  0  0  0  0  0  0  0  0
  -13.5605  -41.1795  -13.8388 C   0  0  0  0  0  0  0  0  0  0  0  0
  -14.6497  -41.1781  -13.0441 N   0  0  0  0  0  0  0  0  0  0  0  0
  -14.7619  -40.2912  -12.0401 C   0  0  0  0  0  0  0  0  0  0  0  0
  2  1  1  1
  2  3  1  0
  3  4  1  0
  4  5  1  0
  5  6  1  0
  6  7  1  0
  7  8  1  0
  8  9  1  0
  9 10  1  0
 10 11  1  0
 11 12  1  0
 12 13  2  0
 13 14  1  0
 14 15  2  0
 15 16  1  0
 13 17  1  0
 17 18  2  0
 17 19  1  0
 19 20  1  0
 20 21  1  1
 20 22  1  0
 22 23  1  1
 22 24  1  0
 24 25  1  0
 25 26  1  0
 26 27  1  0
 27 28  2  0
 28 29  1  0
 29 30  1  0
 30 31  1  0
 31 32  1  0
 31 33  1  0
 31 34  1  0
 29 35  2  0
 35 36  1  0
 36 37  2  0
 16 11  2  0
 21  2  1  0
 37 27  1  0
M  END
$$$$
