
     RDKit          3D

 37 39  0  0  0  0  0  0  0  0999 V2000
  -14.5021  -36.3303  -11.2225 C   0  0  0  0  0  0  0  0  0  0  0  0
  -14.0611  -37.1501  -10.0027 C   0  0  2  0  0  0  0  0  0  0  0  0
  -12.5813  -37.2734  -10.0470 C   0  0  0  0  0  0  0  0  0  0  0  0
  -12.0066  -37.9588  -11.2357 C   0  0  0  0  0  0  0  0  0  0  0  0
  -11.4402  -37.0041  -12.2829 C   0  0  0  0  0  0  0  0  0  0  0  0
  -10.5410  -37.7332  -13.2514 C   0  0  0  0  0  0  0  0  0  0  0  0
  -10.9312  -39.1665  -13.4426 C   0  0  0  0  0  0  0  0  0  0  0  0
  -12.0939  -39.3560  -14.3924 C   0  0  0  0  0  0  0  0  0  0  0  0
  -12.0997  -40.7365  -14.9224 C   0  0  0  0  0  0  0  0  0  0  0  0
  -12.9553  -41.6535  -14.3664 O   0  0  0  0  0  0  0  0  0  0  0  0
  -13.8913  -41.7495  -13.3627 C   0  0  0  0  0  0  0  0  0  0  0  0
  -13.7425  -41.5304  -11.9982 C   0  0  0  0  0  0  0  0  0  0  0  0
  -14.8237  -41.6844  -11.1627 C   0  0  0  0  0  0  0  0  0  0  0  0
  -16.0665  -42.0675  -11.7321 C   0  0  0  0  0  0  0  0  0  0  0  0
  -16.2617  -42.2949  -13.0677 C   0  0  0  0  0  0  0  0  0  0  0  0
  -15.1533  -42.1279  -13.8602 C   0  0  0  0  0  0  0  0  0  0  0  0
  -14.9862  -41.5397   -9.7127 C   0  0  0  0  0  0  0  0  0  0  0  0
  -15.6535  -42.5116   -9.0901 O   0  0  0  0  0  0  0  0  0  0  0  0
  -14.5751  -40.5532   -8.7833 N   0  0  0  0  0  0  0  0  0  0  0  0
  -14.9224  -39.1575   -8.7261 C   0  0  1  0  0  0  0  0  0  0  0  0
  -14.8423  -38.4186  -10.0164 C   0  0  0  0  0  0  0  0  0  0  0  0
  -16.2529  -38.9189   -8.0462 C   0  0  2  0  0  0  0  0  0  0  0  0
  -16.0940  -38.2715   -6.8232 O   0  0  0  0  0  0  0  0  0  0  0  0
  -17.0031  -40.1855   -7.8329 C   0  0  0  0  0  0  0  0  0  0  0  0
  -18.2528  -40.2059   -8.5958 N   0  0  0  0  0  0  0  0  0  0  0  0
  -18.5272  -41.5707   -9.0227 C   0  0  0  0  0  0  0  0  0  0  0  0
  -19.6497  -42.0613   -8.1826 C   0  0  0  0  0  0  0  0  0  0  0  0
  -20.6957  -41.2023   -7.9239 C   0  0  0  0  0  0  0  0  0  0  0  0
  -21.7630  -41.6280   -7.1399 C   0  0  0  0  0  0  0  0  0  0  0  0
  -22.9117  -40.7239   -6.8420 C   0  0  0  0  0  0  0  0  0  0  0  0
  -22.6260  -39.9989   -5.5365 C   0  0  0  0  0  0  0  0  0  0  0  0
  -21.3317  -39.2485   -5.6841 C   0  0  0  0  0  0  0  0  0  0  0  0
  -23.7921  -39.0776   -5.2534 C   0  0  0  0  0  0  0  0  0  0  0  0
  -22.5002  -40.9612   -4.3911 C   0  0  0  0  0  0  0  0  0  0  0  0
  -21.7050  -42.9145   -6.6596 C   0  0  0  0  0  0  0  0  0  0  0  0
  -20.6772  -43.7481   -6.9180 N   0  0  0  0  0  0  0  0  0  0  0  0
  -19.6427  -43.3431   -7.6750 C   0  0  0  0  0  0  0  0  0  0  0  0
  2  1  1  6
  2  3  1  0
  3  4  1  0
  4  5  1  0
  5  6  1  0
  6  7  1  0
  7  8  1  0
  8  9  1  0
  9 10  1  0
 10 11  1  0
 11 12  1  0
 12 13  2  0
 13 14  1  0
 14 15  2  0
 15 16  1  0
 13 17  1  0
 17 18  2  0
 17 19  1  0
 19 20  1  0
 20 21  1  6
 20 22  1  0
 22 23  1  1
 22 24  1  0
 24 25  1  0
 25 26  1  0
 26 27  1  0
 27 28  2  0
 28 29  1  0
 29 30  1  0
 30 31  1  0
 31 32  1  0
 31 33  1  0
 31 34  1  0
 29 35  2  0
 35 36  1  0
 36 37  2  0
 16 11  2  0
 21  2  1  0
 37 27  1  0
M  END
$$$$
