
     RDKit          3D

 37 39  0  0  0  0  0  0  0  0999 V2000
  -19.6366  -37.1240   -6.2970 C   0  0  0  0  0  0  0  0  0  0  0  0
  -19.3180  -37.7308   -7.6699 C   0  0  2  0  0  0  0  0  0  0  0  0
  -20.5728  -37.7429   -8.4652 C   0  0  0  0  0  0  0  0  0  0  0  0
  -21.7020  -38.5386   -7.9133 C   0  0  0  0  0  0  0  0  0  0  0  0
  -22.7648  -37.6959   -7.2137 C   0  0  0  0  0  0  0  0  0  0  0  0
  -24.0416  -38.4790   -7.0274 C   0  0  0  0  0  0  0  0  0  0  0  0
  -23.8064  -39.9510   -6.8828 C   0  0  0  0  0  0  0  0  0  0  0  0
  -23.3631  -40.3600   -5.4950 C   0  0  0  0  0  0  0  0  0  0  0  0
  -23.6362  -41.7965   -5.2749 C   0  0  0  0  0  0  0  0  0  0  0  0
  -22.6055  -42.6923   -5.4067 O   0  0  0  0  0  0  0  0  0  0  0  0
  -21.2690  -42.7219   -5.7320 C   0  0  0  0  0  0  0  0  0  0  0  0
  -20.6391  -42.3059   -6.8992 C   0  0  0  0  0  0  0  0  0  0  0  0
  -19.2744  -42.4273   -7.0158 C   0  0  0  0  0  0  0  0  0  0  0  0
  -18.5513  -42.9813   -5.9269 C   0  0  0  0  0  0  0  0  0  0  0  0
  -19.1265  -43.4051   -4.7594 C   0  0  0  0  0  0  0  0  0  0  0  0
  -20.4901  -43.2628   -4.6909 C   0  0  0  0  0  0  0  0  0  0  0  0
  -18.3371  -42.0974   -8.0941 C   0  0  0  0  0  0  0  0  0  0  0  0
  -17.4255  -43.0233   -8.3925 O   0  0  0  0  0  0  0  0  0  0  0  0
  -18.1755  -40.9630   -8.9266 N   0  0  0  0  0  0  0  0  0  0  0  0
  -17.8706  -39.6043   -8.5624 C   0  0  1  0  0  0  0  0  0  0  0  0
  -18.6610  -39.0463   -7.4304 C   0  0  0  0  0  0  0  0  0  0  0  0
  -16.3892  -39.3790   -8.3526 C   0  0  2  0  0  0  0  0  0  0  0  0
  -16.1267  -38.0882   -7.9002 O   0  0  0  0  0  0  0  0  0  0  0  0
  -15.6079  -39.6287   -9.5934 C   0  0  0  0  0  0  0  0  0  0  0  0
  -14.2869  -38.9996   -9.5335 N   0  0  0  0  0  0  0  0  0  0  0  0
  -13.2740  -40.0344   -9.3800 C   0  0  0  0  0  0  0  0  0  0  0  0
  -13.0516  -40.6149  -10.7291 C   0  0  0  0  0  0  0  0  0  0  0  0
  -11.8373  -41.2114  -10.9912 C   0  0  0  0  0  0  0  0  0  0  0  0
  -11.5942  -41.7644  -12.2442 C   0  0  0  0  0  0  0  0  0  0  0  0
  -10.2912  -42.4187  -12.5603 C   0  0  0  0  0  0  0  0  0  0  0  0
   -9.2814  -41.3358  -12.9058 C   0  0  0  0  0  0  0  0  0  0  0  0
   -7.9296  -41.9772  -13.0517 C   0  0  0  0  0  0  0  0  0  0  0  0
   -9.7381  -40.6670  -14.1836 C   0  0  0  0  0  0  0  0  0  0  0  0
   -9.2083  -40.2910  -11.8301 C   0  0  0  0  0  0  0  0  0  0  0  0
  -12.6089  -41.6784  -13.1673 C   0  0  0  0  0  0  0  0  0  0  0  0
  -13.7940  -41.0928  -12.9017 N   0  0  0  0  0  0  0  0  0  0  0  0
  -14.0356  -40.5565  -11.6929 C   0  0  0  0  0  0  0  0  0  0  0  0
  2  1  1  1
  2  3  1  0
  3  4  1  0
  4  5  1  0
  5  6  1  0
  6  7  1  0
  7  8  1  0
  8  9  1  0
  9 10  1  0
 10 11  1  0
 11 12  1  0
 12 13  2  0
 13 14  1  0
 14 15  2  0
 15 16  1  0
 13 17  1  0
 17 18  2  0
 17 19  1  0
 19 20  1  0
 20 21  1  1
 20 22  1  0
 22 23  1  6
 22 24  1  0
 24 25  1  0
 25 26  1  0
 26 27  1  0
 27 28  2  0
 28 29  1  0
 29 30  1  0
 30 31  1  0
 31 32  1  0
 31 33  1  0
 31 34  1  0
 29 35  2  0
 35 36  1  0
 36 37  2  0
 16 11  2  0
 21  2  1  0
 37 27  1  0
M  END
$$$$
