
     RDKit          3D

 37 39  0  0  0  0  0  0  0  0999 V2000
  -20.1152  -39.1018   -4.8752 C   0  0  0  0  0  0  0  0  0  0  0  0
  -19.8838  -38.7033   -6.3388 C   0  0  2  0  0  0  0  0  0  0  0  0
  -21.2118  -38.5823   -6.9937 C   0  0  0  0  0  0  0  0  0  0  0  0
  -22.0509  -39.8102   -7.0271 C   0  0  0  0  0  0  0  0  0  0  0  0
  -23.1517  -39.8325   -5.9703 C   0  0  0  0  0  0  0  0  0  0  0  0
  -24.1906  -40.8792   -6.2915 C   0  0  0  0  0  0  0  0  0  0  0  0
  -23.6293  -42.0448   -7.0460 C   0  0  0  0  0  0  0  0  0  0  0  0
  -22.9070  -43.0434   -6.1679 C   0  0  0  0  0  0  0  0  0  0  0  0
  -22.8328  -44.3567   -6.8435 C   0  0  0  0  0  0  0  0  0  0  0  0
  -21.6669  -44.7096   -7.4745 O   0  0  0  0  0  0  0  0  0  0  0  0
  -20.4186  -44.1992   -7.7465 C   0  0  0  0  0  0  0  0  0  0  0  0
  -20.0730  -43.0431   -8.4365 C   0  0  0  0  0  0  0  0  0  0  0  0
  -18.7468  -42.7164   -8.5947 C   0  0  0  0  0  0  0  0  0  0  0  0
  -17.7681  -43.5836   -8.0417 C   0  0  0  0  0  0  0  0  0  0  0  0
  -18.0592  -44.7317   -7.3557 C   0  0  0  0  0  0  0  0  0  0  0  0
  -19.3960  -45.0144   -7.2240 C   0  0  0  0  0  0  0  0  0  0  0  0
  -18.0727  -41.5984   -9.2623 C   0  0  0  0  0  0  0  0  0  0  0  0
  -17.0403  -41.9101  -10.0462 O   0  0  0  0  0  0  0  0  0  0  0  0
  -18.2818  -40.1976   -9.2599 N   0  0  0  0  0  0  0  0  0  0  0  0
  -18.2215  -39.2715   -8.1596 C   0  0  1  0  0  0  0  0  0  0  0  0
  -18.9342  -39.6922   -6.9216 C   0  0  0  0  0  0  0  0  0  0  0  0
  -16.8074  -38.8323   -7.8487 C   0  0  2  0  0  0  0  0  0  0  0  0
  -16.7544  -37.4842   -7.5027 O   0  0  0  0  0  0  0  0  0  0  0  0
  -15.8853  -39.0791   -8.9894 C   0  0  0  0  0  0  0  0  0  0  0  0
  -14.8055  -38.0909   -9.0323 N   0  0  0  0  0  0  0  0  0  0  0  0
  -14.8249  -37.4212  -10.3251 C   0  0  0  0  0  0  0  0  0  0  0  0
  -14.0848  -38.2976  -11.2690 C   0  0  0  0  0  0  0  0  0  0  0  0
  -13.8685  -39.6099  -10.9086 C   0  0  0  0  0  0  0  0  0  0  0  0
  -13.1781  -40.4586  -11.7677 C   0  0  0  0  0  0  0  0  0  0  0  0
  -12.9282  -41.8849  -11.4088 C   0  0  0  0  0  0  0  0  0  0  0  0
  -11.5227  -41.9978  -10.8401 C   0  0  0  0  0  0  0  0  0  0  0  0
  -11.2887  -43.4262  -10.4341 C   0  0  0  0  0  0  0  0  0  0  0  0
  -10.5528  -41.5404  -11.9072 C   0  0  0  0  0  0  0  0  0  0  0  0
  -11.3455  -41.1170   -9.6372 C   0  0  0  0  0  0  0  0  0  0  0  0
  -12.7433  -39.9193  -12.9548 C   0  0  0  0  0  0  0  0  0  0  0  0
  -12.9597  -38.6337  -13.2990 N   0  0  0  0  0  0  0  0  0  0  0  0
  -13.6263  -37.8082  -12.4735 C   0  0  0  0  0  0  0  0  0  0  0  0
  2  1  1  1
  2  3  1  0
  3  4  1  0
  4  5  1  0
  5  6  1  0
  6  7  1  0
  7  8  1  0
  8  9  1  0
  9 10  1  0
 10 11  1  0
 11 12  1  0
 12 13  2  0
 13 14  1  0
 14 15  2  0
 15 16  1  0
 13 17  1  0
 17 18  2  0
 17 19  1  0
 19 20  1  0
 20 21  1  1
 20 22  1  0
 22 23  1  6
 22 24  1  0
 24 25  1  0
 25 26  1  0
 26 27  1  0
 27 28  2  0
 28 29  1  0
 29 30  1  0
 30 31  1  0
 31 32  1  0
 31 33  1  0
 31 34  1  0
 29 35  2  0
 35 36  1  0
 36 37  2  0
 16 11  2  0
 21  2  1  0
 37 27  1  0
M  END
$$$$
