
     RDKit          3D

 37 39  0  0  0  0  0  0  0  0999 V2000
  -11.3780  -38.6964   -9.3745 C   0  0  0  0  0  0  0  0  0  0  0  0
  -11.9767  -39.6529   -8.3348 C   0  0  2  0  0  0  0  0  0  0  0  0
  -11.0055  -40.7558   -8.1173 C   0  0  0  0  0  0  0  0  0  0  0  0
  -10.6709  -41.5903   -9.3026 C   0  0  0  0  0  0  0  0  0  0  0  0
   -9.3340  -41.2356   -9.9475 C   0  0  0  0  0  0  0  0  0  0  0  0
   -8.8690  -42.3350  -10.8712 C   0  0  0  0  0  0  0  0  0  0  0  0
  -10.0020  -43.0981  -11.4853 C   0  0  0  0  0  0  0  0  0  0  0  0
  -10.6407  -42.3917  -12.6613 C   0  0  0  0  0  0  0  0  0  0  0  0
  -11.3646  -43.3639  -13.5084 C   0  0  0  0  0  0  0  0  0  0  0  0
  -12.7261  -43.4691  -13.3766 O   0  0  0  0  0  0  0  0  0  0  0  0
  -13.7573  -42.9448  -12.6319 C   0  0  0  0  0  0  0  0  0  0  0  0
  -13.9394  -42.9539  -11.2539 C   0  0  0  0  0  0  0  0  0  0  0  0
  -15.0568  -42.3640  -10.7117 C   0  0  0  0  0  0  0  0  0  0  0  0
  -15.9949  -41.7615  -11.5906 C   0  0  0  0  0  0  0  0  0  0  0  0
  -15.8597  -41.7280  -12.9523 C   0  0  0  0  0  0  0  0  0  0  0  0
  -14.7283  -42.3293  -13.4452 C   0  0  0  0  0  0  0  0  0  0  0  0
  -15.5315  -42.2175   -9.3321 C   0  0  0  0  0  0  0  0  0  0  0  0
  -16.8171  -42.4949   -9.1139 O   0  0  0  0  0  0  0  0  0  0  0  0
  -14.9014  -41.8286   -8.1247 N   0  0  0  0  0  0  0  0  0  0  0  0
  -14.2672  -40.5802   -7.7916 C   0  0  1  0  0  0  0  0  0  0  0  0
  -13.3333  -40.0366   -8.8162 C   0  0  0  0  0  0  0  0  0  0  0  0
  -15.2587  -39.5267   -7.3482 C   0  0  2  0  0  0  0  0  0  0  0  0
  -15.3095  -39.4235   -5.9602 O   0  0  0  0  0  0  0  0  0  0  0  0
  -16.6263  -39.7973   -7.8669 C   0  0  0  0  0  0  0  0  0  0  0  0
  -17.2598  -38.5791   -8.3756 N   0  0  0  0  0  0  0  0  0  0  0  0
  -18.3403  -38.9470   -9.2798 C   0  0  0  0  0  0  0  0  0  0  0  0
  -19.3977  -39.5738   -8.4457 C   0  0  0  0  0  0  0  0  0  0  0  0
  -19.9604  -38.8262   -7.4342 C   0  0  0  0  0  0  0  0  0  0  0  0
  -20.9524  -39.3817   -6.6328 C   0  0  0  0  0  0  0  0  0  0  0  0
  -21.5833  -38.5993   -5.5303 C   0  0  0  0  0  0  0  0  0  0  0  0
  -22.7693  -37.8373   -6.1000 C   0  0  0  0  0  0  0  0  0  0  0  0
  -23.5246  -37.2140   -4.9594 C   0  0  0  0  0  0  0  0  0  0  0  0
  -22.2349  -36.8025   -7.0654 C   0  0  0  0  0  0  0  0  0  0  0  0
  -23.6950  -38.7477   -6.8539 C   0  0  0  0  0  0  0  0  0  0  0  0
  -21.3187  -40.6775   -6.9084 C   0  0  0  0  0  0  0  0  0  0  0  0
  -20.7624  -41.4015   -7.9005 N   0  0  0  0  0  0  0  0  0  0  0  0
  -19.8033  -40.8707   -8.6788 C   0  0  0  0  0  0  0  0  0  0  0  0
  2  1  1  6
  2  3  1  0
  3  4  1  0
  4  5  1  0
  5  6  1  0
  6  7  1  0
  7  8  1  0
  8  9  1  0
  9 10  1  0
 10 11  1  0
 11 12  1  0
 12 13  2  0
 13 14  1  0
 14 15  2  0
 15 16  1  0
 13 17  1  0
 17 18  2  0
 17 19  1  0
 19 20  1  0
 20 21  1  6
 20 22  1  0
 22 23  1  1
 22 24  1  0
 24 25  1  0
 25 26  1  0
 26 27  1  0
 27 28  2  0
 28 29  1  0
 29 30  1  0
 30 31  1  0
 31 32  1  0
 31 33  1  0
 31 34  1  0
 29 35  2  0
 35 36  1  0
 36 37  2  0
 16 11  2  0
 21  2  1  0
 37 27  1  0
M  END
$$$$
