
     RDKit          3D

 37 39  0  0  0  0  0  0  0  0999 V2000
  -19.2512  -39.1782   -5.6809 C   0  0  0  0  0  0  0  0  0  0  0  0
  -18.8075  -38.4915   -6.9794 C   0  0  2  0  0  0  0  0  0  0  0  0
  -20.0247  -37.9946   -7.6712 C   0  0  0  0  0  0  0  0  0  0  0  0
  -21.0290  -39.0182   -8.0669 C   0  0  0  0  0  0  0  0  0  0  0  0
  -22.2276  -39.1006   -7.1259 C   0  0  0  0  0  0  0  0  0  0  0  0
  -23.3705  -39.8488   -7.7679 C   0  0  0  0  0  0  0  0  0  0  0  0
  -22.9117  -40.8820   -8.7502 C   0  0  0  0  0  0  0  0  0  0  0  0
  -22.4446  -42.1677   -8.1030 C   0  0  0  0  0  0  0  0  0  0  0  0
  -22.4951  -43.2776   -9.0789 C   0  0  0  0  0  0  0  0  0  0  0  0
  -21.3340  -43.6656   -9.6980 O   0  0  0  0  0  0  0  0  0  0  0  0
  -20.0017  -43.3264   -9.7490 C   0  0  0  0  0  0  0  0  0  0  0  0
  -19.4156  -42.1168  -10.1033 C   0  0  0  0  0  0  0  0  0  0  0  0
  -18.0463  -41.9933  -10.0850 C   0  0  0  0  0  0  0  0  0  0  0  0
  -17.2728  -43.1205   -9.7017 C   0  0  0  0  0  0  0  0  0  0  0  0
  -17.8036  -44.3309   -9.3457 C   0  0  0  0  0  0  0  0  0  0  0  0
  -19.1740  -44.4041   -9.3792 C   0  0  0  0  0  0  0  0  0  0  0  0
  -17.1454  -40.8815  -10.4049 C   0  0  0  0  0  0  0  0  0  0  0  0
  -16.0931  -41.1713  -11.1704 O   0  0  0  0  0  0  0  0  0  0  0  0
  -17.1425  -39.5062  -10.0664 N   0  0  0  0  0  0  0  0  0  0  0  0
  -17.0630  -38.8899   -8.7681 C   0  0  1  0  0  0  0  0  0  0  0  0
  -17.9590  -39.4625   -7.7256 C   0  0  0  0  0  0  0  0  0  0  0  0
  -15.6408  -38.7845   -8.2627 C   0  0  2  0  0  0  0  0  0  0  0  0
  -15.3523  -37.4994   -7.8100 O   0  0  0  0  0  0  0  0  0  0  0  0
  -14.6509  -39.1677   -9.3047 C   0  0  0  0  0  0  0  0  0  0  0  0
  -13.2770  -38.9428   -8.8506 N   0  0  0  0  0  0  0  0  0  0  0  0
  -12.3574  -39.3087   -9.9186 C   0  0  0  0  0  0  0  0  0  0  0  0
  -12.3013  -38.1503  -10.8468 C   0  0  0  0  0  0  0  0  0  0  0  0
  -12.1085  -38.3975  -12.1887 C   0  0  0  0  0  0  0  0  0  0  0  0
  -12.0497  -37.3364  -13.0863 C   0  0  0  0  0  0  0  0  0  0  0  0
  -11.8435  -37.5693  -14.5453 C   0  0  0  0  0  0  0  0  0  0  0  0
  -13.1127  -37.1676  -15.2797 C   0  0  0  0  0  0  0  0  0  0  0  0
  -13.4931  -38.2824  -16.2139 C   0  0  0  0  0  0  0  0  0  0  0  0
  -14.1823  -36.8994  -14.2440 C   0  0  0  0  0  0  0  0  0  0  0  0
  -12.9097  -35.9134  -16.0795 C   0  0  0  0  0  0  0  0  0  0  0  0
  -12.1916  -36.0733  -12.5632 C   0  0  0  0  0  0  0  0  0  0  0  0
  -12.3800  -35.8411  -11.2484 N   0  0  0  0  0  0  0  0  0  0  0  0
  -12.4379  -36.8619  -10.3756 C   0  0  0  0  0  0  0  0  0  0  0  0
  2  1  1  1
  2  3  1  0
  3  4  1  0
  4  5  1  0
  5  6  1  0
  6  7  1  0
  7  8  1  0
  8  9  1  0
  9 10  1  0
 10 11  1  0
 11 12  1  0
 12 13  2  0
 13 14  1  0
 14 15  2  0
 15 16  1  0
 13 17  1  0
 17 18  2  0
 17 19  1  0
 19 20  1  0
 20 21  1  1
 20 22  1  0
 22 23  1  6
 22 24  1  0
 24 25  1  0
 25 26  1  0
 26 27  1  0
 27 28  2  0
 28 29  1  0
 29 30  1  0
 30 31  1  0
 31 32  1  0
 31 33  1  0
 31 34  1  0
 29 35  2  0
 35 36  1  0
 36 37  2  0
 16 11  2  0
 21  2  1  0
 37 27  1  0
M  END
$$$$
