
     RDKit          3D

 37 39  0  0  0  0  0  0  0  0999 V2000
  -19.2459  -40.9729   -4.2480 C   0  0  0  0  0  0  0  0  0  0  0  0
  -18.9166  -39.9845   -5.3746 C   0  0  2  0  0  0  0  0  0  0  0  0
  -20.1247  -39.1561   -5.6219 C   0  0  0  0  0  0  0  0  0  0  0  0
  -21.3507  -39.8805   -6.0525 C   0  0  0  0  0  0  0  0  0  0  0  0
  -22.3634  -40.0970   -4.9316 C   0  0  0  0  0  0  0  0  0  0  0  0
  -23.7163  -40.4695   -5.4877 C   0  0  0  0  0  0  0  0  0  0  0  0
  -23.6287  -41.2042   -6.7898 C   0  0  0  0  0  0  0  0  0  0  0  0
  -23.2971  -42.6726   -6.6355 C   0  0  0  0  0  0  0  0  0  0  0  0
  -23.7155  -43.4194   -7.8414 C   0  0  0  0  0  0  0  0  0  0  0  0
  -22.7685  -43.7404   -8.7807 O   0  0  0  0  0  0  0  0  0  0  0  0
  -21.4259  -43.5674   -9.0267 C   0  0  0  0  0  0  0  0  0  0  0  0
  -20.7010  -42.3887   -9.1570 C   0  0  0  0  0  0  0  0  0  0  0  0
  -19.3497  -42.4452   -9.4050 C   0  0  0  0  0  0  0  0  0  0  0  0
  -18.7385  -43.7212   -9.5217 C   0  0  0  0  0  0  0  0  0  0  0  0
  -19.4098  -44.9081   -9.4021 C   0  0  0  0  0  0  0  0  0  0  0  0
  -20.7556  -44.7993   -9.1543 C   0  0  0  0  0  0  0  0  0  0  0  0
  -18.3317  -41.4077   -9.5985 C   0  0  0  0  0  0  0  0  0  0  0  0
  -17.4976  -41.5782  -10.6244 O   0  0  0  0  0  0  0  0  0  0  0  0
  -18.0216  -40.2111   -8.9072 N   0  0  0  0  0  0  0  0  0  0  0  0
  -17.6088  -40.0321   -7.5400 C   0  0  1  0  0  0  0  0  0  0  0  0
  -18.3997  -40.7797   -6.5235 C   0  0  0  0  0  0  0  0  0  0  0  0
  -16.1254  -40.2598   -7.3479 C   0  0  2  0  0  0  0  0  0  0  0  0
  -15.5701  -39.3173   -6.4858 O   0  0  0  0  0  0  0  0  0  0  0  0
  -15.3874  -40.2335   -8.6391 C   0  0  0  0  0  0  0  0  0  0  0  0
  -15.4589  -38.9155   -9.2732 N   0  0  0  0  0  0  0  0  0  0  0  0
  -14.2472  -38.6951  -10.0499 C   0  0  0  0  0  0  0  0  0  0  0  0
  -14.6735  -38.1032  -11.3440 C   0  0  0  0  0  0  0  0  0  0  0  0
  -13.7768  -37.3098  -12.0261 C   0  0  0  0  0  0  0  0  0  0  0  0
  -14.1427  -36.7383  -13.2404 C   0  0  0  0  0  0  0  0  0  0  0  0
  -13.1956  -35.8757  -14.0049 C   0  0  0  0  0  0  0  0  0  0  0  0
  -13.1987  -34.4891  -13.3812 C   0  0  0  0  0  0  0  0  0  0  0  0
  -12.2305  -33.6255  -14.1407 C   0  0  0  0  0  0  0  0  0  0  0  0
  -14.6127  -33.9554  -13.4451 C   0  0  0  0  0  0  0  0  0  0  0  0
  -12.7797  -34.5351  -11.9403 C   0  0  0  0  0  0  0  0  0  0  0  0
  -15.4111  -37.0089  -13.6956 C   0  0  0  0  0  0  0  0  0  0  0  0
  -16.2818  -37.7866  -13.0211 N   0  0  0  0  0  0  0  0  0  0  0  0
  -15.9346  -38.3420  -11.8472 C   0  0  0  0  0  0  0  0  0  0  0  0
  2  1  1  1
  2  3  1  0
  3  4  1  0
  4  5  1  0
  5  6  1  0
  6  7  1  0
  7  8  1  0
  8  9  1  0
  9 10  1  0
 10 11  1  0
 11 12  1  0
 12 13  2  0
 13 14  1  0
 14 15  2  0
 15 16  1  0
 13 17  1  0
 17 18  2  0
 17 19  1  0
 19 20  1  0
 20 21  1  1
 20 22  1  0
 22 23  1  1
 22 24  1  0
 24 25  1  0
 25 26  1  0
 26 27  1  0
 27 28  2  0
 28 29  1  0
 29 30  1  0
 30 31  1  0
 31 32  1  0
 31 33  1  0
 31 34  1  0
 29 35  2  0
 35 36  1  0
 36 37  2  0
 16 11  2  0
 21  2  1  0
 37 27  1  0
M  END
$$$$
