
     RDKit          3D

 37 39  0  0  0  0  0  0  0  0999 V2000
  -20.0760  -39.1646   -5.2967 C   0  0  0  0  0  0  0  0  0  0  0  0
  -19.4057  -38.9291   -6.6568 C   0  0  2  0  0  0  0  0  0  0  0  0
  -20.4563  -38.4971   -7.6142 C   0  0  0  0  0  0  0  0  0  0  0  0
  -21.5662  -39.4564   -7.8606 C   0  0  0  0  0  0  0  0  0  0  0  0
  -22.8484  -39.1220   -7.1037 C   0  0  0  0  0  0  0  0  0  0  0  0
  -24.0272  -39.8706   -7.6766 C   0  0  0  0  0  0  0  0  0  0  0  0
  -23.6438  -41.1861   -8.2812 C   0  0  0  0  0  0  0  0  0  0  0  0
  -23.4503  -42.2877   -7.2619 C   0  0  0  0  0  0  0  0  0  0  0  0
  -23.5802  -43.6106   -7.9097 C   0  0  0  0  0  0  0  0  0  0  0  0
  -22.4402  -44.2983   -8.2409 O   0  0  0  0  0  0  0  0  0  0  0  0
  -21.0725  -44.1562   -8.1968 C   0  0  0  0  0  0  0  0  0  0  0  0
  -20.2715  -43.1770   -8.7726 C   0  0  0  0  0  0  0  0  0  0  0  0
  -18.9081  -43.2257   -8.6006 C   0  0  0  0  0  0  0  0  0  0  0  0
  -18.3629  -44.2884   -7.8332 C   0  0  0  0  0  0  0  0  0  0  0  0
  -19.1099  -45.2749   -7.2480 C   0  0  0  0  0  0  0  0  0  0  0  0
  -20.4649  -45.1824   -7.4478 C   0  0  0  0  0  0  0  0  0  0  0  0
  -17.8165  -42.3694   -9.0751 C   0  0  0  0  0  0  0  0  0  0  0  0
  -16.7538  -42.9908   -9.5867 O   0  0  0  0  0  0  0  0  0  0  0  0
  -17.6296  -40.9659   -9.1122 N   0  0  0  0  0  0  0  0  0  0  0  0
  -17.5805  -40.0264   -8.0229 C   0  0  1  0  0  0  0  0  0  0  0  0
  -18.6525  -40.1681   -6.9990 C   0  0  0  0  0  0  0  0  0  0  0  0
  -16.2153  -39.9628   -7.3736 C   0  0  2  0  0  0  0  0  0  0  0  0
  -16.2146  -39.1202   -6.2646 O   0  0  0  0  0  0  0  0  0  0  0  0
  -15.1665  -39.5131   -8.3278 C   0  0  0  0  0  0  0  0  0  0  0  0
  -14.3202  -40.6265   -8.7615 N   0  0  0  0  0  0  0  0  0  0  0  0
  -13.0679  -40.0970   -9.2825 C   0  0  0  0  0  0  0  0  0  0  0  0
  -13.3981  -39.3913  -10.5472 C   0  0  0  0  0  0  0  0  0  0  0  0
  -13.2268  -38.0249  -10.5965 C   0  0  0  0  0  0  0  0  0  0  0  0
  -13.5273  -37.3314  -11.7643 C   0  0  0  0  0  0  0  0  0  0  0  0
  -13.3517  -35.8525  -11.8516 C   0  0  0  0  0  0  0  0  0  0  0  0
  -12.0774  -35.5653  -12.6296 C   0  0  0  0  0  0  0  0  0  0  0  0
  -12.0920  -36.3919  -13.8852 C   0  0  0  0  0  0  0  0  0  0  0  0
  -12.0376  -34.0816  -12.9222 C   0  0  0  0  0  0  0  0  0  0  0  0
  -10.8561  -35.9186  -11.8311 C   0  0  0  0  0  0  0  0  0  0  0  0
  -13.9890  -38.0739  -12.8248 C   0  0  0  0  0  0  0  0  0  0  0  0
  -14.1535  -39.4110  -12.7674 N   0  0  0  0  0  0  0  0  0  0  0  0
  -13.8650  -40.0873  -11.6420 C   0  0  0  0  0  0  0  0  0  0  0  0
  2  1  1  1
  2  3  1  0
  3  4  1  0
  4  5  1  0
  5  6  1  0
  6  7  1  0
  7  8  1  0
  8  9  1  0
  9 10  1  0
 10 11  1  0
 11 12  1  0
 12 13  2  0
 13 14  1  0
 14 15  2  0
 15 16  1  0
 13 17  1  0
 17 18  2  0
 17 19  1  0
 19 20  1  0
 20 21  1  1
 20 22  1  0
 22 23  1  1
 22 24  1  0
 24 25  1  0
 25 26  1  0
 26 27  1  0
 27 28  2  0
 28 29  1  0
 29 30  1  0
 30 31  1  0
 31 32  1  0
 31 33  1  0
 31 34  1  0
 29 35  2  0
 35 36  1  0
 36 37  2  0
 16 11  2  0
 21  2  1  0
 37 27  1  0
M  END
$$$$
