
     RDKit          3D

 37 39  0  0  0  0  0  0  0  0999 V2000
  -16.5436  -36.3090  -10.7164 C   0  0  0  0  0  0  0  0  0  0  0  0
  -15.6907  -36.7362   -9.5145 C   0  0  2  0  0  0  0  0  0  0  0  0
  -14.3446  -36.1275   -9.6713 C   0  0  0  0  0  0  0  0  0  0  0  0
  -13.5757  -36.5176  -10.8835 C   0  0  0  0  0  0  0  0  0  0  0  0
  -13.6079  -35.4730  -11.9956 C   0  0  0  0  0  0  0  0  0  0  0  0
  -12.5229  -35.7303  -13.0128 C   0  0  0  0  0  0  0  0  0  0  0  0
  -12.1727  -37.1812  -13.1366 C   0  0  0  0  0  0  0  0  0  0  0  0
  -13.1454  -37.9685  -13.9875 C   0  0  0  0  0  0  0  0  0  0  0  0
  -12.5052  -39.2071  -14.4804 C   0  0  0  0  0  0  0  0  0  0  0  0
  -12.7707  -40.3888  -13.8361 O   0  0  0  0  0  0  0  0  0  0  0  0
  -13.4825  -40.8668  -12.7601 C   0  0  0  0  0  0  0  0  0  0  0  0
  -13.3836  -40.5212  -11.4174 C   0  0  0  0  0  0  0  0  0  0  0  0
  -14.2029  -41.1304  -10.4963 C   0  0  0  0  0  0  0  0  0  0  0  0
  -15.1294  -42.1025  -10.9569 C   0  0  0  0  0  0  0  0  0  0  0  0
  -15.2629  -42.4761  -12.2669 C   0  0  0  0  0  0  0  0  0  0  0  0
  -14.4239  -41.8398  -13.1476 C   0  0  0  0  0  0  0  0  0  0  0  0
  -14.3340  -40.9959   -9.0421 C   0  0  0  0  0  0  0  0  0  0  0  0
  -14.4049  -42.1299   -8.3449 O   0  0  0  0  0  0  0  0  0  0  0  0
  -14.4063  -39.8799   -8.1730 N   0  0  0  0  0  0  0  0  0  0  0  0
  -15.3878  -38.8281   -8.1240 C   0  0  1  0  0  0  0  0  0  0  0  0
  -15.7514  -38.2226   -9.4350 C   0  0  0  0  0  0  0  0  0  0  0  0
  -16.6246  -39.2254   -7.3484 C   0  0  2  0  0  0  0  0  0  0  0  0
  -16.3561  -39.3548   -5.9878 O   0  0  0  0  0  0  0  0  0  0  0  0
  -17.2122  -40.4958   -7.8519 C   0  0  0  0  0  0  0  0  0  0  0  0
  -18.3676  -40.2488   -8.7170 N   0  0  0  0  0  0  0  0  0  0  0  0
  -18.8102  -41.5115   -9.2913 C   0  0  0  0  0  0  0  0  0  0  0  0
  -20.1790  -41.7589   -8.7702 C   0  0  0  0  0  0  0  0  0  0  0  0
  -20.3867  -41.6676   -7.4110 C   0  0  0  0  0  0  0  0  0  0  0  0
  -21.6557  -41.8942   -6.8881 C   0  0  0  0  0  0  0  0  0  0  0  0
  -21.9149  -41.8019   -5.4219 C   0  0  0  0  0  0  0  0  0  0  0  0
  -22.3408  -40.3787   -5.0982 C   0  0  0  0  0  0  0  0  0  0  0  0
  -23.4346  -39.9829   -6.0505 C   0  0  0  0  0  0  0  0  0  0  0  0
  -22.7990  -40.3487   -3.6567 C   0  0  0  0  0  0  0  0  0  0  0  0
  -21.1975  -39.4171   -5.2468 C   0  0  0  0  0  0  0  0  0  0  0  0
  -22.6498  -42.2034   -7.7855 C   0  0  0  0  0  0  0  0  0  0  0  0
  -22.4372  -42.2905   -9.1141 N   0  0  0  0  0  0  0  0  0  0  0  0
  -21.2134  -42.0726   -9.6260 C   0  0  0  0  0  0  0  0  0  0  0  0
  2  1  1  6
  2  3  1  0
  3  4  1  0
  4  5  1  0
  5  6  1  0
  6  7  1  0
  7  8  1  0
  8  9  1  0
  9 10  1  0
 10 11  1  0
 11 12  1  0
 12 13  2  0
 13 14  1  0
 14 15  2  0
 15 16  1  0
 13 17  1  0
 17 18  2  0
 17 19  1  0
 19 20  1  0
 20 21  1  6
 20 22  1  0
 22 23  1  1
 22 24  1  0
 24 25  1  0
 25 26  1  0
 26 27  1  0
 27 28  2  0
 28 29  1  0
 29 30  1  0
 30 31  1  0
 31 32  1  0
 31 33  1  0
 31 34  1  0
 29 35  2  0
 35 36  1  0
 36 37  2  0
 16 11  2  0
 21  2  1  0
 37 27  1  0
M  END
$$$$
