
     RDKit          3D

 37 39  0  0  0  0  0  0  0  0999 V2000
  -19.8472  -39.9574   -4.4701 C   0  0  0  0  0  0  0  0  0  0  0  0
  -19.6923  -39.2161   -5.8046 C   0  0  2  0  0  0  0  0  0  0  0  0
  -21.0497  -38.8432   -6.2793 C   0  0  0  0  0  0  0  0  0  0  0  0
  -21.9952  -39.9628   -6.5354 C   0  0  0  0  0  0  0  0  0  0  0  0
  -23.0107  -40.1791   -5.4169 C   0  0  0  0  0  0  0  0  0  0  0  0
  -24.1601  -41.0371   -5.8866 C   0  0  0  0  0  0  0  0  0  0  0  0
  -23.7637  -42.0074   -6.9564 C   0  0  0  0  0  0  0  0  0  0  0  0
  -23.0692  -43.2429   -6.4261 C   0  0  0  0  0  0  0  0  0  0  0  0
  -23.1637  -44.3429   -7.4098 C   0  0  0  0  0  0  0  0  0  0  0  0
  -22.0849  -44.6013   -8.2170 O   0  0  0  0  0  0  0  0  0  0  0  0
  -20.8201  -44.1238   -8.4720 C   0  0  0  0  0  0  0  0  0  0  0  0
  -20.4257  -42.8562   -8.8840 C   0  0  0  0  0  0  0  0  0  0  0  0
  -19.0914  -42.5900   -9.0822 C   0  0  0  0  0  0  0  0  0  0  0  0
  -18.1551  -43.6332   -8.8573 C   0  0  0  0  0  0  0  0  0  0  0  0
  -18.4949  -44.8959   -8.4525 C   0  0  0  0  0  0  0  0  0  0  0  0
  -19.8379  -45.1121   -8.2678 C   0  0  0  0  0  0  0  0  0  0  0  0
  -18.3725  -41.3869   -9.5133 C   0  0  0  0  0  0  0  0  0  0  0  0
  -17.4342  -41.5577  -10.4449 O   0  0  0  0  0  0  0  0  0  0  0  0
  -18.4550  -40.0221   -9.1440 N   0  0  0  0  0  0  0  0  0  0  0  0
  -18.2295  -39.4128   -7.8596 C   0  0  1  0  0  0  0  0  0  0  0  0
  -18.8814  -40.0858   -6.7022 C   0  0  0  0  0  0  0  0  0  0  0  0
  -16.7624  -39.1635   -7.5861 C   0  0  2  0  0  0  0  0  0  0  0  0
  -16.4940  -37.8056   -7.4313 O   0  0  0  0  0  0  0  0  0  0  0  0
  -15.8953  -39.7117   -8.6632 C   0  0  0  0  0  0  0  0  0  0  0  0
  -16.0423  -38.9568   -9.9092 N   0  0  0  0  0  0  0  0  0  0  0  0
  -16.0040  -39.8818  -11.0330 C   0  0  0  0  0  0  0  0  0  0  0  0
  -14.9164  -39.4153  -11.9308 C   0  0  0  0  0  0  0  0  0  0  0  0
  -14.2218  -38.2783  -11.5790 C   0  0  0  0  0  0  0  0  0  0  0  0
  -13.1977  -37.8122  -12.3969 C   0  0  0  0  0  0  0  0  0  0  0  0
  -12.4253  -36.5855  -12.0445 C   0  0  0  0  0  0  0  0  0  0  0  0
  -10.9455  -36.8793  -12.2329 C   0  0  0  0  0  0  0  0  0  0  0  0
  -10.1708  -35.6282  -11.9254 C   0  0  0  0  0  0  0  0  0  0  0  0
  -10.5784  -38.0205  -11.3102 C   0  0  0  0  0  0  0  0  0  0  0  0
  -10.6453  -37.3009  -13.6422 C   0  0  0  0  0  0  0  0  0  0  0  0
  -12.9363  -38.5355  -13.5360 C   0  0  0  0  0  0  0  0  0  0  0  0
  -13.6213  -39.6471  -13.8722 N   0  0  0  0  0  0  0  0  0  0  0  0
  -14.6120  -40.1031  -13.0862 C   0  0  0  0  0  0  0  0  0  0  0  0
  2  1  1  1
  2  3  1  0
  3  4  1  0
  4  5  1  0
  5  6  1  0
  6  7  1  0
  7  8  1  0
  8  9  1  0
  9 10  1  0
 10 11  1  0
 11 12  1  0
 12 13  2  0
 13 14  1  0
 14 15  2  0
 15 16  1  0
 13 17  1  0
 17 18  2  0
 17 19  1  0
 19 20  1  0
 20 21  1  1
 20 22  1  0
 22 23  1  6
 22 24  1  0
 24 25  1  0
 25 26  1  0
 26 27  1  0
 27 28  2  0
 28 29  1  0
 29 30  1  0
 30 31  1  0
 31 32  1  0
 31 33  1  0
 31 34  1  0
 29 35  2  0
 35 36  1  0
 36 37  2  0
 16 11  2  0
 21  2  1  0
 37 27  1  0
M  END
$$$$
