
     RDKit          3D

 37 39  0  0  0  0  0  0  0  0999 V2000
  -20.0317  -39.9687   -4.4775 C   0  0  0  0  0  0  0  0  0  0  0  0
  -19.7222  -39.5034   -5.9065 C   0  0  2  0  0  0  0  0  0  0  0  0
  -20.9982  -39.0683   -6.5308 C   0  0  0  0  0  0  0  0  0  0  0  0
  -22.0637  -40.0991   -6.6532 C   0  0  0  0  0  0  0  0  0  0  0  0
  -23.1499  -39.9914   -5.5865 C   0  0  0  0  0  0  0  0  0  0  0  0
  -24.3747  -40.7817   -5.9782 C   0  0  0  0  0  0  0  0  0  0  0  0
  -24.0534  -41.9683   -6.8336 C   0  0  0  0  0  0  0  0  0  0  0  0
  -23.5454  -43.1595   -6.0507 C   0  0  0  0  0  0  0  0  0  0  0  0
  -23.7311  -44.4007   -6.8328 C   0  0  0  0  0  0  0  0  0  0  0  0
  -22.6565  -44.9232   -7.5068 O   0  0  0  0  0  0  0  0  0  0  0  0
  -21.3311  -44.6486   -7.7533 C   0  0  0  0  0  0  0  0  0  0  0  0
  -20.7615  -43.5303   -8.3508 C   0  0  0  0  0  0  0  0  0  0  0  0
  -19.3965  -43.4599   -8.5000 C   0  0  0  0  0  0  0  0  0  0  0  0
  -18.6104  -44.5464   -8.0339 C   0  0  0  0  0  0  0  0  0  0  0  0
  -19.1249  -45.6674   -7.4405 C   0  0  0  0  0  0  0  0  0  0  0  0
  -20.4916  -45.6904   -7.3138 C   0  0  0  0  0  0  0  0  0  0  0  0
  -18.5126  -42.4455   -9.0829 C   0  0  0  0  0  0  0  0  0  0  0  0
  -17.5604  -42.8887   -9.9040 O   0  0  0  0  0  0  0  0  0  0  0  0
  -18.4402  -41.0362   -8.9625 N   0  0  0  0  0  0  0  0  0  0  0  0
  -18.2006  -40.2352   -7.7908 C   0  0  1  0  0  0  0  0  0  0  0  0
  -18.9857  -40.6084   -6.5818 C   0  0  0  0  0  0  0  0  0  0  0  0
  -16.7283  -40.1115   -7.4646 C   0  0  2  0  0  0  0  0  0  0  0  0
  -16.4761  -39.0145   -6.6443 O   0  0  0  0  0  0  0  0  0  0  0  0
  -15.8943  -40.0042   -8.6916 C   0  0  0  0  0  0  0  0  0  0  0  0
  -14.5419  -39.5346   -8.3838 N   0  0  0  0  0  0  0  0  0  0  0  0
  -13.6826  -39.7719   -9.5351 C   0  0  0  0  0  0  0  0  0  0  0  0
  -14.2825  -39.0299  -10.6735 C   0  0  0  0  0  0  0  0  0  0  0  0
  -14.3373  -37.6549  -10.6005 C   0  0  0  0  0  0  0  0  0  0  0  0
  -14.8935  -36.9279  -11.6479 C   0  0  0  0  0  0  0  0  0  0  0  0
  -14.9669  -35.4386  -11.6013 C   0  0  0  0  0  0  0  0  0  0  0  0
  -13.7611  -34.8752  -12.3362 C   0  0  0  0  0  0  0  0  0  0  0  0
  -13.9574  -33.3941  -12.5037 C   0  0  0  0  0  0  0  0  0  0  0  0
  -12.5285  -35.2001  -11.5215 C   0  0  0  0  0  0  0  0  0  0  0  0
  -13.6045  -35.4996  -13.6924 C   0  0  0  0  0  0  0  0  0  0  0  0
  -15.3664  -37.6473  -12.7194 C   0  0  0  0  0  0  0  0  0  0  0  0
  -15.3085  -38.9930  -12.7820 N   0  0  0  0  0  0  0  0  0  0  0  0
  -14.7722  -39.7016  -11.7734 C   0  0  0  0  0  0  0  0  0  0  0  0
  2  1  1  1
  2  3  1  0
  3  4  1  0
  4  5  1  0
  5  6  1  0
  6  7  1  0
  7  8  1  0
  8  9  1  0
  9 10  1  0
 10 11  1  0
 11 12  1  0
 12 13  2  0
 13 14  1  0
 14 15  2  0
 15 16  1  0
 13 17  1  0
 17 18  2  0
 17 19  1  0
 19 20  1  0
 20 21  1  1
 20 22  1  0
 22 23  1  1
 22 24  1  0
 24 25  1  0
 25 26  1  0
 26 27  1  0
 27 28  2  0
 28 29  1  0
 29 30  1  0
 30 31  1  0
 31 32  1  0
 31 33  1  0
 31 34  1  0
 29 35  2  0
 35 36  1  0
 36 37  2  0
 16 11  2  0
 21  2  1  0
 37 27  1  0
M  END
$$$$
