
     RDKit          3D

 37 39  0  0  0  0  0  0  0  0999 V2000
  -19.3447  -38.8782   -4.9511 C   0  0  0  0  0  0  0  0  0  0  0  0
  -19.1813  -38.4916   -6.4270 C   0  0  2  0  0  0  0  0  0  0  0  0
  -20.5329  -38.2152   -6.9782 C   0  0  0  0  0  0  0  0  0  0  0  0
  -21.5050  -39.3410   -6.9507 C   0  0  0  0  0  0  0  0  0  0  0  0
  -22.5182  -39.2519   -5.8130 C   0  0  0  0  0  0  0  0  0  0  0  0
  -23.6895  -40.1719   -6.0568 C   0  0  0  0  0  0  0  0  0  0  0  0
  -23.3216  -41.3845   -6.8552 C   0  0  0  0  0  0  0  0  0  0  0  0
  -22.6519  -42.4675   -6.0377 C   0  0  0  0  0  0  0  0  0  0  0  0
  -22.7773  -43.7732   -6.7206 C   0  0  0  0  0  0  0  0  0  0  0  0
  -21.7096  -44.2472   -7.4398 O   0  0  0  0  0  0  0  0  0  0  0  0
  -20.4359  -43.8767   -7.8050 C   0  0  0  0  0  0  0  0  0  0  0  0
  -20.0156  -42.7589   -8.5162 C   0  0  0  0  0  0  0  0  0  0  0  0
  -18.6768  -42.5808   -8.7743 C   0  0  0  0  0  0  0  0  0  0  0  0
  -17.7629  -43.5584   -8.3002 C   0  0  0  0  0  0  0  0  0  0  0  0
  -18.1286  -44.6744   -7.5971 C   0  0  0  0  0  0  0  0  0  0  0  0
  -19.4750  -44.8071   -7.3644 C   0  0  0  0  0  0  0  0  0  0  0  0
  -17.9336  -41.5378   -9.4884 C   0  0  0  0  0  0  0  0  0  0  0  0
  -17.0052  -41.9543  -10.3497 O   0  0  0  0  0  0  0  0  0  0  0  0
  -17.9831  -40.1225   -9.4661 N   0  0  0  0  0  0  0  0  0  0  0  0
  -17.7359  -39.2216   -8.3710 C   0  0  1  0  0  0  0  0  0  0  0  0
  -18.3958  -39.5739   -7.0834 C   0  0  0  0  0  0  0  0  0  0  0  0
  -16.2620  -38.9471   -8.1678 C   0  0  2  0  0  0  0  0  0  0  0  0
  -16.0500  -38.0101   -7.1594 O   0  0  0  0  0  0  0  0  0  0  0  0
  -15.6073  -38.4747   -9.4172 C   0  0  0  0  0  0  0  0  0  0  0  0
  -15.7135  -39.4668  -10.4889 N   0  0  0  0  0  0  0  0  0  0  0  0
  -15.2913  -38.8591  -11.7430 C   0  0  0  0  0  0  0  0  0  0  0  0
  -13.8397  -38.5738  -11.6095 C   0  0  0  0  0  0  0  0  0  0  0  0
  -12.9559  -39.6270  -11.7019 C   0  0  0  0  0  0  0  0  0  0  0  0
  -11.5895  -39.3965  -11.5805 C   0  0  0  0  0  0  0  0  0  0  0  0
  -10.6059  -40.5140  -11.6771 C   0  0  0  0  0  0  0  0  0  0  0  0
   -9.8350  -40.3641  -12.9790 C   0  0  0  0  0  0  0  0  0  0  0  0
   -8.8150  -41.4657  -13.0556 C   0  0  0  0  0  0  0  0  0  0  0  0
  -10.8303  -40.4261  -14.1166 C   0  0  0  0  0  0  0  0  0  0  0  0
   -9.1266  -39.0422  -13.0475 C   0  0  0  0  0  0  0  0  0  0  0  0
  -11.1964  -38.0963  -11.3703 C   0  0  0  0  0  0  0  0  0  0  0  0
  -12.0686  -37.0719  -11.2812 N   0  0  0  0  0  0  0  0  0  0  0  0
  -13.3904  -37.2877  -11.3977 C   0  0  0  0  0  0  0  0  0  0  0  0
  2  1  1  1
  2  3  1  0
  3  4  1  0
  4  5  1  0
  5  6  1  0
  6  7  1  0
  7  8  1  0
  8  9  1  0
  9 10  1  0
 10 11  1  0
 11 12  1  0
 12 13  2  0
 13 14  1  0
 14 15  2  0
 15 16  1  0
 13 17  1  0
 17 18  2  0
 17 19  1  0
 19 20  1  0
 20 21  1  1
 20 22  1  0
 22 23  1  1
 22 24  1  0
 24 25  1  0
 25 26  1  0
 26 27  1  0
 27 28  2  0
 28 29  1  0
 29 30  1  0
 30 31  1  0
 31 32  1  0
 31 33  1  0
 31 34  1  0
 29 35  2  0
 35 36  1  0
 36 37  2  0
 16 11  2  0
 21  2  1  0
 37 27  1  0
M  END
$$$$
