
     RDKit          3D

 37 39  0  0  0  0  0  0  0  0999 V2000
  -21.5911  -43.9227   -1.8796 C   0  0  0  0  0  0  0  0  0  0  0  0
  -22.6950  -43.7178   -2.9240 C   0  0  0  0  0  0  0  0  0  0  0  0
  -22.0422  -43.1796   -4.0925 N   0  0  0  0  0  0  0  0  0  0  0  0
  -21.6518  -41.8005   -4.0751 C   0  0  0  0  0  0  0  0  0  0  0  0
  -22.4606  -40.6931   -4.6173 C   0  0  0  0  0  0  0  0  0  0  0  0
  -22.3007  -40.2134   -5.9966 C   0  0  0  0  0  0  0  0  0  0  0  0
  -21.7291  -38.8163   -6.2811 C   0  0  0  0  0  0  0  0  0  0  0  0
  -21.3051  -38.7132   -7.7371 C   0  0  0  0  0  0  0  0  0  0  0  0
  -20.0151  -38.0353   -8.0811 C   0  0  1  0  0  0  0  0  0  0  0  0
  -19.4116  -37.1753   -6.9922 C   0  0  0  0  0  0  0  0  0  0  0  0
  -19.0941  -38.5639   -9.0965 C   0  0  0  0  0  0  0  0  0  0  0  0
  -17.8174  -39.2176   -8.9632 C   0  0  2  0  0  0  0  0  0  0  0  0
  -17.5911  -40.3154   -7.9862 N   0  0  0  0  0  0  0  0  0  0  0  0
  -18.6491  -41.0500   -7.4527 C   0  0  0  0  0  0  0  0  0  0  0  0
  -19.1403  -40.2709   -6.4013 O   0  0  0  0  0  0  0  0  0  0  0  0
  -19.5064  -42.2319   -7.4534 C   0  0  0  0  0  0  0  0  0  0  0  0
  -19.8271  -43.0811   -6.3646 C   0  0  0  0  0  0  0  0  0  0  0  0
  -20.9954  -43.7792   -6.4274 C   0  0  0  0  0  0  0  0  0  0  0  0
  -21.8509  -43.7381   -7.5276 C   0  0  0  0  0  0  0  0  0  0  0  0
  -21.5752  -42.9514   -8.6281 C   0  0  0  0  0  0  0  0  0  0  0  0
  -20.4206  -42.2340   -8.5272 C   0  0  0  0  0  0  0  0  0  0  0  0
  -21.8360  -44.1187   -5.1762 C   0  0  0  0  0  0  0  0  0  0  0  0
  -22.3383  -45.2268   -5.1375 O   0  0  0  0  0  0  0  0  0  0  0  0
  -16.6012  -38.3349   -8.8505 C   0  0  2  0  0  0  0  0  0  0  0  0
  -16.7679  -37.0443   -9.2787 O   0  0  0  0  0  0  0  0  0  0  0  0
  -15.3175  -38.9946   -9.1977 C   0  0  0  0  0  0  0  0  0  0  0  0
  -15.1914  -39.5504  -10.4940 N   0  0  0  0  0  0  0  0  0  0  0  0
  -13.9374  -40.1899  -10.7971 C   0  0  0  0  0  0  0  0  0  0  0  0
  -12.7830  -39.2711  -10.5480 C   0  0  0  0  0  0  0  0  0  0  0  0
  -12.6554  -38.1460  -11.3161 C   0  0  0  0  0  0  0  0  0  0  0  0
  -11.6108  -37.2304  -11.1395 C   0  0  0  0  0  0  0  0  0  0  0  0
  -10.6985  -37.4895  -10.1602 C   0  0  0  0  0  0  0  0  0  0  0  0
  -10.8231  -38.6204   -9.3853 C   0  0  0  0  0  0  0  0  0  0  0  0
  -11.8544  -39.5177   -9.5650 C   0  0  0  0  0  0  0  0  0  0  0  0
  -11.5387  -36.0337  -12.0141 C   0  0  0  0  0  0  0  0  0  0  0  0
  -11.7159  -34.7760  -11.1684 C   0  0  0  0  0  0  0  0  0  0  0  0
  -10.2166  -35.9253  -12.7390 C   0  0  0  0  0  0  0  0  0  0  0  0
  1  2  1  0
  2  3  1  0
  3  4  1  0
  4  5  1  0
  5  6  1  0
  6  7  1  0
  7  8  1  0
  8  9  1  0
  9 10  1  1
  9 11  1  0
 12 11  1  1
 12 13  1  0
 13 14  1  0
 14 15  2  0
 14 16  1  0
 16 17  2  0
 17 18  1  0
 18 19  2  0
 19 20  1  0
 20 21  2  0
 18 22  1  0
 22 23  2  0
 12 24  1  0
 24 25  1  6
 24 26  1  0
 26 27  1  0
 27 28  1  0
 28 29  1  0
 29 30  2  0
 30 31  1  0
 31 32  2  0
 32 33  1  0
 33 34  2  0
 31 35  1  0
 35 36  1  0
 35 37  1  0
 21 16  1  0
 22  3  1  0
 34 29  1  0
M  END
$$$$
