
     RDKit          3D

 37 39  0  0  0  0  0  0  0  0999 V2000
  -23.8076  -45.5618   -4.1531 C   0  0  0  0  0  0  0  0  0  0  0  0
  -22.3457  -45.4387   -3.7073 C   0  0  0  0  0  0  0  0  0  0  0  0
  -21.6668  -44.7255   -4.7618 N   0  0  0  0  0  0  0  0  0  0  0  0
  -21.5549  -43.3008   -4.6524 C   0  0  0  0  0  0  0  0  0  0  0  0
  -22.4871  -42.3368   -5.2660 C   0  0  0  0  0  0  0  0  0  0  0  0
  -22.2500  -41.7620   -6.5970 C   0  0  0  0  0  0  0  0  0  0  0  0
  -21.9272  -40.2693   -6.7618 C   0  0  0  0  0  0  0  0  0  0  0  0
  -21.3507  -40.0103   -8.1443 C   0  0  0  0  0  0  0  0  0  0  0  0
  -20.1827  -39.0853   -8.2925 C   0  0  1  0  0  0  0  0  0  0  0  0
  -19.8986  -38.1874   -7.1081 C   0  0  0  0  0  0  0  0  0  0  0  0
  -19.0565  -39.3765   -9.1899 C   0  0  0  0  0  0  0  0  0  0  0  0
  -17.7050  -39.7857   -8.9056 C   0  0  2  0  0  0  0  0  0  0  0  0
  -17.3964  -40.8728   -7.9392 N   0  0  0  0  0  0  0  0  0  0  0  0
  -18.3517  -41.8202   -7.5738 C   0  0  0  0  0  0  0  0  0  0  0  0
  -19.1124  -41.2047   -6.5757 O   0  0  0  0  0  0  0  0  0  0  0  0
  -18.9580  -43.1400   -7.7235 C   0  0  0  0  0  0  0  0  0  0  0  0
  -19.2437  -44.0917   -6.7125 C   0  0  0  0  0  0  0  0  0  0  0  0
  -20.2381  -44.9917   -6.9515 C   0  0  0  0  0  0  0  0  0  0  0  0
  -20.9398  -45.0523   -8.1548 C   0  0  0  0  0  0  0  0  0  0  0  0
  -20.6844  -44.1697   -9.1853 C   0  0  0  0  0  0  0  0  0  0  0  0
  -19.7119  -43.2553   -8.9098 C   0  0  0  0  0  0  0  0  0  0  0  0
  -21.1485  -45.5496   -5.8347 C   0  0  0  0  0  0  0  0  0  0  0  0
  -21.4286  -46.7326   -5.8956 O   0  0  0  0  0  0  0  0  0  0  0  0
  -16.7059  -38.6982   -8.6055 C   0  0  2  0  0  0  0  0  0  0  0  0
  -17.2305  -37.5404   -8.0946 O   0  0  0  0  0  0  0  0  0  0  0  0
  -15.6193  -38.5560   -9.6069 C   0  0  0  0  0  0  0  0  0  0  0  0
  -14.4022  -39.2362   -9.3600 N   0  0  0  0  0  0  0  0  0  0  0  0
  -13.1935  -38.5243   -9.6848 C   0  0  0  0  0  0  0  0  0  0  0  0
  -13.3436  -37.7468  -10.9545 C   0  0  0  0  0  0  0  0  0  0  0  0
  -12.9442  -36.4384  -10.9800 C   0  0  0  0  0  0  0  0  0  0  0  0
  -13.0406  -35.6458  -12.1302 C   0  0  0  0  0  0  0  0  0  0  0  0
  -13.5546  -36.2195  -13.2550 C   0  0  0  0  0  0  0  0  0  0  0  0
  -13.9578  -37.5355  -13.2336 C   0  0  0  0  0  0  0  0  0  0  0  0
  -13.8599  -38.3100  -12.0971 C   0  0  0  0  0  0  0  0  0  0  0  0
  -12.5884  -34.2334  -12.0787 C   0  0  0  0  0  0  0  0  0  0  0  0
  -12.6225  -33.7423  -10.6343 C   0  0  0  0  0  0  0  0  0  0  0  0
  -11.1794  -34.0573  -12.5973 C   0  0  0  0  0  0  0  0  0  0  0  0
  1  2  1  0
  2  3  1  0
  3  4  1  0
  4  5  1  0
  5  6  1  0
  6  7  1  0
  7  8  1  0
  8  9  1  0
  9 10  1  1
  9 11  1  0
 12 11  1  1
 12 13  1  0
 13 14  1  0
 14 15  2  0
 14 16  1  0
 16 17  2  0
 17 18  1  0
 18 19  2  0
 19 20  1  0
 20 21  2  0
 18 22  1  0
 22 23  2  0
 12 24  1  0
 24 25  1  6
 24 26  1  0
 26 27  1  0
 27 28  1  0
 28 29  1  0
 29 30  2  0
 30 31  1  0
 31 32  2  0
 32 33  1  0
 33 34  2  0
 31 35  1  0
 35 36  1  0
 35 37  1  0
 21 16  1  0
 22  3  1  0
 34 29  1  0
M  END
$$$$
