
     RDKit          3D

 37 39  0  0  0  0  0  0  0  0999 V2000
  -23.3273  -44.4443   -3.2346 C   0  0  0  0  0  0  0  0  0  0  0  0
  -23.3689  -45.1432   -4.5988 C   0  0  0  0  0  0  0  0  0  0  0  0
  -22.5118  -44.3730   -5.4668 N   0  0  0  0  0  0  0  0  0  0  0  0
  -22.1399  -43.0522   -5.0527 C   0  0  0  0  0  0  0  0  0  0  0  0
  -22.8392  -41.8185   -5.4570 C   0  0  0  0  0  0  0  0  0  0  0  0
  -22.4263  -41.0370   -6.6304 C   0  0  0  0  0  0  0  0  0  0  0  0
  -21.8198  -39.6352   -6.4669 C   0  0  0  0  0  0  0  0  0  0  0  0
  -21.1308  -39.2120   -7.7540 C   0  0  0  0  0  0  0  0  0  0  0  0
  -19.8033  -38.5229   -7.6852 C   0  0  1  0  0  0  0  0  0  0  0  0
  -19.4200  -37.9644   -6.3321 C   0  0  0  0  0  0  0  0  0  0  0  0
  -18.7050  -38.8354   -8.6097 C   0  0  0  0  0  0  0  0  0  0  0  0
  -17.4721  -39.5509   -8.4024 C   0  0  2  0  0  0  0  0  0  0  0  0
  -17.4265  -40.8541   -7.6879 N   0  0  0  0  0  0  0  0  0  0  0  0
  -18.5614  -41.6514   -7.5468 C   0  0  0  0  0  0  0  0  0  0  0  0
  -19.2457  -41.1206   -6.4497 O   0  0  0  0  0  0  0  0  0  0  0  0
  -19.3962  -42.7666   -7.9840 C   0  0  0  0  0  0  0  0  0  0  0  0
  -19.9104  -43.8332   -7.2046 C   0  0  0  0  0  0  0  0  0  0  0  0
  -21.0420  -44.4518   -7.6440 C   0  0  0  0  0  0  0  0  0  0  0  0
  -21.6761  -44.1224   -8.8412 C   0  0  0  0  0  0  0  0  0  0  0  0
  -21.2036  -43.1120   -9.6549 C   0  0  0  0  0  0  0  0  0  0  0  0
  -20.0928  -42.4830   -9.1770 C   0  0  0  0  0  0  0  0  0  0  0  0
  -22.1003  -45.0409   -6.6847 C   0  0  0  0  0  0  0  0  0  0  0  0
  -22.5943  -46.1072   -7.0018 O   0  0  0  0  0  0  0  0  0  0  0  0
  -16.3039  -38.7664   -7.8630 C   0  0  2  0  0  0  0  0  0  0  0  0
  -16.5949  -37.5006   -7.4272 O   0  0  0  0  0  0  0  0  0  0  0  0
  -15.0356  -38.9405   -8.6144 C   0  0  0  0  0  0  0  0  0  0  0  0
  -15.0739  -38.7738  -10.0201 N   0  0  0  0  0  0  0  0  0  0  0  0
  -14.5520  -37.5334  -10.5322 C   0  0  0  0  0  0  0  0  0  0  0  0
  -13.2613  -37.7442  -11.2592 C   0  0  0  0  0  0  0  0  0  0  0  0
  -12.6841  -36.6838  -11.9032 C   0  0  0  0  0  0  0  0  0  0  0  0
  -11.4725  -36.7949  -12.5963 C   0  0  0  0  0  0  0  0  0  0  0  0
  -10.8629  -38.0140  -12.6173 C   0  0  0  0  0  0  0  0  0  0  0  0
  -11.4402  -39.0835  -11.9708 C   0  0  0  0  0  0  0  0  0  0  0  0
  -12.6336  -38.9666  -11.2902 C   0  0  0  0  0  0  0  0  0  0  0  0
  -10.9105  -35.5993  -13.2721 C   0  0  0  0  0  0  0  0  0  0  0  0
  -11.9159  -35.0742  -14.2929 C   0  0  0  0  0  0  0  0  0  0  0  0
  -10.6008  -34.4796  -12.3049 C   0  0  0  0  0  0  0  0  0  0  0  0
  1  2  1  0
  2  3  1  0
  3  4  1  0
  4  5  1  0
  5  6  1  0
  6  7  1  0
  7  8  1  0
  8  9  1  0
  9 10  1  1
  9 11  1  0
 12 11  1  1
 12 13  1  0
 13 14  1  0
 14 15  2  0
 14 16  1  0
 16 17  2  0
 17 18  1  0
 18 19  2  0
 19 20  1  0
 20 21  2  0
 18 22  1  0
 22 23  2  0
 12 24  1  0
 24 25  1  6
 24 26  1  0
 26 27  1  0
 27 28  1  0
 28 29  1  0
 29 30  2  0
 30 31  1  0
 31 32  2  0
 32 33  1  0
 33 34  2  0
 31 35  1  0
 35 36  1  0
 35 37  1  0
 21 16  1  0
 22  3  1  0
 34 29  1  0
M  END
$$$$
