
     RDKit          3D

 37 39  0  0  0  0  0  0  0  0999 V2000
  -23.6076  -43.9370   -3.3430 C   0  0  0  0  0  0  0  0  0  0  0  0
  -23.4973  -44.7318   -4.6497 C   0  0  0  0  0  0  0  0  0  0  0  0
  -22.4307  -44.1161   -5.4010 N   0  0  0  0  0  0  0  0  0  0  0  0
  -22.2379  -42.7020   -5.2685 C   0  0  0  0  0  0  0  0  0  0  0  0
  -22.8053  -41.6894   -6.1781 C   0  0  0  0  0  0  0  0  0  0  0  0
  -22.0656  -41.1861   -7.3433 C   0  0  0  0  0  0  0  0  0  0  0  0
  -21.5738  -39.7317   -7.3933 C   0  0  0  0  0  0  0  0  0  0  0  0
  -20.5279  -39.5724   -8.4847 C   0  0  0  0  0  0  0  0  0  0  0  0
  -19.3048  -38.7513   -8.2169 C   0  0  1  0  0  0  0  0  0  0  0  0
  -19.3760  -37.8356   -7.0144 C   0  0  0  0  0  0  0  0  0  0  0  0
  -17.9658  -39.1664   -8.6568 C   0  0  0  0  0  0  0  0  0  0  0  0
  -16.8425  -39.6728   -7.9108 C   0  0  2  0  0  0  0  0  0  0  0  0
  -16.9912  -40.7442   -6.8905 N   0  0  0  0  0  0  0  0  0  0  0  0
  -18.0943  -41.5967   -6.8799 C   0  0  0  0  0  0  0  0  0  0  0  0
  -19.0991  -40.8845   -6.2189 O   0  0  0  0  0  0  0  0  0  0  0  0
  -18.7244  -42.8677   -7.2255 C   0  0  0  0  0  0  0  0  0  0  0  0
  -19.4306  -43.7544   -6.3743 C   0  0  0  0  0  0  0  0  0  0  0  0
  -20.3537  -44.5793   -6.9432 C   0  0  0  0  0  0  0  0  0  0  0  0
  -20.5903  -44.6280   -8.3164 C   0  0  0  0  0  0  0  0  0  0  0  0
  -19.9117  -43.8084   -9.1960 C   0  0  0  0  0  0  0  0  0  0  0  0
  -19.0206  -42.9660   -8.6008 C   0  0  0  0  0  0  0  0  0  0  0  0
  -21.6442  -45.0192   -6.2163 C   0  0  0  0  0  0  0  0  0  0  0  0
  -21.9892  -46.1770   -6.3645 O   0  0  0  0  0  0  0  0  0  0  0  0
  -15.9198  -38.6594   -7.2842 C   0  0  2  0  0  0  0  0  0  0  0  0
  -16.4259  -37.9925   -6.1998 O   0  0  0  0  0  0  0  0  0  0  0  0
  -15.1234  -37.8606   -8.2492 C   0  0  0  0  0  0  0  0  0  0  0  0
  -14.5139  -38.5463   -9.3278 N   0  0  0  0  0  0  0  0  0  0  0  0
  -13.2544  -38.0229   -9.7894 C   0  0  0  0  0  0  0  0  0  0  0  0
  -13.1145  -38.1680  -11.2720 C   0  0  0  0  0  0  0  0  0  0  0  0
  -12.0364  -37.5991  -11.8935 C   0  0  0  0  0  0  0  0  0  0  0  0
  -11.8266  -37.6983  -13.2744 C   0  0  0  0  0  0  0  0  0  0  0  0
  -12.7432  -38.3919  -14.0073 C   0  0  0  0  0  0  0  0  0  0  0  0
  -13.8294  -38.9657  -13.3860 C   0  0  0  0  0  0  0  0  0  0  0  0
  -14.0294  -38.8639  -12.0257 C   0  0  0  0  0  0  0  0  0  0  0  0
  -10.6340  -37.0518  -13.8758 C   0  0  0  0  0  0  0  0  0  0  0  0
  -10.9014  -35.5600  -14.0538 C   0  0  0  0  0  0  0  0  0  0  0  0
   -9.3985  -37.2045  -13.0183 C   0  0  0  0  0  0  0  0  0  0  0  0
  1  2  1  0
  2  3  1  0
  3  4  1  0
  4  5  1  0
  5  6  1  0
  6  7  1  0
  7  8  1  0
  8  9  1  0
  9 10  1  1
  9 11  1  0
 12 11  1  1
 12 13  1  0
 13 14  1  0
 14 15  2  0
 14 16  1  0
 16 17  2  0
 17 18  1  0
 18 19  2  0
 19 20  1  0
 20 21  2  0
 18 22  1  0
 22 23  2  0
 12 24  1  0
 24 25  1  6
 24 26  1  0
 26 27  1  0
 27 28  1  0
 28 29  1  0
 29 30  2  0
 30 31  1  0
 31 32  2  0
 32 33  1  0
 33 34  2  0
 31 35  1  0
 35 36  1  0
 35 37  1  0
 21 16  1  0
 22  3  1  0
 34 29  1  0
M  END
$$$$
