
     RDKit          3D

 37 39  0  0  0  0  0  0  0  0999 V2000
  -21.9776  -45.0849   -3.0848 C   0  0  0  0  0  0  0  0  0  0  0  0
  -22.4562  -45.4345   -4.4989 C   0  0  0  0  0  0  0  0  0  0  0  0
  -21.6349  -44.6624   -5.3993 N   0  0  0  0  0  0  0  0  0  0  0  0
  -21.5600  -43.2449   -5.2002 C   0  0  0  0  0  0  0  0  0  0  0  0
  -22.4011  -42.2546   -5.8975 C   0  0  0  0  0  0  0  0  0  0  0  0
  -21.9726  -41.6082   -7.1452 C   0  0  0  0  0  0  0  0  0  0  0  0
  -21.6485  -40.1071   -7.1812 C   0  0  0  0  0  0  0  0  0  0  0  0
  -20.8726  -39.7715   -8.4444 C   0  0  0  0  0  0  0  0  0  0  0  0
  -19.7081  -38.8337   -8.3648 C   0  0  1  0  0  0  0  0  0  0  0  0
  -19.6190  -37.9989   -7.1060 C   0  0  0  0  0  0  0  0  0  0  0  0
  -18.4550  -39.0705   -9.0944 C   0  0  0  0  0  0  0  0  0  0  0  0
  -17.1569  -39.4871   -8.6293 C   0  0  2  0  0  0  0  0  0  0  0  0
  -16.9839  -40.6226   -7.6850 N   0  0  0  0  0  0  0  0  0  0  0  0
  -17.9708  -41.5933   -7.5191 C   0  0  0  0  0  0  0  0  0  0  0  0
  -18.8823  -41.0361   -6.6177 O   0  0  0  0  0  0  0  0  0  0  0  0
  -18.5296  -42.9064   -7.8277 C   0  0  0  0  0  0  0  0  0  0  0  0
  -18.9526  -43.9122   -6.9228 C   0  0  0  0  0  0  0  0  0  0  0  0
  -19.8871  -44.8036   -7.3568 C   0  0  0  0  0  0  0  0  0  0  0  0
  -20.3972  -44.8035   -8.6545 C   0  0  0  0  0  0  0  0  0  0  0  0
  -20.0003  -43.8658   -9.5868 C   0  0  0  0  0  0  0  0  0  0  0  0
  -19.0932  -42.9622   -9.1193 C   0  0  0  0  0  0  0  0  0  0  0  0
  -20.9488  -45.4252   -6.4221 C   0  0  0  0  0  0  0  0  0  0  0  0
  -21.2005  -46.6047   -6.5864 O   0  0  0  0  0  0  0  0  0  0  0  0
  -16.2295  -38.4119   -8.1245 C   0  0  2  0  0  0  0  0  0  0  0  0
  -16.7882  -37.5117   -7.2558 O   0  0  0  0  0  0  0  0  0  0  0  0
  -15.2927  -37.8691   -9.1400 C   0  0  0  0  0  0  0  0  0  0  0  0
  -13.9580  -38.3418   -9.1249 N   0  0  0  0  0  0  0  0  0  0  0  0
  -13.4822  -38.9548  -10.3378 C   0  0  0  0  0  0  0  0  0  0  0  0
  -13.7081  -38.0678  -11.5216 C   0  0  0  0  0  0  0  0  0  0  0  0
  -13.3341  -36.7539  -11.4444 C   0  0  0  0  0  0  0  0  0  0  0  0
  -13.5009  -35.8616  -12.5105 C   0  0  0  0  0  0  0  0  0  0  0  0
  -14.0586  -36.3412  -13.6582 C   0  0  0  0  0  0  0  0  0  0  0  0
  -14.4364  -37.6624  -13.7400 C   0  0  0  0  0  0  0  0  0  0  0  0
  -14.2692  -38.5354  -12.6860 C   0  0  0  0  0  0  0  0  0  0  0  0
  -13.0723  -34.4500  -12.3496 C   0  0  0  0  0  0  0  0  0  0  0  0
  -13.6475  -33.8901  -11.0518 C   0  0  0  0  0  0  0  0  0  0  0  0
  -11.5687  -34.3042  -12.2938 C   0  0  0  0  0  0  0  0  0  0  0  0
  1  2  1  0
  2  3  1  0
  3  4  1  0
  4  5  1  0
  5  6  1  0
  6  7  1  0
  7  8  1  0
  8  9  1  0
  9 10  1  1
  9 11  1  0
 12 11  1  1
 12 13  1  0
 13 14  1  0
 14 15  2  0
 14 16  1  0
 16 17  2  0
 17 18  1  0
 18 19  2  0
 19 20  1  0
 20 21  2  0
 18 22  1  0
 22 23  2  0
 12 24  1  0
 24 25  1  6
 24 26  1  0
 26 27  1  0
 27 28  1  0
 28 29  1  0
 29 30  2  0
 30 31  1  0
 31 32  2  0
 32 33  1  0
 33 34  2  0
 31 35  1  0
 35 36  1  0
 35 37  1  0
 21 16  1  0
 22  3  1  0
 34 29  1  0
M  END
$$$$
