
     RDKit          3D

 37 39  0  0  0  0  0  0  0  0999 V2000
  -22.4713  -44.6981   -2.8033 C   0  0  0  0  0  0  0  0  0  0  0  0
  -23.3657  -44.2784   -3.9759 C   0  0  0  0  0  0  0  0  0  0  0  0
  -22.4941  -43.6424   -4.9335 N   0  0  0  0  0  0  0  0  0  0  0  0
  -22.1977  -42.2509   -4.7593 C   0  0  0  0  0  0  0  0  0  0  0  0
  -22.9225  -41.1499   -5.4206 C   0  0  0  0  0  0  0  0  0  0  0  0
  -22.4780  -40.5815   -6.7002 C   0  0  0  0  0  0  0  0  0  0  0  0
  -21.9372  -39.1457   -6.7763 C   0  0  0  0  0  0  0  0  0  0  0  0
  -21.1969  -38.9365   -8.0873 C   0  0  0  0  0  0  0  0  0  0  0  0
  -19.9033  -38.1824   -8.0891 C   0  0  1  0  0  0  0  0  0  0  0  0
  -19.6162  -37.3634   -6.8496 C   0  0  0  0  0  0  0  0  0  0  0  0
  -18.7452  -38.6074   -8.8870 C   0  0  0  0  0  0  0  0  0  0  0  0
  -17.4980  -39.2105   -8.4925 C   0  0  2  0  0  0  0  0  0  0  0  0
  -17.4395  -40.3539   -7.5437 N   0  0  0  0  0  0  0  0  0  0  0  0
  -18.5479  -41.1656   -7.3068 C   0  0  0  0  0  0  0  0  0  0  0  0
  -19.3110  -40.4739   -6.3619 O   0  0  0  0  0  0  0  0  0  0  0  0
  -19.3131  -42.3824   -7.5636 C   0  0  0  0  0  0  0  0  0  0  0  0
  -19.8260  -43.3089   -6.6213 C   0  0  0  0  0  0  0  0  0  0  0  0
  -20.9068  -44.0533   -6.9874 C   0  0  0  0  0  0  0  0  0  0  0  0
  -21.4878  -43.9842   -8.2529 C   0  0  0  0  0  0  0  0  0  0  0  0
  -21.0124  -43.1212   -9.2201 C   0  0  0  0  0  0  0  0  0  0  0  0
  -19.9548  -42.3605   -8.8192 C   0  0  0  0  0  0  0  0  0  0  0  0
  -21.9913  -44.5045   -5.9836 C   0  0  0  0  0  0  0  0  0  0  0  0
  -22.4248  -45.6341   -6.1161 O   0  0  0  0  0  0  0  0  0  0  0  0
  -16.3926  -38.2829   -8.0579 C   0  0  2  0  0  0  0  0  0  0  0  0
  -16.7124  -36.9508   -8.0437 O   0  0  0  0  0  0  0  0  0  0  0  0
  -15.0431  -38.6419   -8.5616 C   0  0  0  0  0  0  0  0  0  0  0  0
  -14.3268  -39.6475   -7.8683 N   0  0  0  0  0  0  0  0  0  0  0  0
  -12.9977  -39.9305   -8.3443 C   0  0  0  0  0  0  0  0  0  0  0  0
  -13.0161  -40.4001   -9.7648 C   0  0  0  0  0  0  0  0  0  0  0  0
  -13.7880  -41.4809  -10.0941 C   0  0  0  0  0  0  0  0  0  0  0  0
  -13.8689  -41.9758  -11.4015 C   0  0  0  0  0  0  0  0  0  0  0  0
  -13.1433  -41.3422  -12.3660 C   0  0  0  0  0  0  0  0  0  0  0  0
  -12.3653  -40.2546  -12.0389 C   0  0  0  0  0  0  0  0  0  0  0  0
  -12.2905  -39.7727  -10.7493 C   0  0  0  0  0  0  0  0  0  0  0  0
  -14.7266  -43.1544  -11.6798 C   0  0  0  0  0  0  0  0  0  0  0  0
  -14.0961  -44.3982  -11.0601 C   0  0  0  0  0  0  0  0  0  0  0  0
  -16.1187  -43.0047  -11.1100 C   0  0  0  0  0  0  0  0  0  0  0  0
  1  2  1  0
  2  3  1  0
  3  4  1  0
  4  5  1  0
  5  6  1  0
  6  7  1  0
  7  8  1  0
  8  9  1  0
  9 10  1  1
  9 11  1  0
 12 11  1  1
 12 13  1  0
 13 14  1  0
 14 15  2  0
 14 16  1  0
 16 17  2  0
 17 18  1  0
 18 19  2  0
 19 20  1  0
 20 21  2  0
 18 22  1  0
 22 23  2  0
 12 24  1  0
 24 25  1  6
 24 26  1  0
 26 27  1  0
 27 28  1  0
 28 29  1  0
 29 30  2  0
 30 31  1  0
 31 32  2  0
 32 33  1  0
 33 34  2  0
 31 35  1  0
 35 36  1  0
 35 37  1  0
 21 16  1  0
 22  3  1  0
 34 29  1  0
M  END
$$$$
