
     RDKit          3D

 37 39  0  0  0  0  0  0  0  0999 V2000
  -22.3260  -46.1234   -4.7073 C   0  0  0  0  0  0  0  0  0  0  0  0
  -23.1525  -45.1727   -5.5816 C   0  0  0  0  0  0  0  0  0  0  0  0
  -22.2012  -44.3183   -6.2496 N   0  0  0  0  0  0  0  0  0  0  0  0
  -21.8620  -43.0700   -5.6321 C   0  0  0  0  0  0  0  0  0  0  0  0
  -22.5028  -41.7789   -5.9435 C   0  0  0  0  0  0  0  0  0  0  0  0
  -21.9609  -40.8639   -6.9571 C   0  0  0  0  0  0  0  0  0  0  0  0
  -21.3613  -39.5090   -6.5520 C   0  0  0  0  0  0  0  0  0  0  0  0
  -20.5365  -38.9412   -7.6956 C   0  0  0  0  0  0  0  0  0  0  0  0
  -19.2168  -38.2977   -7.4017 C   0  0  1  0  0  0  0  0  0  0  0  0
  -18.9727  -37.9254   -5.9556 C   0  0  0  0  0  0  0  0  0  0  0  0
  -18.0305  -38.5152   -8.2406 C   0  0  0  0  0  0  0  0  0  0  0  0
  -16.8333  -39.2798   -8.0016 C   0  0  2  0  0  0  0  0  0  0  0  0
  -16.8761  -40.6642   -7.4607 N   0  0  0  0  0  0  0  0  0  0  0  0
  -18.0273  -41.4464   -7.5416 C   0  0  0  0  0  0  0  0  0  0  0  0
  -18.8180  -41.0440   -6.4616 O   0  0  0  0  0  0  0  0  0  0  0  0
  -18.8223  -42.4769   -8.2032 C   0  0  0  0  0  0  0  0  0  0  0  0
  -19.4262  -43.6219   -7.6254 C   0  0  0  0  0  0  0  0  0  0  0  0
  -20.5112  -44.1529   -8.2554 C   0  0  0  0  0  0  0  0  0  0  0  0
  -21.0125  -43.6588   -9.4590 C   0  0  0  0  0  0  0  0  0  0  0  0
  -20.4471  -42.5642  -10.0821 C   0  0  0  0  0  0  0  0  0  0  0  0
  -19.3866  -42.0273   -9.4149 C   0  0  0  0  0  0  0  0  0  0  0  0
  -21.6704  -44.8347   -7.4947 C   0  0  0  0  0  0  0  0  0  0  0  0
  -22.1387  -45.8401   -7.9962 O   0  0  0  0  0  0  0  0  0  0  0  0
  -15.7208  -38.5980   -7.2477 C   0  0  2  0  0  0  0  0  0  0  0  0
  -16.1100  -37.5857   -6.4106 O   0  0  0  0  0  0  0  0  0  0  0  0
  -14.4795  -38.3782   -8.0316 C   0  0  0  0  0  0  0  0  0  0  0  0
  -13.8385  -39.5140   -8.5831 N   0  0  0  0  0  0  0  0  0  0  0  0
  -12.4931  -39.3219   -9.0588 C   0  0  0  0  0  0  0  0  0  0  0  0
  -12.3946  -38.1196   -9.9441 C   0  0  0  0  0  0  0  0  0  0  0  0
  -13.4965  -37.3245  -10.1047 C   0  0  0  0  0  0  0  0  0  0  0  0
  -13.4841  -36.1764  -10.9062 C   0  0  0  0  0  0  0  0  0  0  0  0
  -12.3204  -35.8580  -11.5408 C   0  0  0  0  0  0  0  0  0  0  0  0
  -11.2095  -36.6554  -11.3821 C   0  0  0  0  0  0  0  0  0  0  0  0
  -11.2291  -37.7846  -10.5911 C   0  0  0  0  0  0  0  0  0  0  0  0
  -14.7207  -35.3659  -11.0326 C   0  0  0  0  0  0  0  0  0  0  0  0
  -14.3942  -33.8984  -10.7706 C   0  0  0  0  0  0  0  0  0  0  0  0
  -15.3411  -35.4668  -12.4074 C   0  0  0  0  0  0  0  0  0  0  0  0
  1  2  1  0
  2  3  1  0
  3  4  1  0
  4  5  1  0
  5  6  1  0
  6  7  1  0
  7  8  1  0
  8  9  1  0
  9 10  1  1
  9 11  1  0
 12 11  1  1
 12 13  1  0
 13 14  1  0
 14 15  2  0
 14 16  1  0
 16 17  2  0
 17 18  1  0
 18 19  2  0
 19 20  1  0
 20 21  2  0
 18 22  1  0
 22 23  2  0
 12 24  1  0
 24 25  1  6
 24 26  1  0
 26 27  1  0
 27 28  1  0
 28 29  1  0
 29 30  2  0
 30 31  1  0
 31 32  2  0
 32 33  1  0
 33 34  2  0
 31 35  1  0
 35 36  1  0
 35 37  1  0
 21 16  1  0
 22  3  1  0
 34 29  1  0
M  END
$$$$
