
     RDKit          3D

 37 39  0  0  0  0  0  0  0  0999 V2000
  -22.8978  -44.5254   -3.1068 C   0  0  0  0  0  0  0  0  0  0  0  0
  -23.5346  -44.4544   -4.4999 C   0  0  0  0  0  0  0  0  0  0  0  0
  -22.5516  -43.8359   -5.3557 N   0  0  0  0  0  0  0  0  0  0  0  0
  -22.2125  -42.4640   -5.1161 C   0  0  0  0  0  0  0  0  0  0  0  0
  -22.8248  -41.3155   -5.8094 C   0  0  0  0  0  0  0  0  0  0  0  0
  -22.2399  -40.7373   -7.0266 C   0  0  0  0  0  0  0  0  0  0  0  0
  -21.6328  -39.3263   -7.0127 C   0  0  0  0  0  0  0  0  0  0  0  0
  -20.7662  -39.1196   -8.2443 C   0  0  0  0  0  0  0  0  0  0  0  0
  -19.4466  -38.4256   -8.1069 C   0  0  1  0  0  0  0  0  0  0  0  0
  -19.2399  -37.6507   -6.8238 C   0  0  0  0  0  0  0  0  0  0  0  0
  -18.2393  -38.8837   -8.8075 C   0  0  0  0  0  0  0  0  0  0  0  0
  -17.0610  -39.5525   -8.3182 C   0  0  2  0  0  0  0  0  0  0  0  0
  -17.1400  -40.7199   -7.4006 N   0  0  0  0  0  0  0  0  0  0  0  0
  -18.2996  -41.4856   -7.2887 C   0  0  0  0  0  0  0  0  0  0  0  0
  -19.1160  -40.7827   -6.3981 O   0  0  0  0  0  0  0  0  0  0  0  0
  -19.0898  -42.6596   -7.6484 C   0  0  0  0  0  0  0  0  0  0  0  0
  -19.7272  -43.5842   -6.7833 C   0  0  0  0  0  0  0  0  0  0  0  0
  -20.8007  -44.2693   -7.2672 C   0  0  0  0  0  0  0  0  0  0  0  0
  -21.2589  -44.1433   -8.5780 C   0  0  0  0  0  0  0  0  0  0  0  0
  -20.6593  -43.2798   -9.4730 C   0  0  0  0  0  0  0  0  0  0  0  0
  -19.6113  -42.5781   -8.9561 C   0  0  0  0  0  0  0  0  0  0  0  0
  -21.9918  -44.6945   -6.3796 C   0  0  0  0  0  0  0  0  0  0  0  0
  -22.4597  -45.7997   -6.5828 O   0  0  0  0  0  0  0  0  0  0  0  0
  -15.9614  -38.6871   -7.7587 C   0  0  2  0  0  0  0  0  0  0  0  0
  -16.2030  -37.3388   -7.7816 O   0  0  0  0  0  0  0  0  0  0  0  0
  -14.5859  -39.1265   -8.1028 C   0  0  0  0  0  0  0  0  0  0  0  0
  -13.6331  -38.1265   -8.4146 N   0  0  0  0  0  0  0  0  0  0  0  0
  -12.3618  -38.5858   -8.9106 C   0  0  0  0  0  0  0  0  0  0  0  0
  -12.3496  -38.6455  -10.4057 C   0  0  0  0  0  0  0  0  0  0  0  0
  -11.7894  -39.7324  -11.0197 C   0  0  0  0  0  0  0  0  0  0  0  0
  -11.7477  -39.8698  -12.4126 C   0  0  0  0  0  0  0  0  0  0  0  0
  -12.2913  -38.8716  -13.1652 C   0  0  0  0  0  0  0  0  0  0  0  0
  -12.8557  -37.7762  -12.5515 C   0  0  0  0  0  0  0  0  0  0  0  0
  -12.8931  -37.6477  -11.1793 C   0  0  0  0  0  0  0  0  0  0  0  0
  -11.1207  -41.0774  -13.0045 C   0  0  0  0  0  0  0  0  0  0  0  0
  -10.1286  -41.6731  -12.0098 C   0  0  0  0  0  0  0  0  0  0  0  0
  -12.1332  -42.1457  -13.3490 C   0  0  0  0  0  0  0  0  0  0  0  0
  1  2  1  0
  2  3  1  0
  3  4  1  0
  4  5  1  0
  5  6  1  0
  6  7  1  0
  7  8  1  0
  8  9  1  0
  9 10  1  1
  9 11  1  0
 12 11  1  1
 12 13  1  0
 13 14  1  0
 14 15  2  0
 14 16  1  0
 16 17  2  0
 17 18  1  0
 18 19  2  0
 19 20  1  0
 20 21  2  0
 18 22  1  0
 22 23  2  0
 12 24  1  0
 24 25  1  6
 24 26  1  0
 26 27  1  0
 27 28  1  0
 28 29  1  0
 29 30  2  0
 30 31  1  0
 31 32  2  0
 32 33  1  0
 33 34  2  0
 31 35  1  0
 35 36  1  0
 35 37  1  0
 21 16  1  0
 22  3  1  0
 34 29  1  0
M  END
$$$$
