
     RDKit          3D

 37 39  0  0  0  0  0  0  0  0999 V2000
  -23.4755  -44.0152   -4.0315 C   0  0  0  0  0  0  0  0  0  0  0  0
  -23.2807  -44.8517   -5.3017 C   0  0  0  0  0  0  0  0  0  0  0  0
  -22.2906  -44.1568   -6.0879 N   0  0  0  0  0  0  0  0  0  0  0  0
  -22.0951  -42.7574   -5.8471 C   0  0  0  0  0  0  0  0  0  0  0  0
  -22.7491  -41.6763   -6.6076 C   0  0  0  0  0  0  0  0  0  0  0  0
  -22.1215  -41.0612   -7.7848 C   0  0  0  0  0  0  0  0  0  0  0  0
  -21.6451  -39.6013   -7.7484 C   0  0  0  0  0  0  0  0  0  0  0  0
  -20.7038  -39.3310   -8.9108 C   0  0  0  0  0  0  0  0  0  0  0  0
  -19.4664  -38.5197   -8.6818 C   0  0  1  0  0  0  0  0  0  0  0  0
  -19.4335  -37.7153   -7.4006 C   0  0  0  0  0  0  0  0  0  0  0  0
  -18.1706  -38.8750   -9.2759 C   0  0  0  0  0  0  0  0  0  0  0  0
  -16.9810  -39.4297   -8.6825 C   0  0  2  0  0  0  0  0  0  0  0  0
  -17.0297  -40.5893   -7.7530 N   0  0  0  0  0  0  0  0  0  0  0  0
  -18.1221  -41.4549   -7.7196 C   0  0  0  0  0  0  0  0  0  0  0  0
  -19.0668  -40.8185   -6.9096 O   0  0  0  0  0  0  0  0  0  0  0  0
  -18.7732  -42.6991   -8.1195 C   0  0  0  0  0  0  0  0  0  0  0  0
  -19.3937  -43.6677   -7.2911 C   0  0  0  0  0  0  0  0  0  0  0  0
  -20.3597  -44.4519   -7.8461 C   0  0  0  0  0  0  0  0  0  0  0  0
  -20.7200  -44.3820   -9.1912 C   0  0  0  0  0  0  0  0  0  0  0  0
  -20.1291  -43.4781  -10.0514 C   0  0  0  0  0  0  0  0  0  0  0  0
  -19.1927  -42.6793   -9.4658 C   0  0  0  0  0  0  0  0  0  0  0  0
  -21.5760  -44.9728   -7.0483 C   0  0  0  0  0  0  0  0  0  0  0  0
  -21.9260  -46.1177   -7.2679 O   0  0  0  0  0  0  0  0  0  0  0  0
  -16.0113  -38.4628   -8.0533 C   0  0  2  0  0  0  0  0  0  0  0  0
  -16.5710  -37.3372   -7.5086 O   0  0  0  0  0  0  0  0  0  0  0  0
  -14.7379  -38.2851   -8.7951 C   0  0  0  0  0  0  0  0  0  0  0  0
  -13.7106  -39.2353   -8.5783 N   0  0  0  0  0  0  0  0  0  0  0  0
  -13.3787  -40.0849   -9.6924 C   0  0  0  0  0  0  0  0  0  0  0  0
  -12.9658  -39.2822  -10.8858 C   0  0  0  0  0  0  0  0  0  0  0  0
  -13.0663  -37.9187  -10.8326 C   0  0  0  0  0  0  0  0  0  0  0  0
  -12.6907  -37.0955  -11.9013 C   0  0  0  0  0  0  0  0  0  0  0  0
  -12.2100  -37.6963  -13.0266 C   0  0  0  0  0  0  0  0  0  0  0  0
  -12.1075  -39.0678  -13.0843 C   0  0  0  0  0  0  0  0  0  0  0  0
  -12.4792  -39.8721  -12.0279 C   0  0  0  0  0  0  0  0  0  0  0  0
  -12.8314  -35.6242  -11.7687 C   0  0  0  0  0  0  0  0  0  0  0  0
  -14.1315  -35.1773  -12.4310 C   0  0  0  0  0  0  0  0  0  0  0  0
  -12.8646  -35.1735  -10.3262 C   0  0  0  0  0  0  0  0  0  0  0  0
  1  2  1  0
  2  3  1  0
  3  4  1  0
  4  5  1  0
  5  6  1  0
  6  7  1  0
  7  8  1  0
  8  9  1  0
  9 10  1  1
  9 11  1  0
 12 11  1  1
 12 13  1  0
 13 14  1  0
 14 15  2  0
 14 16  1  0
 16 17  2  0
 17 18  1  0
 18 19  2  0
 19 20  1  0
 20 21  2  0
 18 22  1  0
 22 23  2  0
 12 24  1  0
 24 25  1  6
 24 26  1  0
 26 27  1  0
 27 28  1  0
 28 29  1  0
 29 30  2  0
 30 31  1  0
 31 32  2  0
 32 33  1  0
 33 34  2  0
 31 35  1  0
 35 36  1  0
 35 37  1  0
 21 16  1  0
 22  3  1  0
 34 29  1  0
M  END
$$$$
