
     RDKit          3D

 37 39  0  0  0  0  0  0  0  0999 V2000
  -22.2625  -45.5047   -2.9315 C   0  0  0  0  0  0  0  0  0  0  0  0
  -22.9223  -45.6012   -4.3123 C   0  0  0  0  0  0  0  0  0  0  0  0
  -22.1442  -44.7562   -5.1851 N   0  0  0  0  0  0  0  0  0  0  0  0
  -21.8449  -43.4244   -4.7478 C   0  0  0  0  0  0  0  0  0  0  0  0
  -22.6344  -42.2293   -5.0985 C   0  0  0  0  0  0  0  0  0  0  0  0
  -22.3097  -41.3944   -6.2628 C   0  0  0  0  0  0  0  0  0  0  0  0
  -21.7895  -39.9605   -6.0807 C   0  0  0  0  0  0  0  0  0  0  0  0
  -21.1701  -39.4624   -7.3764 C   0  0  0  0  0  0  0  0  0  0  0  0
  -19.8880  -38.6905   -7.3293 C   0  0  1  0  0  0  0  0  0  0  0  0
  -19.4987  -38.1412   -5.9742 C   0  0  0  0  0  0  0  0  0  0  0  0
  -18.8017  -38.9084   -8.2942 C   0  0  0  0  0  0  0  0  0  0  0  0
  -17.5196  -39.5472   -8.1429 C   0  0  2  0  0  0  0  0  0  0  0  0
  -17.3679  -40.8617   -7.4646 N   0  0  0  0  0  0  0  0  0  0  0  0
  -18.4443  -41.7342   -7.3105 C   0  0  0  0  0  0  0  0  0  0  0  0
  -19.1262  -41.2757   -6.1798 O   0  0  0  0  0  0  0  0  0  0  0  0
  -19.2193  -42.8903   -7.7516 C   0  0  0  0  0  0  0  0  0  0  0  0
  -19.6391  -44.0066   -6.9854 C   0  0  0  0  0  0  0  0  0  0  0  0
  -20.7420  -44.6865   -7.4068 C   0  0  0  0  0  0  0  0  0  0  0  0
  -21.4335  -44.3700   -8.5753 C   0  0  0  0  0  0  0  0  0  0  0  0
  -21.0527  -43.3116   -9.3760 C   0  0  0  0  0  0  0  0  0  0  0  0
  -19.9700  -42.6236   -8.9153 C   0  0  0  0  0  0  0  0  0  0  0  0
  -21.7295  -45.3662   -6.4320 C   0  0  0  0  0  0  0  0  0  0  0  0
  -22.1639  -46.4543   -6.7620 O   0  0  0  0  0  0  0  0  0  0  0  0
  -16.3876  -38.7019   -7.6184 C   0  0  2  0  0  0  0  0  0  0  0  0
  -16.6331  -38.0566   -6.4351 O   0  0  0  0  0  0  0  0  0  0  0  0
  -15.6459  -37.9405   -8.6546 C   0  0  0  0  0  0  0  0  0  0  0  0
  -15.7894  -38.3498  -10.0025 N   0  0  0  0  0  0  0  0  0  0  0  0
  -14.5853  -38.7543  -10.6805 C   0  0  0  0  0  0  0  0  0  0  0  0
  -13.9184  -37.5922  -11.3466 C   0  0  0  0  0  0  0  0  0  0  0  0
  -12.6142  -37.3137  -11.0407 C   0  0  0  0  0  0  0  0  0  0  0  0
  -11.9151  -36.2519  -11.6277 C   0  0  0  0  0  0  0  0  0  0  0  0
  -12.5781  -35.4800  -12.5348 C   0  0  0  0  0  0  0  0  0  0  0  0
  -13.8904  -35.7566  -12.8453 C   0  0  0  0  0  0  0  0  0  0  0  0
  -14.5725  -36.8040  -12.2632 C   0  0  0  0  0  0  0  0  0  0  0  0
  -10.5022  -36.0118  -11.2426 C   0  0  0  0  0  0  0  0  0  0  0  0
   -9.5921  -36.3397  -12.4227 C   0  0  0  0  0  0  0  0  0  0  0  0
  -10.2472  -34.5766  -10.8424 C   0  0  0  0  0  0  0  0  0  0  0  0
  1  2  1  0
  2  3  1  0
  3  4  1  0
  4  5  1  0
  5  6  1  0
  6  7  1  0
  7  8  1  0
  8  9  1  0
  9 10  1  1
  9 11  1  0
 12 11  1  1
 12 13  1  0
 13 14  1  0
 14 15  2  0
 14 16  1  0
 16 17  2  0
 17 18  1  0
 18 19  2  0
 19 20  1  0
 20 21  2  0
 18 22  1  0
 22 23  2  0
 12 24  1  0
 24 25  1  1
 24 26  1  0
 26 27  1  0
 27 28  1  0
 28 29  1  0
 29 30  2  0
 30 31  1  0
 31 32  2  0
 32 33  1  0
 33 34  2  0
 31 35  1  0
 35 36  1  0
 35 37  1  0
 21 16  1  0
 22  3  1  0
 34 29  1  0
M  END
$$$$
