
     RDKit          3D

 37 39  0  0  0  0  0  0  0  0999 V2000
  -24.1620  -43.5454   -3.5791 C   0  0  0  0  0  0  0  0  0  0  0  0
  -23.0961  -44.5976   -3.9076 C   0  0  0  0  0  0  0  0  0  0  0  0
  -22.2709  -44.0193   -4.9400 N   0  0  0  0  0  0  0  0  0  0  0  0
  -21.8809  -42.6466   -4.8053 C   0  0  0  0  0  0  0  0  0  0  0  0
  -22.5926  -41.5088   -5.4165 C   0  0  0  0  0  0  0  0  0  0  0  0
  -22.2228  -40.9748   -6.7341 C   0  0  0  0  0  0  0  0  0  0  0  0
  -21.6077  -39.5737   -6.8695 C   0  0  0  0  0  0  0  0  0  0  0  0
  -20.9671  -39.4157   -8.2388 C   0  0  0  0  0  0  0  0  0  0  0  0
  -19.6365  -38.7389   -8.3545 C   0  0  1  0  0  0  0  0  0  0  0  0
  -19.2011  -37.9312   -7.1513 C   0  0  0  0  0  0  0  0  0  0  0  0
  -18.5747  -39.2357   -9.2400 C   0  0  0  0  0  0  0  0  0  0  0  0
  -17.3363  -39.9087   -8.9428 C   0  0  2  0  0  0  0  0  0  0  0  0
  -17.2663  -41.0482   -7.9900 N   0  0  0  0  0  0  0  0  0  0  0  0
  -18.3966  -41.7921   -7.6545 C   0  0  0  0  0  0  0  0  0  0  0  0
  -19.0378  -41.0513   -6.6576 O   0  0  0  0  0  0  0  0  0  0  0  0
  -19.2497  -42.9632   -7.8350 C   0  0  0  0  0  0  0  0  0  0  0  0
  -19.7361  -43.8527   -6.8442 C   0  0  0  0  0  0  0  0  0  0  0  0
  -20.8848  -44.5344   -7.1126 C   0  0  0  0  0  0  0  0  0  0  0  0
  -21.5631  -44.4385   -8.3269 C   0  0  0  0  0  0  0  0  0  0  0  0
  -21.1197  -43.6105   -9.3388 C   0  0  0  0  0  0  0  0  0  0  0  0
  -19.9904  -42.9108   -9.0339 C   0  0  0  0  0  0  0  0  0  0  0  0
  -21.9072  -44.9154   -6.0187 C   0  0  0  0  0  0  0  0  0  0  0  0
  -22.4150  -46.0184   -6.1033 O   0  0  0  0  0  0  0  0  0  0  0  0
  -16.1469  -39.0451   -8.6100 C   0  0  2  0  0  0  0  0  0  0  0  0
  -16.3927  -37.6984   -8.5570 O   0  0  0  0  0  0  0  0  0  0  0  0
  -14.8724  -39.4685   -9.2424 C   0  0  0  0  0  0  0  0  0  0  0  0
  -13.6896  -38.7905   -8.8598 N   0  0  0  0  0  0  0  0  0  0  0  0
  -12.5043  -39.0923   -9.6196 C   0  0  0  0  0  0  0  0  0  0  0  0
  -12.6193  -38.5991  -11.0276 C   0  0  0  0  0  0  0  0  0  0  0  0
  -12.6973  -37.2516  -11.2521 C   0  0  0  0  0  0  0  0  0  0  0  0
  -12.7957  -36.7089  -12.5391 C   0  0  0  0  0  0  0  0  0  0  0  0
  -12.8128  -37.5736  -13.5928 C   0  0  0  0  0  0  0  0  0  0  0  0
  -12.7347  -38.9300  -13.3714 C   0  0  0  0  0  0  0  0  0  0  0  0
  -12.6380  -39.4573  -12.1011 C   0  0  0  0  0  0  0  0  0  0  0  0
  -12.8786  -35.2362  -12.7016 C   0  0  0  0  0  0  0  0  0  0  0  0
  -14.3142  -34.8431  -13.0378 C   0  0  0  0  0  0  0  0  0  0  0  0
  -12.4727  -34.4919  -11.4501 C   0  0  0  0  0  0  0  0  0  0  0  0
  1  2  1  0
  2  3  1  0
  3  4  1  0
  4  5  1  0
  5  6  1  0
  6  7  1  0
  7  8  1  0
  8  9  1  0
  9 10  1  1
  9 11  1  0
 12 11  1  1
 12 13  1  0
 13 14  1  0
 14 15  2  0
 14 16  1  0
 16 17  2  0
 17 18  1  0
 18 19  2  0
 19 20  1  0
 20 21  2  0
 18 22  1  0
 22 23  2  0
 12 24  1  0
 24 25  1  6
 24 26  1  0
 26 27  1  0
 27 28  1  0
 28 29  1  0
 29 30  2  0
 30 31  1  0
 31 32  2  0
 32 33  1  0
 33 34  2  0
 31 35  1  0
 35 36  1  0
 35 37  1  0
 21 16  1  0
 22  3  1  0
 34 29  1  0
M  END
$$$$
