
     RDKit          3D

 37 39  0  0  0  0  0  0  0  0999 V2000
  -24.6232  -45.5247   -5.9317 C   0  0  0  0  0  0  0  0  0  0  0  0
  -23.1847  -45.6419   -5.4138 C   0  0  0  0  0  0  0  0  0  0  0  0
  -22.4080  -44.6972   -6.1790 N   0  0  0  0  0  0  0  0  0  0  0  0
  -22.0179  -43.4716   -5.5463 C   0  0  0  0  0  0  0  0  0  0  0  0
  -22.7603  -42.2016   -5.6489 C   0  0  0  0  0  0  0  0  0  0  0  0
  -22.4509  -41.1984   -6.6766 C   0  0  0  0  0  0  0  0  0  0  0  0
  -21.8480  -39.8392   -6.2912 C   0  0  0  0  0  0  0  0  0  0  0  0
  -21.2689  -39.1585   -7.5207 C   0  0  0  0  0  0  0  0  0  0  0  0
  -19.9473  -38.4616   -7.4216 C   0  0  1  0  0  0  0  0  0  0  0  0
  -19.4626  -38.1643   -6.0193 C   0  0  0  0  0  0  0  0  0  0  0  0
  -18.9236  -38.5618   -8.4705 C   0  0  0  0  0  0  0  0  0  0  0  0
  -17.6706  -39.2719   -8.5012 C   0  0  2  0  0  0  0  0  0  0  0  0
  -17.5543  -40.6866   -8.0587 N   0  0  0  0  0  0  0  0  0  0  0  0
  -18.6658  -41.5252   -7.9883 C   0  0  0  0  0  0  0  0  0  0  0  0
  -19.2654  -41.2333   -6.7599 O   0  0  0  0  0  0  0  0  0  0  0  0
  -19.5213  -42.5565   -8.5682 C   0  0  0  0  0  0  0  0  0  0  0  0
  -19.9602  -43.7660   -7.9734 C   0  0  0  0  0  0  0  0  0  0  0  0
  -21.1169  -44.3174   -8.4363 C   0  0  0  0  0  0  0  0  0  0  0  0
  -21.8484  -43.7801   -9.4947 C   0  0  0  0  0  0  0  0  0  0  0  0
  -21.4532  -42.6201  -10.1307 C   0  0  0  0  0  0  0  0  0  0  0  0
  -20.3143  -42.0665   -9.6266 C   0  0  0  0  0  0  0  0  0  0  0  0
  -22.0886  -45.1072   -7.5313 C   0  0  0  0  0  0  0  0  0  0  0  0
  -22.5953  -46.1049   -8.0103 O   0  0  0  0  0  0  0  0  0  0  0  0
  -16.4712  -38.5760   -7.9111 C   0  0  2  0  0  0  0  0  0  0  0  0
  -16.5480  -37.2091   -7.8614 O   0  0  0  0  0  0  0  0  0  0  0  0
  -15.1609  -39.1592   -8.2940 C   0  0  0  0  0  0  0  0  0  0  0  0
  -14.6425  -38.8339   -9.5709 N   0  0  0  0  0  0  0  0  0  0  0  0
  -13.2522  -39.1354   -9.7933 C   0  0  0  0  0  0  0  0  0  0  0  0
  -13.0852  -40.2081  -10.8230 C   0  0  0  0  0  0  0  0  0  0  0  0
  -13.6247  -41.4428  -10.5853 C   0  0  0  0  0  0  0  0  0  0  0  0
  -13.5224  -42.4964  -11.5019 C   0  0  0  0  0  0  0  0  0  0  0  0
  -12.8562  -42.2610  -12.6677 C   0  0  0  0  0  0  0  0  0  0  0  0
  -12.3117  -41.0202  -12.9107 C   0  0  0  0  0  0  0  0  0  0  0  0
  -12.4164  -39.9873  -12.0034 C   0  0  0  0  0  0  0  0  0  0  0  0
  -14.1322  -43.8082  -11.1711 C   0  0  0  0  0  0  0  0  0  0  0  0
  -13.2901  -44.5049  -10.1061 C   0  0  0  0  0  0  0  0  0  0  0  0
  -15.5402  -43.6741  -10.6376 C   0  0  0  0  0  0  0  0  0  0  0  0
  1  2  1  0
  2  3  1  0
  3  4  1  0
  4  5  1  0
  5  6  1  0
  6  7  1  0
  7  8  1  0
  8  9  1  0
  9 10  1  1
  9 11  1  0
 12 11  1  1
 12 13  1  0
 13 14  1  0
 14 15  2  0
 14 16  1  0
 16 17  2  0
 17 18  1  0
 18 19  2  0
 19 20  1  0
 20 21  2  0
 18 22  1  0
 22 23  2  0
 12 24  1  0
 24 25  1  6
 24 26  1  0
 26 27  1  0
 27 28  1  0
 28 29  1  0
 29 30  2  0
 30 31  1  0
 31 32  2  0
 32 33  1  0
 33 34  2  0
 31 35  1  0
 35 36  1  0
 35 37  1  0
 21 16  1  0
 22  3  1  0
 34 29  1  0
M  END
$$$$
