
     RDKit          3D

 37 39  0  0  0  0  0  0  0  0999 V2000
  -23.5017  -44.9240   -3.7731 C   0  0  0  0  0  0  0  0  0  0  0  0
  -22.4097  -45.6978   -4.5215 C   0  0  0  0  0  0  0  0  0  0  0  0
  -21.7577  -44.7376   -5.3782 N   0  0  0  0  0  0  0  0  0  0  0  0
  -21.4860  -43.4333   -4.8496 C   0  0  0  0  0  0  0  0  0  0  0  0
  -22.3626  -42.2598   -5.0206 C   0  0  0  0  0  0  0  0  0  0  0  0
  -22.1877  -41.3107   -6.1281 C   0  0  0  0  0  0  0  0  0  0  0  0
  -21.7248  -39.8703   -5.8626 C   0  0  0  0  0  0  0  0  0  0  0  0
  -21.2521  -39.2279   -7.1566 C   0  0  0  0  0  0  0  0  0  0  0  0
  -20.0109  -38.3904   -7.1512 C   0  0  1  0  0  0  0  0  0  0  0  0
  -19.5269  -37.9381   -5.7908 C   0  0  0  0  0  0  0  0  0  0  0  0
  -19.0081  -38.4618   -8.2226 C   0  0  0  0  0  0  0  0  0  0  0  0
  -17.6874  -39.0364   -8.2417 C   0  0  2  0  0  0  0  0  0  0  0  0
  -17.4092  -40.3934   -7.7011 N   0  0  0  0  0  0  0  0  0  0  0  0
  -18.4224  -41.3364   -7.5339 C   0  0  0  0  0  0  0  0  0  0  0  0
  -19.0198  -41.0167   -6.3114 O   0  0  0  0  0  0  0  0  0  0  0  0
  -19.1762  -42.4930   -8.0092 C   0  0  0  0  0  0  0  0  0  0  0  0
  -19.4682  -43.6933   -7.3138 C   0  0  0  0  0  0  0  0  0  0  0  0
  -20.5699  -44.3968   -7.6977 C   0  0  0  0  0  0  0  0  0  0  0  0
  -21.3804  -44.0213   -8.7683 C   0  0  0  0  0  0  0  0  0  0  0  0
  -21.1275  -42.8780   -9.4997 C   0  0  0  0  0  0  0  0  0  0  0  0
  -20.0426  -42.1709   -9.0743 C   0  0  0  0  0  0  0  0  0  0  0  0
  -21.4291  -45.2133   -6.7066 C   0  0  0  0  0  0  0  0  0  0  0  0
  -21.8374  -46.2923   -7.0950 O   0  0  0  0  0  0  0  0  0  0  0  0
  -16.5555  -38.1756   -7.7429 C   0  0  2  0  0  0  0  0  0  0  0  0
  -16.6716  -36.8367   -8.0093 O   0  0  0  0  0  0  0  0  0  0  0  0
  -15.2049  -38.7730   -7.8925 C   0  0  0  0  0  0  0  0  0  0  0  0
  -14.2485  -38.0582   -8.6538 N   0  0  0  0  0  0  0  0  0  0  0  0
  -14.4612  -38.0215  -10.0774 C   0  0  0  0  0  0  0  0  0  0  0  0
  -14.2881  -39.3760  -10.6893 C   0  0  0  0  0  0  0  0  0  0  0  0
  -13.3748  -40.2363  -10.1438 C   0  0  0  0  0  0  0  0  0  0  0  0
  -13.1605  -41.5243  -10.6496 C   0  0  0  0  0  0  0  0  0  0  0  0
  -13.9003  -41.9145  -11.7261 C   0  0  0  0  0  0  0  0  0  0  0  0
  -14.8202  -41.0519  -12.2781 C   0  0  0  0  0  0  0  0  0  0  0  0
  -15.0258  -39.7849  -11.7746 C   0  0  0  0  0  0  0  0  0  0  0  0
  -12.1500  -42.3988  -10.0046 C   0  0  0  0  0  0  0  0  0  0  0  0
  -10.7794  -42.1286  -10.6187 C   0  0  0  0  0  0  0  0  0  0  0  0
  -12.0474  -42.1639   -8.5148 C   0  0  0  0  0  0  0  0  0  0  0  0
  1  2  1  0
  2  3  1  0
  3  4  1  0
  4  5  1  0
  5  6  1  0
  6  7  1  0
  7  8  1  0
  8  9  1  0
  9 10  1  1
  9 11  1  0
 12 11  1  1
 12 13  1  0
 13 14  1  0
 14 15  2  0
 14 16  1  0
 16 17  2  0
 17 18  1  0
 18 19  2  0
 19 20  1  0
 20 21  2  0
 18 22  1  0
 22 23  2  0
 12 24  1  0
 24 25  1  6
 24 26  1  0
 26 27  1  0
 27 28  1  0
 28 29  1  0
 29 30  2  0
 30 31  1  0
 31 32  2  0
 32 33  1  0
 33 34  2  0
 31 35  1  0
 35 36  1  0
 35 37  1  0
 21 16  1  0
 22  3  1  0
 34 29  1  0
M  END
$$$$
