
     RDKit          3D

 37 39  0  0  0  0  0  0  0  0999 V2000
  -24.2749  -44.2874   -4.8237 C   0  0  0  0  0  0  0  0  0  0  0  0
  -23.0228  -45.1509   -5.0187 C   0  0  0  0  0  0  0  0  0  0  0  0
  -22.1373  -44.3833   -5.8600 N   0  0  0  0  0  0  0  0  0  0  0  0
  -21.9434  -42.9969   -5.5521 C   0  0  0  0  0  0  0  0  0  0  0  0
  -22.6964  -41.8881   -6.1670 C   0  0  0  0  0  0  0  0  0  0  0  0
  -22.2120  -41.1853   -7.3627 C   0  0  0  0  0  0  0  0  0  0  0  0
  -21.7623  -39.7187   -7.2837 C   0  0  0  0  0  0  0  0  0  0  0  0
  -20.9579  -39.3528   -8.5205 C   0  0  0  0  0  0  0  0  0  0  0  0
  -19.7186  -38.5255   -8.3735 C   0  0  1  0  0  0  0  0  0  0  0  0
  -19.5622  -37.8013   -7.0542 C   0  0  0  0  0  0  0  0  0  0  0  0
  -18.4884  -38.8098   -9.1246 C   0  0  0  0  0  0  0  0  0  0  0  0
  -17.2311  -39.3693   -8.6988 C   0  0  2  0  0  0  0  0  0  0  0  0
  -17.1567  -40.5851   -7.8460 N   0  0  0  0  0  0  0  0  0  0  0  0
  -18.2223  -41.4790   -7.7515 C   0  0  0  0  0  0  0  0  0  0  0  0
  -19.0856  -40.9185   -6.8058 O   0  0  0  0  0  0  0  0  0  0  0  0
  -18.8893  -42.7124   -8.1585 C   0  0  0  0  0  0  0  0  0  0  0  0
  -19.3978  -43.7461   -7.3325 C   0  0  0  0  0  0  0  0  0  0  0  0
  -20.4032  -44.5191   -7.8302 C   0  0  0  0  0  0  0  0  0  0  0  0
  -20.9085  -44.3755   -9.1217 C   0  0  0  0  0  0  0  0  0  0  0  0
  -20.4318  -43.4051   -9.9803 C   0  0  0  0  0  0  0  0  0  0  0  0
  -19.4527  -42.6202   -9.4481 C   0  0  0  0  0  0  0  0  0  0  0  0
  -21.5157  -45.1196   -6.9419 C   0  0  0  0  0  0  0  0  0  0  0  0
  -21.8657  -46.2574   -7.1959 O   0  0  0  0  0  0  0  0  0  0  0  0
  -16.2174  -38.4185   -8.1162 C   0  0  2  0  0  0  0  0  0  0  0  0
  -16.7325  -37.2835   -7.5474 O   0  0  0  0  0  0  0  0  0  0  0  0
  -14.9769  -38.2623   -8.9163 C   0  0  0  0  0  0  0  0  0  0  0  0
  -13.8554  -39.0471   -8.5537 N   0  0  0  0  0  0  0  0  0  0  0  0
  -13.3792  -39.9789   -9.5428 C   0  0  0  0  0  0  0  0  0  0  0  0
  -13.2113  -39.3202  -10.8758 C   0  0  0  0  0  0  0  0  0  0  0  0
  -12.6994  -38.0523  -10.9271 C   0  0  0  0  0  0  0  0  0  0  0  0
  -12.5008  -37.3707  -12.1340 C   0  0  0  0  0  0  0  0  0  0  0  0
  -12.8369  -38.0132  -13.2884 C   0  0  0  0  0  0  0  0  0  0  0  0
  -13.3524  -39.2887  -13.2412 C   0  0  0  0  0  0  0  0  0  0  0  0
  -13.5453  -39.9538  -12.0489 C   0  0  0  0  0  0  0  0  0  0  0  0
  -11.9429  -35.9959  -12.1081 C   0  0  0  0  0  0  0  0  0  0  0  0
  -12.7325  -35.1468  -11.1161 C   0  0  0  0  0  0  0  0  0  0  0  0
  -10.4900  -35.9684  -11.6916 C   0  0  0  0  0  0  0  0  0  0  0  0
  1  2  1  0
  2  3  1  0
  3  4  1  0
  4  5  1  0
  5  6  1  0
  6  7  1  0
  7  8  1  0
  8  9  1  0
  9 10  1  1
  9 11  1  0
 12 11  1  1
 12 13  1  0
 13 14  1  0
 14 15  2  0
 14 16  1  0
 16 17  2  0
 17 18  1  0
 18 19  2  0
 19 20  1  0
 20 21  2  0
 18 22  1  0
 22 23  2  0
 12 24  1  0
 24 25  1  6
 24 26  1  0
 26 27  1  0
 27 28  1  0
 28 29  1  0
 29 30  2  0
 30 31  1  0
 31 32  2  0
 32 33  1  0
 33 34  2  0
 31 35  1  0
 35 36  1  0
 35 37  1  0
 21 16  1  0
 22  3  1  0
 34 29  1  0
M  END
$$$$
