
     RDKit          3D

 39 41  0  0  0  0  0  0  0  0999 V2000
  -16.0898  -43.6175  -10.8446 C   0  0  0  0  0  0  0  0  0  0  0  0
  -16.0740  -43.4085   -9.3256 C   0  0  2  0  0  0  0  0  0  0  0  0
  -16.3518  -44.7053   -8.6635 C   0  0  0  0  0  0  0  0  0  0  0  0
  -16.5339  -45.8644   -9.6492 C   0  0  0  0  0  0  0  0  0  0  0  0
  -17.1410  -46.8940   -8.9366 O   0  0  0  0  0  0  0  0  0  0  0  0
  -17.6461  -47.8847   -9.7657 C   0  0  0  0  0  0  0  0  0  0  0  0
  -19.0214  -47.6161  -10.2706 C   0  0  0  0  0  0  0  0  0  0  0  0
  -20.1276  -48.0943   -9.3717 C   0  0  0  0  0  0  0  0  0  0  0  0
  -20.1658  -47.4253   -8.0375 C   0  0  0  0  0  0  0  0  0  0  0  0
  -21.0968  -46.3303   -7.9426 N   0  0  0  0  0  0  0  0  0  0  0  0
  -20.8777  -44.9161   -8.0365 C   0  0  0  0  0  0  0  0  0  0  0  0
  -20.0420  -44.0509   -7.3766 C   0  0  0  0  0  0  0  0  0  0  0  0
  -20.1024  -42.7207   -7.7357 C   0  0  0  0  0  0  0  0  0  0  0  0
  -21.0130  -42.3239   -8.7512 C   0  0  0  0  0  0  0  0  0  0  0  0
  -21.8478  -43.1932   -9.4085 C   0  0  0  0  0  0  0  0  0  0  0  0
  -22.7706  -42.7044  -10.4582 C   0  0  0  0  0  0  0  0  0  0  0  0
  -21.7420  -44.4465   -9.0221 N   0  0  0  0  0  0  0  0  0  0  0  0
  -19.3714  -41.5352   -7.2655 C   0  0  0  0  0  0  0  0  0  0  0  0
  -20.0462  -40.4164   -7.0752 O   0  0  0  0  0  0  0  0  0  0  0  0
  -17.9952  -41.3456   -6.9592 N   0  0  0  0  0  0  0  0  0  0  0  0
  -16.8612  -41.5793   -7.7717 C   0  0  1  0  0  0  0  0  0  0  0  0
  -17.0917  -42.3287   -9.0346 C   0  0  0  0  0  0  0  0  0  0  0  0
  -16.1074  -40.2758   -8.0982 C   0  0  2  0  0  0  0  0  0  0  0  0
  -14.7619  -40.5696   -8.2901 O   0  0  0  0  0  0  0  0  0  0  0  0
  -16.4017  -39.1874   -7.1413 C   0  0  0  0  0  0  0  0  0  0  0  0
  -17.6375  -38.5550   -7.1280 N   0  0  0  0  0  0  0  0  0  0  0  0
  -18.1916  -37.8633   -8.1984 C   0  0  0  0  0  0  0  0  0  0  0  0
  -19.2015  -36.8215   -7.8043 C   0  0  0  0  0  0  0  0  0  0  0  0
  -18.8462  -38.7567   -9.2440 C   0  0  0  0  0  0  0  0  0  0  0  0
  -17.0531  -37.1957   -8.9464 C   0  0  0  0  0  0  0  0  0  0  0  0
  -16.8242  -37.1592  -10.2871 C   0  0  0  0  0  0  0  0  0  0  0  0
  -15.6681  -36.4348  -10.4803 C   0  0  0  0  0  0  0  0  0  0  0  0
  -15.0066  -36.1167  -11.7611 C   0  0  0  0  0  0  0  0  0  0  0  0
  -15.0537  -34.6431  -12.0789 C   0  0  0  0  0  0  0  0  0  0  0  0
  -14.3483  -33.9078  -10.9428 C   0  0  0  0  0  0  0  0  0  0  0  0
  -16.4806  -34.1560  -12.0975 C   0  0  0  0  0  0  0  0  0  0  0  0
  -14.3261  -34.2908  -13.3523 C   0  0  0  0  0  0  0  0  0  0  0  0
  -15.2638  -36.0792   -9.3029 O   0  0  0  0  0  0  0  0  0  0  0  0
  -16.0567  -36.5099   -8.3654 N   0  0  0  0  0  0  0  0  0  0  0  0
  2  1  1  6
  2  3  1  0
  3  4  1  0
  4  5  1  0
  5  6  1  0
  6  7  1  0
  7  8  1  0
  8  9  1  0
  9 10  1  0
 10 11  1  0
 11 12  1  0
 12 13  2  0
 13 14  1  0
 14 15  2  0
 15 16  1  0
 15 17  1  0
 13 18  1  0
 18 19  2  0
 18 20  1  0
 20 21  1  0
 21 22  1  6
 21 23  1  0
 23 24  1  1
 23 25  1  0
 25 26  1  0
 26 27  1  0
 27 28  1  0
 27 29  1  0
 27 30  1  0
 30 31  1  0
 31 32  2  0
 32 33  1  0
 33 34  1  0
 34 35  1  0
 34 36  1  0
 34 37  1  0
 32 38  1  0
 38 39  1  0
 17 11  2  0
 22  2  1  0
 39 30  2  0
M  END
$$$$
