
     RDKit          3D

 39 41  0  0  0  0  0  0  0  0999 V2000
  -18.5884  -44.1629   -8.7659 C   0  0  0  0  0  0  0  0  0  0  0  0
  -17.9392  -43.3576   -7.6339 C   0  0  2  0  0  0  0  0  0  0  0  0
  -18.8199  -43.4146   -6.4430 C   0  0  0  0  0  0  0  0  0  0  0  0
  -20.0756  -44.2667   -6.6558 C   0  0  0  0  0  0  0  0  0  0  0  0
  -20.9562  -43.9308   -5.6320 O   0  0  0  0  0  0  0  0  0  0  0  0
  -22.2437  -44.3885   -5.8704 C   0  0  0  0  0  0  0  0  0  0  0  0
  -23.0762  -43.4686   -6.6945 C   0  0  0  0  0  0  0  0  0  0  0  0
  -23.8171  -42.4189   -5.9137 C   0  0  0  0  0  0  0  0  0  0  0  0
  -22.9346  -41.4543   -5.1927 C   0  0  0  0  0  0  0  0  0  0  0  0
  -22.7085  -40.2136   -5.8885 N   0  0  0  0  0  0  0  0  0  0  0  0
  -21.5974  -39.7889   -6.6897 C   0  0  0  0  0  0  0  0  0  0  0  0
  -20.2471  -39.7179   -6.4578 C   0  0  0  0  0  0  0  0  0  0  0  0
  -19.4561  -39.2460   -7.4843 C   0  0  0  0  0  0  0  0  0  0  0  0
  -20.0720  -38.8629   -8.7057 C   0  0  0  0  0  0  0  0  0  0  0  0
  -21.4240  -38.9351   -8.9331 C   0  0  0  0  0  0  0  0  0  0  0  0
  -21.9932  -38.5177  -10.2347 C   0  0  0  0  0  0  0  0  0  0  0  0
  -22.1230  -39.3939   -7.9172 N   0  0  0  0  0  0  0  0  0  0  0  0
  -18.0050  -39.0424   -7.6014 C   0  0  0  0  0  0  0  0  0  0  0  0
  -17.5709  -37.9392   -8.1826 O   0  0  0  0  0  0  0  0  0  0  0  0
  -16.9107  -39.8519   -7.1880 N   0  0  0  0  0  0  0  0  0  0  0  0
  -16.6300  -41.2010   -7.5068 C   0  0  1  0  0  0  0  0  0  0  0  0
  -17.7146  -41.9647   -8.1778 C   0  0  0  0  0  0  0  0  0  0  0  0
  -15.3384  -41.3412   -8.3350 C   0  0  2  0  0  0  0  0  0  0  0  0
  -14.4151  -42.0837   -7.6073 O   0  0  0  0  0  0  0  0  0  0  0  0
  -14.8543  -40.0489   -8.8665 C   0  0  0  0  0  0  0  0  0  0  0  0
  -14.9518  -39.7441  -10.2174 N   0  0  0  0  0  0  0  0  0  0  0  0
  -14.0466  -38.9642  -10.9269 C   0  0  0  0  0  0  0  0  0  0  0  0
  -13.5303  -39.6067  -12.1844 C   0  0  0  0  0  0  0  0  0  0  0  0
  -12.8368  -38.5214  -10.1144 C   0  0  0  0  0  0  0  0  0  0  0  0
  -14.7459  -37.6656  -11.2819 C   0  0  0  0  0  0  0  0  0  0  0  0
  -16.0751  -37.3777  -11.2382 C   0  0  0  0  0  0  0  0  0  0  0  0
  -16.2197  -36.0718  -11.6535 C   0  0  0  0  0  0  0  0  0  0  0  0
  -17.4709  -35.2985  -11.7782 C   0  0  0  0  0  0  0  0  0  0  0  0
  -17.6533  -34.3188  -10.6461 C   0  0  0  0  0  0  0  0  0  0  0  0
  -16.2890  -34.1160   -9.9929 C   0  0  0  0  0  0  0  0  0  0  0  0
  -18.5624  -34.8987   -9.5920 C   0  0  0  0  0  0  0  0  0  0  0  0
  -18.1274  -32.9639  -11.1092 C   0  0  0  0  0  0  0  0  0  0  0  0
  -15.0272  -35.6431  -11.9189 O   0  0  0  0  0  0  0  0  0  0  0  0
  -14.1243  -36.5568  -11.7119 N   0  0  0  0  0  0  0  0  0  0  0  0
  2  1  1  6
  2  3  1  0
  3  4  1  0
  4  5  1  0
  5  6  1  0
  6  7  1  0
  7  8  1  0
  8  9  1  0
  9 10  1  0
 10 11  1  0
 11 12  1  0
 12 13  2  0
 13 14  1  0
 14 15  2  0
 15 16  1  0
 15 17  1  0
 13 18  1  0
 18 19  2  0
 18 20  1  0
 20 21  1  0
 21 22  1  6
 21 23  1  0
 23 24  1  1
 23 25  1  0
 25 26  1  0
 26 27  1  0
 27 28  1  0
 27 29  1  0
 27 30  1  0
 30 31  1  0
 31 32  2  0
 32 33  1  0
 33 34  1  0
 34 35  1  0
 34 36  1  0
 34 37  1  0
 32 38  1  0
 38 39  1  0
 17 11  2  0
 22  2  1  0
 39 30  2  0
M  END
$$$$
