
     RDKit          3D

 39 41  0  0  0  0  0  0  0  0999 V2000
  -19.9041  -39.5187   -4.9999 C   0  0  0  0  0  0  0  0  0  0  0  0
  -19.8855  -39.4774   -6.5326 C   0  0  2  0  0  0  0  0  0  0  0  0
  -21.2121  -39.9054   -7.0368 C   0  0  0  0  0  0  0  0  0  0  0  0
  -22.2129  -40.2236   -5.9208 C   0  0  0  0  0  0  0  0  0  0  0  0
  -23.2438  -40.9471   -6.5124 O   0  0  0  0  0  0  0  0  0  0  0  0
  -24.0599  -41.5661   -5.5770 C   0  0  0  0  0  0  0  0  0  0  0  0
  -23.5729  -42.9005   -5.1292 C   0  0  0  0  0  0  0  0  0  0  0  0
  -24.0247  -44.0547   -5.9802 C   0  0  0  0  0  0  0  0  0  0  0  0
  -23.5239  -44.0128   -7.3861 C   0  0  0  0  0  0  0  0  0  0  0  0
  -22.3475  -44.8083   -7.6270 N   0  0  0  0  0  0  0  0  0  0  0  0
  -20.9678  -44.4242   -7.7019 C   0  0  0  0  0  0  0  0  0  0  0  0
  -20.2933  -43.4920   -8.4492 C   0  0  0  0  0  0  0  0  0  0  0  0
  -18.9313  -43.3955   -8.2550 C   0  0  0  0  0  0  0  0  0  0  0  0
  -18.3098  -44.2538   -7.3089 C   0  0  0  0  0  0  0  0  0  0  0  0
  -18.9888  -45.1857   -6.5637 C   0  0  0  0  0  0  0  0  0  0  0  0
  -18.2710  -46.0453   -5.5952 C   0  0  0  0  0  0  0  0  0  0  0  0
  -20.2836  -45.2280   -6.7937 N   0  0  0  0  0  0  0  0  0  0  0  0
  -17.9057  -42.5296   -8.8543 C   0  0  0  0  0  0  0  0  0  0  0  0
  -16.7474  -43.0678   -9.1890 O   0  0  0  0  0  0  0  0  0  0  0  0
  -17.9170  -41.1404   -9.1605 N   0  0  0  0  0  0  0  0  0  0  0  0
  -18.1805  -40.0425   -8.3086 C   0  0  1  0  0  0  0  0  0  0  0  0
  -18.7379  -40.3605   -6.9678 C   0  0  0  0  0  0  0  0  0  0  0  0
  -16.9440  -39.1406   -8.1312 C   0  0  2  0  0  0  0  0  0  0  0  0
  -17.1730  -37.9302   -8.7762 O   0  0  0  0  0  0  0  0  0  0  0  0
  -15.6793  -39.8267   -8.4731 C   0  0  0  0  0  0  0  0  0  0  0  0
  -15.1541  -39.7705   -9.7569 N   0  0  0  0  0  0  0  0  0  0  0  0
  -13.8041  -39.6458  -10.0621 C   0  0  0  0  0  0  0  0  0  0  0  0
  -13.1602  -40.9156  -10.5456 C   0  0  0  0  0  0  0  0  0  0  0  0
  -12.9540  -39.1144   -8.9155 C   0  0  0  0  0  0  0  0  0  0  0  0
  -13.6775  -38.5825  -11.1367 C   0  0  0  0  0  0  0  0  0  0  0  0
  -12.9173  -37.4541  -11.1291 C   0  0  0  0  0  0  0  0  0  0  0  0
  -13.1382  -36.8096  -12.3268 C   0  0  0  0  0  0  0  0  0  0  0  0
  -12.5426  -35.5415  -12.7918 C   0  0  0  0  0  0  0  0  0  0  0  0
  -13.4169  -34.3518  -12.4837 C   0  0  0  0  0  0  0  0  0  0  0  0
  -14.8178  -34.6681  -12.9998 C   0  0  0  0  0  0  0  0  0  0  0  0
  -12.9354  -33.1379  -13.2375 C   0  0  0  0  0  0  0  0  0  0  0  0
  -13.5418  -34.0787  -11.0056 C   0  0  0  0  0  0  0  0  0  0  0  0
  -13.9839  -37.5409  -12.9797 O   0  0  0  0  0  0  0  0  0  0  0  0
  -14.3291  -38.6015  -12.3097 N   0  0  0  0  0  0  0  0  0  0  0  0
  2  1  1  1
  2  3  1  0
  3  4  1  0
  4  5  1  0
  5  6  1  0
  6  7  1  0
  7  8  1  0
  8  9  1  0
  9 10  1  0
 10 11  1  0
 11 12  1  0
 12 13  2  0
 13 14  1  0
 14 15  2  0
 15 16  1  0
 15 17  1  0
 13 18  1  0
 18 19  2  0
 18 20  1  0
 20 21  1  0
 21 22  1  1
 21 23  1  0
 23 24  1  6
 23 25  1  0
 25 26  1  0
 26 27  1  0
 27 28  1  0
 27 29  1  0
 27 30  1  0
 30 31  1  0
 31 32  2  0
 32 33  1  0
 33 34  1  0
 34 35  1  0
 34 36  1  0
 34 37  1  0
 32 38  1  0
 38 39  1  0
 17 11  2  0
 22  2  1  0
 39 30  2  0
M  END
$$$$
