
     RDKit          3D

 39 41  0  0  0  0  0  0  0  0999 V2000
  -18.8735  -43.1253  -10.0909 C   0  0  0  0  0  0  0  0  0  0  0  0
  -18.1873  -43.1579   -8.7201 C   0  0  2  0  0  0  0  0  0  0  0  0
  -18.7523  -44.2784   -7.9312 C   0  0  0  0  0  0  0  0  0  0  0  0
  -19.8044  -45.0898   -8.6948 C   0  0  0  0  0  0  0  0  0  0  0  0
  -20.4925  -45.8354   -7.7425 O   0  0  0  0  0  0  0  0  0  0  0  0
  -21.6674  -46.3769   -8.2428 C   0  0  0  0  0  0  0  0  0  0  0  0
  -22.8416  -45.4636   -8.1675 C   0  0  0  0  0  0  0  0  0  0  0  0
  -23.6074  -45.5263   -6.8752 C   0  0  0  0  0  0  0  0  0  0  0  0
  -22.8241  -45.1015   -5.6773 C   0  0  0  0  0  0  0  0  0  0  0  0
  -23.0347  -43.7337   -5.2779 N   0  0  0  0  0  0  0  0  0  0  0  0
  -22.2468  -42.5622   -5.5303 C   0  0  0  0  0  0  0  0  0  0  0  0
  -20.9282  -42.2538   -5.3103 C   0  0  0  0  0  0  0  0  0  0  0  0
  -20.5041  -40.9971   -5.6884 C   0  0  0  0  0  0  0  0  0  0  0  0
  -21.4405  -40.1034   -6.2735 C   0  0  0  0  0  0  0  0  0  0  0  0
  -22.7594  -40.4161   -6.4912 C   0  0  0  0  0  0  0  0  0  0  0  0
  -23.6764  -39.4306   -7.1078 C   0  0  0  0  0  0  0  0  0  0  0  0
  -23.1013  -41.6284   -6.1107 N   0  0  0  0  0  0  0  0  0  0  0  0
  -19.1951  -40.3321   -5.6177 C   0  0  0  0  0  0  0  0  0  0  0  0
  -19.1526  -39.0691   -5.2351 O   0  0  0  0  0  0  0  0  0  0  0  0
  -17.8860  -40.8117   -5.9003 N   0  0  0  0  0  0  0  0  0  0  0  0
  -17.3909  -41.4048   -7.0851 C   0  0  1  0  0  0  0  0  0  0  0  0
  -18.3998  -41.7928   -8.1057 C   0  0  0  0  0  0  0  0  0  0  0  0
  -16.3127  -40.5344   -7.7586 C   0  0  2  0  0  0  0  0  0  0  0  0
  -15.5494  -39.9195   -6.7723 O   0  0  0  0  0  0  0  0  0  0  0  0
  -16.8640  -39.6414   -8.8005 C   0  0  0  0  0  0  0  0  0  0  0  0
  -17.2308  -38.3348   -8.5084 N   0  0  0  0  0  0  0  0  0  0  0  0
  -17.3989  -37.3242   -9.4473 C   0  0  0  0  0  0  0  0  0  0  0  0
  -17.8325  -36.0070   -8.8662 C   0  0  0  0  0  0  0  0  0  0  0  0
  -18.3743  -37.6698  -10.5649 C   0  0  0  0  0  0  0  0  0  0  0  0
  -16.0726  -37.1415  -10.1607 C   0  0  0  0  0  0  0  0  0  0  0  0
  -15.8410  -36.9639  -11.4897 C   0  0  0  0  0  0  0  0  0  0  0  0
  -14.4775  -36.8454  -11.6501 C   0  0  0  0  0  0  0  0  0  0  0  0
  -13.7319  -36.6395  -12.9074 C   0  0  0  0  0  0  0  0  0  0  0  0
  -13.4259  -35.1842  -13.1593 C   0  0  0  0  0  0  0  0  0  0  0  0
  -12.9930  -35.0540  -14.6170 C   0  0  0  0  0  0  0  0  0  0  0  0
  -12.2592  -34.7397  -12.3138 C   0  0  0  0  0  0  0  0  0  0  0  0
  -14.6250  -34.2885  -12.9727 C   0  0  0  0  0  0  0  0  0  0  0  0
  -13.9641  -36.9512  -10.4662 O   0  0  0  0  0  0  0  0  0  0  0  0
  -14.8755  -37.1277   -9.5545 N   0  0  0  0  0  0  0  0  0  0  0  0
  2  1  1  6
  2  3  1  0
  3  4  1  0
  4  5  1  0
  5  6  1  0
  6  7  1  0
  7  8  1  0
  8  9  1  0
  9 10  1  0
 10 11  1  0
 11 12  1  0
 12 13  2  0
 13 14  1  0
 14 15  2  0
 15 16  1  0
 15 17  1  0
 13 18  1  0
 18 19  2  0
 18 20  1  0
 20 21  1  0
 21 22  1  6
 21 23  1  0
 23 24  1  1
 23 25  1  0
 25 26  1  0
 26 27  1  0
 27 28  1  0
 27 29  1  0
 27 30  1  0
 30 31  1  0
 31 32  2  0
 32 33  1  0
 33 34  1  0
 34 35  1  0
 34 36  1  0
 34 37  1  0
 32 38  1  0
 38 39  1  0
 17 11  2  0
 22  2  1  0
 39 30  2  0
M  END
$$$$
