
     RDKit          3D

 39 41  0  0  0  0  0  0  0  0999 V2000
  -17.6089  -44.9451  -10.0434 C   0  0  0  0  0  0  0  0  0  0  0  0
  -17.2933  -44.2043   -8.7385 C   0  0  2  0  0  0  0  0  0  0  0  0
  -17.8009  -45.0068   -7.6004 C   0  0  0  0  0  0  0  0  0  0  0  0
  -18.4456  -46.3294   -8.0287 C   0  0  0  0  0  0  0  0  0  0  0  0
  -19.1855  -46.7768   -6.9385 O   0  0  0  0  0  0  0  0  0  0  0  0
  -20.0661  -47.7933   -7.2783 C   0  0  0  0  0  0  0  0  0  0  0  0
  -21.3802  -47.3165   -7.7924 C   0  0  0  0  0  0  0  0  0  0  0  0
  -22.4150  -47.0568   -6.7331 C   0  0  0  0  0  0  0  0  0  0  0  0
  -22.0560  -45.9652   -5.7799 C   0  0  0  0  0  0  0  0  0  0  0  0
  -22.6285  -44.6817   -6.0956 N   0  0  0  0  0  0  0  0  0  0  0  0
  -22.0535  -43.5476   -6.7587 C   0  0  0  0  0  0  0  0  0  0  0  0
  -20.9203  -42.8067   -6.5366 C   0  0  0  0  0  0  0  0  0  0  0  0
  -20.6758  -41.7571   -7.3973 C   0  0  0  0  0  0  0  0  0  0  0  0
  -21.5962  -41.5023   -8.4488 C   0  0  0  0  0  0  0  0  0  0  0  0
  -22.7294  -42.2462   -8.6670 C   0  0  0  0  0  0  0  0  0  0  0  0
  -23.6420  -41.9197   -9.7863 C   0  0  0  0  0  0  0  0  0  0  0  0
  -22.9055  -43.2325   -7.8141 N   0  0  0  0  0  0  0  0  0  0  0  0
  -19.5859  -40.7736   -7.4733 C   0  0  0  0  0  0  0  0  0  0  0  0
  -19.8935  -39.5139   -7.7215 O   0  0  0  0  0  0  0  0  0  0  0  0
  -18.1790  -40.9234   -7.3250 N   0  0  0  0  0  0  0  0  0  0  0  0
  -17.2964  -41.7825   -8.0203 C   0  0  1  0  0  0  0  0  0  0  0  0
  -17.9207  -42.8344   -8.8650 C   0  0  0  0  0  0  0  0  0  0  0  0
  -16.2810  -40.9983   -8.8734 C   0  0  2  0  0  0  0  0  0  0  0  0
  -14.9948  -41.3411   -8.4713 O   0  0  0  0  0  0  0  0  0  0  0  0
  -16.5765  -39.5504   -8.9306 C   0  0  0  0  0  0  0  0  0  0  0  0
  -17.5773  -39.0517   -9.7533 N   0  0  0  0  0  0  0  0  0  0  0  0
  -17.8924  -37.7064   -9.9013 C   0  0  0  0  0  0  0  0  0  0  0  0
  -18.7091  -37.1357   -8.7753 C   0  0  0  0  0  0  0  0  0  0  0  0
  -18.6174  -37.3769  -11.1996 C   0  0  0  0  0  0  0  0  0  0  0  0
  -16.5859  -36.9425  -10.0061 C   0  0  0  0  0  0  0  0  0  0  0  0
  -16.3526  -35.7356  -10.5894 C   0  0  0  0  0  0  0  0  0  0  0  0
  -15.0119  -35.4612  -10.4282 C   0  0  0  0  0  0  0  0  0  0  0  0
  -14.2738  -34.2687  -10.8891 C   0  0  0  0  0  0  0  0  0  0  0  0
  -13.3845  -34.5673  -12.0701 C   0  0  0  0  0  0  0  0  0  0  0  0
  -14.2891  -34.9516  -13.2377 C   0  0  0  0  0  0  0  0  0  0  0  0
  -12.5112  -35.7618  -11.7803 C   0  0  0  0  0  0  0  0  0  0  0  0
  -12.5730  -33.3758  -12.5135 C   0  0  0  0  0  0  0  0  0  0  0  0
  -14.5124  -36.4668   -9.7836 O   0  0  0  0  0  0  0  0  0  0  0  0
  -15.4119  -37.3673   -9.5139 N   0  0  0  0  0  0  0  0  0  0  0  0
  2  1  1  6
  2  3  1  0
  3  4  1  0
  4  5  1  0
  5  6  1  0
  6  7  1  0
  7  8  1  0
  8  9  1  0
  9 10  1  0
 10 11  1  0
 11 12  1  0
 12 13  2  0
 13 14  1  0
 14 15  2  0
 15 16  1  0
 15 17  1  0
 13 18  1  0
 18 19  2  0
 18 20  1  0
 20 21  1  0
 21 22  1  6
 21 23  1  0
 23 24  1  1
 23 25  1  0
 25 26  1  0
 26 27  1  0
 27 28  1  0
 27 29  1  0
 27 30  1  0
 30 31  1  0
 31 32  2  0
 32 33  1  0
 33 34  1  0
 34 35  1  0
 34 36  1  0
 34 37  1  0
 32 38  1  0
 38 39  1  0
 17 11  2  0
 22  2  1  0
 39 30  2  0
M  END
$$$$
