
     RDKit          3D

 39 41  0  0  0  0  0  0  0  0999 V2000
  -16.9022  -44.3249  -10.3956 C   0  0  0  0  0  0  0  0  0  0  0  0
  -16.6211  -44.0350   -8.9163 C   0  0  2  0  0  0  0  0  0  0  0  0
  -17.0222  -45.2157   -8.1150 C   0  0  0  0  0  0  0  0  0  0  0  0
  -17.5540  -46.3749   -8.9646 C   0  0  0  0  0  0  0  0  0  0  0  0
  -18.2203  -47.2287   -8.0909 O   0  0  0  0  0  0  0  0  0  0  0  0
  -19.0126  -48.1528   -8.7559 C   0  0  0  0  0  0  0  0  0  0  0  0
  -20.3782  -47.6597   -9.0881 C   0  0  0  0  0  0  0  0  0  0  0  0
  -21.4037  -47.8681   -8.0087 C   0  0  0  0  0  0  0  0  0  0  0  0
  -21.1210  -47.1278   -6.7433 C   0  0  0  0  0  0  0  0  0  0  0  0
  -21.8172  -45.8735   -6.6146 N   0  0  0  0  0  0  0  0  0  0  0  0
  -21.3667  -44.5337   -6.8570 C   0  0  0  0  0  0  0  0  0  0  0  0
  -20.3008  -43.8046   -6.3937 C   0  0  0  0  0  0  0  0  0  0  0  0
  -20.1768  -42.5099   -6.8524 C   0  0  0  0  0  0  0  0  0  0  0  0
  -21.1446  -42.0082   -7.7632 C   0  0  0  0  0  0  0  0  0  0  0  0
  -22.2101  -42.7413   -8.2237 C   0  0  0  0  0  0  0  0  0  0  0  0
  -23.1784  -42.1490   -9.1743 C   0  0  0  0  0  0  0  0  0  0  0  0
  -22.2720  -43.9675   -7.7508 N   0  0  0  0  0  0  0  0  0  0  0  0
  -19.1842  -41.4581   -6.5891 C   0  0  0  0  0  0  0  0  0  0  0  0
  -19.6127  -40.2231   -6.4033 O   0  0  0  0  0  0  0  0  0  0  0  0
  -17.7661  -41.5137   -6.4917 N   0  0  0  0  0  0  0  0  0  0  0  0
  -16.8272  -42.0034   -7.4294 C   0  0  1  0  0  0  0  0  0  0  0  0
  -17.3748  -42.7678   -8.5807 C   0  0  0  0  0  0  0  0  0  0  0  0
  -15.9114  -40.8864   -7.9655 C   0  0  2  0  0  0  0  0  0  0  0  0
  -14.6234  -41.0891   -7.4821 O   0  0  0  0  0  0  0  0  0  0  0  0
  -16.4742  -39.5344   -7.7597 C   0  0  0  0  0  0  0  0  0  0  0  0
  -16.5616  -38.6243   -8.8043 N   0  0  0  0  0  0  0  0  0  0  0  0
  -17.3298  -37.4664   -8.7918 C   0  0  0  0  0  0  0  0  0  0  0  0
  -17.5125  -36.8610   -7.4277 C   0  0  0  0  0  0  0  0  0  0  0  0
  -18.7148  -37.6326   -9.4033 C   0  0  0  0  0  0  0  0  0  0  0  0
  -16.6472  -36.4583   -9.6969 C   0  0  0  0  0  0  0  0  0  0  0  0
  -16.7640  -35.1027   -9.6980 C   0  0  0  0  0  0  0  0  0  0  0  0
  -15.9499  -34.6276  -10.7032 C   0  0  0  0  0  0  0  0  0  0  0  0
  -15.7342  -33.2224  -11.1006 C   0  0  0  0  0  0  0  0  0  0  0  0
  -17.0249  -32.5184  -11.4374 C   0  0  0  0  0  0  0  0  0  0  0  0
  -18.1661  -33.4832  -11.1274 C   0  0  0  0  0  0  0  0  0  0  0  0
  -17.0904  -32.2217  -12.9144 C   0  0  0  0  0  0  0  0  0  0  0  0
  -17.2554  -31.2802  -10.6076 C   0  0  0  0  0  0  0  0  0  0  0  0
  -15.3995  -35.6673  -11.2438 O   0  0  0  0  0  0  0  0  0  0  0  0
  -15.7859  -36.7728  -10.6768 N   0  0  0  0  0  0  0  0  0  0  0  0
  2  1  1  6
  2  3  1  0
  3  4  1  0
  4  5  1  0
  5  6  1  0
  6  7  1  0
  7  8  1  0
  8  9  1  0
  9 10  1  0
 10 11  1  0
 11 12  1  0
 12 13  2  0
 13 14  1  0
 14 15  2  0
 15 16  1  0
 15 17  1  0
 13 18  1  0
 18 19  2  0
 18 20  1  0
 20 21  1  0
 21 22  1  6
 21 23  1  0
 23 24  1  1
 23 25  1  0
 25 26  1  0
 26 27  1  0
 27 28  1  0
 27 29  1  0
 27 30  1  0
 30 31  1  0
 31 32  2  0
 32 33  1  0
 33 34  1  0
 34 35  1  0
 34 36  1  0
 34 37  1  0
 32 38  1  0
 38 39  1  0
 17 11  2  0
 22  2  1  0
 39 30  2  0
M  END
$$$$
