
     RDKit          3D

 39 41  0  0  0  0  0  0  0  0999 V2000
  -19.5076  -44.2177  -10.0882 C   0  0  0  0  0  0  0  0  0  0  0  0
  -18.4733  -43.8894   -9.0048 C   0  0  2  0  0  0  0  0  0  0  0  0
  -18.9683  -44.3989   -7.7038 C   0  0  0  0  0  0  0  0  0  0  0  0
  -20.3153  -45.1223   -7.8068 C   0  0  0  0  0  0  0  0  0  0  0  0
  -20.8168  -45.2048   -6.5115 O   0  0  0  0  0  0  0  0  0  0  0  0
  -22.1591  -45.5534   -6.4853 C   0  0  0  0  0  0  0  0  0  0  0  0
  -23.0924  -44.4004   -6.6199 C   0  0  0  0  0  0  0  0  0  0  0  0
  -23.4555  -43.7287   -5.3247 C   0  0  0  0  0  0  0  0  0  0  0  0
  -22.3026  -43.0960   -4.6180 C   0  0  0  0  0  0  0  0  0  0  0  0
  -22.1579  -41.6824   -4.8538 N   0  0  0  0  0  0  0  0  0  0  0  0
  -21.2906  -40.9760   -5.7513 C   0  0  0  0  0  0  0  0  0  0  0  0
  -19.9320  -40.9828   -5.9420 C   0  0  0  0  0  0  0  0  0  0  0  0
  -19.4296  -40.1514   -6.9211 C   0  0  0  0  0  0  0  0  0  0  0  0
  -20.3308  -39.3444   -7.6658 C   0  0  0  0  0  0  0  0  0  0  0  0
  -21.6898  -39.3405   -7.4711 C   0  0  0  0  0  0  0  0  0  0  0  0
  -22.5663  -38.4712   -8.2886 C   0  0  0  0  0  0  0  0  0  0  0  0
  -22.1064  -40.1547   -6.5252 N   0  0  0  0  0  0  0  0  0  0  0  0
  -18.0631  -39.9031   -7.4024 C   0  0  0  0  0  0  0  0  0  0  0  0
  -17.7020  -38.6578   -7.6516 O   0  0  0  0  0  0  0  0  0  0  0  0
  -16.9893  -40.7968   -7.6707 N   0  0  0  0  0  0  0  0  0  0  0  0
  -16.9606  -41.9244   -8.5241 C   0  0  1  0  0  0  0  0  0  0  0  0
  -18.2694  -42.3919   -9.0516 C   0  0  0  0  0  0  0  0  0  0  0  0
  -15.9903  -41.7294   -9.7049 C   0  0  2  0  0  0  0  0  0  0  0  0
  -15.4325  -42.9590  -10.0373 O   0  0  0  0  0  0  0  0  0  0  0  0
  -15.0336  -40.6233   -9.4850 C   0  0  0  0  0  0  0  0  0  0  0  0
  -14.5887  -39.8361  -10.5384 N   0  0  0  0  0  0  0  0  0  0  0  0
  -13.8967  -38.6387  -10.4031 C   0  0  0  0  0  0  0  0  0  0  0  0
  -13.0254  -38.2924  -11.5785 C   0  0  0  0  0  0  0  0  0  0  0  0
  -13.0267  -38.5609   -9.1554 C   0  0  0  0  0  0  0  0  0  0  0  0
  -14.9239  -37.5403  -10.2037 C   0  0  0  0  0  0  0  0  0  0  0  0
  -15.7806  -37.0036  -11.1144 C   0  0  0  0  0  0  0  0  0  0  0  0
  -16.5143  -36.0385  -10.4594 C   0  0  0  0  0  0  0  0  0  0  0  0
  -17.5730  -35.1756  -11.0196 C   0  0  0  0  0  0  0  0  0  0  0  0
  -17.3438  -33.7167  -10.7134 C   0  0  0  0  0  0  0  0  0  0  0  0
  -18.4476  -32.9248  -11.4088 C   0  0  0  0  0  0  0  0  0  0  0  0
  -16.0350  -33.2562  -11.3038 C   0  0  0  0  0  0  0  0  0  0  0  0
  -17.4345  -33.4018   -9.2411 C   0  0  0  0  0  0  0  0  0  0  0  0
  -16.0910  -36.0314   -9.2359 O   0  0  0  0  0  0  0  0  0  0  0  0
  -15.1481  -36.9068   -9.0421 N   0  0  0  0  0  0  0  0  0  0  0  0
  2  1  1  6
  2  3  1  0
  3  4  1  0
  4  5  1  0
  5  6  1  0
  6  7  1  0
  7  8  1  0
  8  9  1  0
  9 10  1  0
 10 11  1  0
 11 12  1  0
 12 13  2  0
 13 14  1  0
 14 15  2  0
 15 16  1  0
 15 17  1  0
 13 18  1  0
 18 19  2  0
 18 20  1  0
 20 21  1  0
 21 22  1  6
 21 23  1  0
 23 24  1  1
 23 25  1  0
 25 26  1  0
 26 27  1  0
 27 28  1  0
 27 29  1  0
 27 30  1  0
 30 31  1  0
 31 32  2  0
 32 33  1  0
 33 34  1  0
 34 35  1  0
 34 36  1  0
 34 37  1  0
 32 38  1  0
 38 39  1  0
 17 11  2  0
 22  2  1  0
 39 30  2  0
M  END
$$$$
