
     RDKit          3D

 39 41  0  0  0  0  0  0  0  0999 V2000
  -19.5136  -39.4839   -5.5397 C   0  0  0  0  0  0  0  0  0  0  0  0
  -19.2821  -39.2285   -7.0339 C   0  0  2  0  0  0  0  0  0  0  0  0
  -20.5485  -39.4806   -7.7619 C   0  0  0  0  0  0  0  0  0  0  0  0
  -21.7093  -39.8768   -6.8433 C   0  0  0  0  0  0  0  0  0  0  0  0
  -22.6877  -40.4304   -7.6634 O   0  0  0  0  0  0  0  0  0  0  0  0
  -23.6578  -41.1119   -6.9434 C   0  0  0  0  0  0  0  0  0  0  0  0
  -23.3118  -42.5289   -6.6417 C   0  0  0  0  0  0  0  0  0  0  0  0
  -23.7057  -43.5145   -7.7065 C   0  0  0  0  0  0  0  0  0  0  0  0
  -23.0149  -43.3127   -9.0146 C   0  0  0  0  0  0  0  0  0  0  0  0
  -21.8625  -44.1522   -9.2193 N   0  0  0  0  0  0  0  0  0  0  0  0
  -20.4665  -43.8661   -9.0589 C   0  0  0  0  0  0  0  0  0  0  0  0
  -19.6449  -42.8911   -9.5658 C   0  0  0  0  0  0  0  0  0  0  0  0
  -18.3192  -42.9254   -9.1867 C   0  0  0  0  0  0  0  0  0  0  0  0
  -17.8824  -43.9526   -8.3081 C   0  0  0  0  0  0  0  0  0  0  0  0
  -18.7081  -44.9266   -7.8038 C   0  0  0  0  0  0  0  0  0  0  0  0
  -18.1791  -45.9654   -6.8910 C   0  0  0  0  0  0  0  0  0  0  0  0
  -19.9593  -44.8387   -8.2012 N   0  0  0  0  0  0  0  0  0  0  0  0
  -17.1745  -42.0631   -9.5136 C   0  0  0  0  0  0  0  0  0  0  0  0
  -16.0129  -42.6341   -9.7742 O   0  0  0  0  0  0  0  0  0  0  0  0
  -17.0665  -40.6478   -9.6074 N   0  0  0  0  0  0  0  0  0  0  0  0
  -17.3832  -39.6641   -8.6416 C   0  0  1  0  0  0  0  0  0  0  0  0
  -18.1365  -40.1252   -7.4459 C   0  0  0  0  0  0  0  0  0  0  0  0
  -16.1347  -38.8916   -8.1745 C   0  0  2  0  0  0  0  0  0  0  0  0
  -16.5403  -37.7398   -7.5094 O   0  0  0  0  0  0  0  0  0  0  0  0
  -15.1415  -38.6997   -9.2533 C   0  0  0  0  0  0  0  0  0  0  0  0
  -13.7985  -38.9909   -9.0557 N   0  0  0  0  0  0  0  0  0  0  0  0
  -12.7564  -38.5293   -9.8506 C   0  0  0  0  0  0  0  0  0  0  0  0
  -11.4719  -39.2941   -9.6906 C   0  0  0  0  0  0  0  0  0  0  0  0
  -12.4328  -37.0537   -9.6561 C   0  0  0  0  0  0  0  0  0  0  0  0
  -13.2126  -38.6181  -11.2947 C   0  0  0  0  0  0  0  0  0  0  0  0
  -13.1695  -37.6592  -12.2591 C   0  0  0  0  0  0  0  0  0  0  0  0
  -13.6969  -38.2141  -13.4048 C   0  0  0  0  0  0  0  0  0  0  0  0
  -13.8663  -37.5712  -14.7228 C   0  0  0  0  0  0  0  0  0  0  0  0
  -12.6151  -37.6472  -15.5615 C   0  0  0  0  0  0  0  0  0  0  0  0
  -12.2377  -39.1206  -15.6868 C   0  0  0  0  0  0  0  0  0  0  0  0
  -11.4711  -36.9595  -14.8601 C   0  0  0  0  0  0  0  0  0  0  0  0
  -12.8105  -37.1205  -16.9612 C   0  0  0  0  0  0  0  0  0  0  0  0
  -14.0223  -39.4298  -13.1005 O   0  0  0  0  0  0  0  0  0  0  0  0
  -13.7518  -39.7097  -11.8590 N   0  0  0  0  0  0  0  0  0  0  0  0
  2  1  1  1
  2  3  1  0
  3  4  1  0
  4  5  1  0
  5  6  1  0
  6  7  1  0
  7  8  1  0
  8  9  1  0
  9 10  1  0
 10 11  1  0
 11 12  1  0
 12 13  2  0
 13 14  1  0
 14 15  2  0
 15 16  1  0
 15 17  1  0
 13 18  1  0
 18 19  2  0
 18 20  1  0
 20 21  1  0
 21 22  1  1
 21 23  1  0
 23 24  1  6
 23 25  1  0
 25 26  1  0
 26 27  1  0
 27 28  1  0
 27 29  1  0
 27 30  1  0
 30 31  1  0
 31 32  2  0
 32 33  1  0
 33 34  1  0
 34 35  1  0
 34 36  1  0
 34 37  1  0
 32 38  1  0
 38 39  1  0
 17 11  2  0
 22  2  1  0
 39 30  2  0
M  END
$$$$
