
     RDKit          3D

 39 41  0  0  0  0  0  0  0  0999 V2000
  -19.1697  -40.3837   -4.3577 C   0  0  0  0  0  0  0  0  0  0  0  0
  -19.3325  -39.7972   -5.7650 C   0  0  2  0  0  0  0  0  0  0  0  0
  -20.7650  -39.8533   -6.1416 C   0  0  0  0  0  0  0  0  0  0  0  0
  -21.6612  -40.4286   -5.0397 C   0  0  0  0  0  0  0  0  0  0  0  0
  -22.8671  -40.7622   -5.6486 O   0  0  0  0  0  0  0  0  0  0  0  0
  -23.6575  -41.5732   -4.8475 C   0  0  0  0  0  0  0  0  0  0  0  0
  -23.3591  -43.0275   -4.9677 C   0  0  0  0  0  0  0  0  0  0  0  0
  -24.1061  -43.7359   -6.0634 C   0  0  0  0  0  0  0  0  0  0  0  0
  -23.7821  -43.2523   -7.4382 C   0  0  0  0  0  0  0  0  0  0  0  0
  -22.8009  -44.0430   -8.1358 N   0  0  0  0  0  0  0  0  0  0  0  0
  -21.3952  -43.8260   -8.3192 C   0  0  0  0  0  0  0  0  0  0  0  0
  -20.6656  -42.7756   -8.8160 C   0  0  0  0  0  0  0  0  0  0  0  0
  -19.2942  -42.9193   -8.8439 C   0  0  0  0  0  0  0  0  0  0  0  0
  -18.7203  -44.1280   -8.3667 C   0  0  0  0  0  0  0  0  0  0  0  0
  -19.4545  -45.1768   -7.8709 C   0  0  0  0  0  0  0  0  0  0  0  0
  -18.7840  -46.4063   -7.3903 C   0  0  0  0  0  0  0  0  0  0  0  0
  -20.7552  -44.9781   -7.8697 N   0  0  0  0  0  0  0  0  0  0  0  0
  -18.2149  -42.0256   -9.2880 C   0  0  0  0  0  0  0  0  0  0  0  0
  -17.2181  -42.5423   -9.9827 O   0  0  0  0  0  0  0  0  0  0  0  0
  -18.0216  -40.6285   -9.1022 N   0  0  0  0  0  0  0  0  0  0  0  0
  -17.9832  -39.8867   -7.8986 C   0  0  1  0  0  0  0  0  0  0  0  0
  -18.4186  -40.5958   -6.6668 C   0  0  0  0  0  0  0  0  0  0  0  0
  -16.5962  -39.2640   -7.6491 C   0  0  2  0  0  0  0  0  0  0  0  0
  -16.7434  -38.1495   -6.8307 O   0  0  0  0  0  0  0  0  0  0  0  0
  -15.8285  -39.0543   -8.8955 C   0  0  0  0  0  0  0  0  0  0  0  0
  -15.3185  -40.1258   -9.6159 N   0  0  0  0  0  0  0  0  0  0  0  0
  -14.2361  -40.0604  -10.4849 C   0  0  0  0  0  0  0  0  0  0  0  0
  -14.0115  -41.3120  -11.2872 C   0  0  0  0  0  0  0  0  0  0  0  0
  -12.9163  -39.7122   -9.8090 C   0  0  0  0  0  0  0  0  0  0  0  0
  -14.4819  -38.8999  -11.4305 C   0  0  0  0  0  0  0  0  0  0  0  0
  -13.6543  -37.8642  -11.7365 C   0  0  0  0  0  0  0  0  0  0  0  0
  -14.3213  -37.0676  -12.6416 C   0  0  0  0  0  0  0  0  0  0  0  0
  -13.8407  -35.8228  -13.2731 C   0  0  0  0  0  0  0  0  0  0  0  0
  -14.4215  -34.5911  -12.6248 C   0  0  0  0  0  0  0  0  0  0  0  0
  -15.9406  -34.6908  -12.7330 C   0  0  0  0  0  0  0  0  0  0  0  0
  -14.0080  -33.3550  -13.3828 C   0  0  0  0  0  0  0  0  0  0  0  0
  -14.0891  -34.4845  -11.1574 C   0  0  0  0  0  0  0  0  0  0  0  0
  -15.4718  -37.6283  -12.8371 O   0  0  0  0  0  0  0  0  0  0  0  0
  -15.6075  -38.7172  -12.1380 N   0  0  0  0  0  0  0  0  0  0  0  0
  2  1  1  1
  2  3  1  0
  3  4  1  0
  4  5  1  0
  5  6  1  0
  6  7  1  0
  7  8  1  0
  8  9  1  0
  9 10  1  0
 10 11  1  0
 11 12  1  0
 12 13  2  0
 13 14  1  0
 14 15  2  0
 15 16  1  0
 15 17  1  0
 13 18  1  0
 18 19  2  0
 18 20  1  0
 20 21  1  0
 21 22  1  1
 21 23  1  0
 23 24  1  6
 23 25  1  0
 25 26  1  0
 26 27  1  0
 27 28  1  0
 27 29  1  0
 27 30  1  0
 30 31  1  0
 31 32  2  0
 32 33  1  0
 33 34  1  0
 34 35  1  0
 34 36  1  0
 34 37  1  0
 32 38  1  0
 38 39  1  0
 17 11  2  0
 22  2  1  0
 39 30  2  0
M  END
$$$$
