
     RDKit          3D

 39 41  0  0  0  0  0  0  0  0999 V2000
  -19.2663  -40.1170   -4.2941 C   0  0  0  0  0  0  0  0  0  0  0  0
  -19.3503  -39.6446   -5.7505 C   0  0  2  0  0  0  0  0  0  0  0  0
  -20.7542  -39.7662   -6.2104 C   0  0  0  0  0  0  0  0  0  0  0  0
  -21.7073  -40.2779   -5.1251 C   0  0  0  0  0  0  0  0  0  0  0  0
  -22.8644  -40.6881   -5.7803 O   0  0  0  0  0  0  0  0  0  0  0  0
  -23.6877  -41.4551   -4.9692 C   0  0  0  0  0  0  0  0  0  0  0  0
  -23.3522  -42.9062   -4.9562 C   0  0  0  0  0  0  0  0  0  0  0  0
  -24.0123  -43.7157   -6.0376 C   0  0  0  0  0  0  0  0  0  0  0  0
  -23.6106  -43.3309   -7.4231 C   0  0  0  0  0  0  0  0  0  0  0  0
  -22.5704  -44.1475   -7.9939 N   0  0  0  0  0  0  0  0  0  0  0  0
  -21.1606  -43.9093   -8.1054 C   0  0  0  0  0  0  0  0  0  0  0  0
  -20.4223  -42.8819   -8.6363 C   0  0  0  0  0  0  0  0  0  0  0  0
  -19.0493  -42.9921   -8.5669 C   0  0  0  0  0  0  0  0  0  0  0  0
  -18.4825  -44.1454   -7.9616 C   0  0  0  0  0  0  0  0  0  0  0  0
  -19.2252  -45.1715   -7.4322 C   0  0  0  0  0  0  0  0  0  0  0  0
  -18.5617  -46.3428   -6.8157 C   0  0  0  0  0  0  0  0  0  0  0  0
  -20.5271  -45.0067   -7.5279 N   0  0  0  0  0  0  0  0  0  0  0  0
  -17.9624  -42.1078   -9.0112 C   0  0  0  0  0  0  0  0  0  0  0  0
  -16.9124  -42.6507   -9.5996 O   0  0  0  0  0  0  0  0  0  0  0  0
  -17.8104  -40.6961   -8.9237 N   0  0  0  0  0  0  0  0  0  0  0  0
  -17.8649  -39.8632   -7.7818 C   0  0  1  0  0  0  0  0  0  0  0  0
  -18.3639  -40.4866   -6.5280 C   0  0  0  0  0  0  0  0  0  0  0  0
  -16.5100  -39.1879   -7.4956 C   0  0  2  0  0  0  0  0  0  0  0  0
  -16.7323  -38.0203   -6.7738 O   0  0  0  0  0  0  0  0  0  0  0  0
  -15.6701  -39.0506   -8.7050 C   0  0  0  0  0  0  0  0  0  0  0  0
  -16.1541  -39.3930   -9.9603 N   0  0  0  0  0  0  0  0  0  0  0  0
  -15.5122  -39.1254  -11.1634 C   0  0  0  0  0  0  0  0  0  0  0  0
  -16.4365  -38.7356  -12.2834 C   0  0  0  0  0  0  0  0  0  0  0  0
  -14.6413  -40.2673  -11.6708 C   0  0  0  0  0  0  0  0  0  0  0  0
  -14.5294  -37.9972  -10.9130 C   0  0  0  0  0  0  0  0  0  0  0  0
  -13.5949  -37.4824  -11.7574 C   0  0  0  0  0  0  0  0  0  0  0  0
  -12.9476  -36.4737  -11.0774 C   0  0  0  0  0  0  0  0  0  0  0  0
  -11.8525  -35.6138  -11.5679 C   0  0  0  0  0  0  0  0  0  0  0  0
  -12.3422  -34.5505  -12.5188 C   0  0  0  0  0  0  0  0  0  0  0  0
  -12.9676  -35.2609  -13.7160 C   0  0  0  0  0  0  0  0  0  0  0  0
  -11.1824  -33.7429  -13.0447 C   0  0  0  0  0  0  0  0  0  0  0  0
  -13.4104  -33.6702  -11.9198 C   0  0  0  0  0  0  0  0  0  0  0  0
  -13.4921  -36.4221   -9.9039 O   0  0  0  0  0  0  0  0  0  0  0  0
  -14.4343  -37.3085   -9.7652 N   0  0  0  0  0  0  0  0  0  0  0  0
  2  1  1  1
  2  3  1  0
  3  4  1  0
  4  5  1  0
  5  6  1  0
  6  7  1  0
  7  8  1  0
  8  9  1  0
  9 10  1  0
 10 11  1  0
 11 12  1  0
 12 13  2  0
 13 14  1  0
 14 15  2  0
 15 16  1  0
 15 17  1  0
 13 18  1  0
 18 19  2  0
 18 20  1  0
 20 21  1  0
 21 22  1  1
 21 23  1  0
 23 24  1  6
 23 25  1  0
 25 26  1  0
 26 27  1  0
 27 28  1  0
 27 29  1  0
 27 30  1  0
 30 31  1  0
 31 32  2  0
 32 33  1  0
 33 34  1  0
 34 35  1  0
 34 36  1  0
 34 37  1  0
 32 38  1  0
 38 39  1  0
 17 11  2  0
 22  2  1  0
 39 30  2  0
M  END
$$$$
