
     RDKit          3D

 39 41  0  0  0  0  0  0  0  0999 V2000
  -18.8357  -39.7290   -4.6795 C   0  0  0  0  0  0  0  0  0  0  0  0
  -19.0139  -39.1964   -6.1063 C   0  0  2  0  0  0  0  0  0  0  0  0
  -20.4449  -39.3004   -6.4784 C   0  0  0  0  0  0  0  0  0  0  0  0
  -21.3260  -39.8583   -5.3555 C   0  0  0  0  0  0  0  0  0  0  0  0
  -22.5239  -40.2422   -5.9504 O   0  0  0  0  0  0  0  0  0  0  0  0
  -23.2937  -41.0435   -5.1201 C   0  0  0  0  0  0  0  0  0  0  0  0
  -22.9601  -42.4935   -5.1898 C   0  0  0  0  0  0  0  0  0  0  0  0
  -23.6905  -43.2578   -6.2587 C   0  0  0  0  0  0  0  0  0  0  0  0
  -23.3795  -42.8150   -7.6501 C   0  0  0  0  0  0  0  0  0  0  0  0
  -22.3799  -43.6056   -8.3212 N   0  0  0  0  0  0  0  0  0  0  0  0
  -20.9800  -43.3612   -8.5144 C   0  0  0  0  0  0  0  0  0  0  0  0
  -20.2765  -42.3115   -9.0488 C   0  0  0  0  0  0  0  0  0  0  0  0
  -18.9020  -42.4228   -9.0739 C   0  0  0  0  0  0  0  0  0  0  0  0
  -18.2986  -43.5997   -8.5556 C   0  0  0  0  0  0  0  0  0  0  0  0
  -19.0067  -44.6479   -8.0222 C   0  0  0  0  0  0  0  0  0  0  0  0
  -18.3061  -45.8431   -7.4998 C   0  0  0  0  0  0  0  0  0  0  0  0
  -20.3118  -44.4809   -8.0258 N   0  0  0  0  0  0  0  0  0  0  0  0
  -17.8451  -41.5193   -9.5508 C   0  0  0  0  0  0  0  0  0  0  0  0
  -16.8366  -42.0357  -10.2286 O   0  0  0  0  0  0  0  0  0  0  0  0
  -17.6857  -40.1122   -9.4144 N   0  0  0  0  0  0  0  0  0  0  0  0
  -17.6644  -39.3279   -8.2376 C   0  0  1  0  0  0  0  0  0  0  0  0
  -18.0815  -40.0038   -6.9810 C   0  0  0  0  0  0  0  0  0  0  0  0
  -16.2928  -38.6633   -8.0124 C   0  0  2  0  0  0  0  0  0  0  0  0
  -16.0543  -38.5746   -6.6453 O   0  0  0  0  0  0  0  0  0  0  0  0
  -16.1291  -37.4101   -8.7801 C   0  0  0  0  0  0  0  0  0  0  0  0
  -15.9825  -37.4254  -10.1606 N   0  0  0  0  0  0  0  0  0  0  0  0
  -14.7828  -37.2433  -10.8378 C   0  0  0  0  0  0  0  0  0  0  0  0
  -13.7721  -36.4165  -10.0925 C   0  0  0  0  0  0  0  0  0  0  0  0
  -14.9379  -36.6295  -12.2231 C   0  0  0  0  0  0  0  0  0  0  0  0
  -14.2004  -38.6177  -11.1081 C   0  0  0  0  0  0  0  0  0  0  0  0
  -13.1440  -38.9517  -11.8979 C   0  0  0  0  0  0  0  0  0  0  0  0
  -12.9994  -40.3199  -11.8224 C   0  0  0  0  0  0  0  0  0  0  0  0
  -11.9935  -41.1594  -12.5025 C   0  0  0  0  0  0  0  0  0  0  0  0
  -12.4104  -41.5297  -13.9039 C   0  0  0  0  0  0  0  0  0  0  0  0
  -11.5612  -42.7229  -14.3331 C   0  0  0  0  0  0  0  0  0  0  0  0
  -12.0996  -40.4042  -14.8581 C   0  0  0  0  0  0  0  0  0  0  0  0
  -13.8535  -41.9583  -13.9962 C   0  0  0  0  0  0  0  0  0  0  0  0
  -13.9312  -40.7381  -11.0266 O   0  0  0  0  0  0  0  0  0  0  0  0
  -14.6655  -39.7608  -10.5810 N   0  0  0  0  0  0  0  0  0  0  0  0
  2  1  1  1
  2  3  1  0
  3  4  1  0
  4  5  1  0
  5  6  1  0
  6  7  1  0
  7  8  1  0
  8  9  1  0
  9 10  1  0
 10 11  1  0
 11 12  1  0
 12 13  2  0
 13 14  1  0
 14 15  2  0
 15 16  1  0
 15 17  1  0
 13 18  1  0
 18 19  2  0
 18 20  1  0
 20 21  1  0
 21 22  1  1
 21 23  1  0
 23 24  1  1
 23 25  1  0
 25 26  1  0
 26 27  1  0
 27 28  1  0
 27 29  1  0
 27 30  1  0
 30 31  1  0
 31 32  2  0
 32 33  1  0
 33 34  1  0
 34 35  1  0
 34 36  1  0
 34 37  1  0
 32 38  1  0
 38 39  1  0
 17 11  2  0
 22  2  1  0
 39 30  2  0
M  END
$$$$
