
     RDKit          3D

 39 41  0  0  0  0  0  0  0  0999 V2000
  -18.9719  -44.8411  -10.0164 C   0  0  0  0  0  0  0  0  0  0  0  0
  -18.1242  -44.5489   -8.7725 C   0  0  2  0  0  0  0  0  0  0  0  0
  -18.3164  -45.6477   -7.7964 C   0  0  0  0  0  0  0  0  0  0  0  0
  -19.2494  -46.7534   -8.3015 C   0  0  0  0  0  0  0  0  0  0  0  0
  -19.6234  -47.4927   -7.1835 O   0  0  0  0  0  0  0  0  0  0  0  0
  -20.7015  -48.3275   -7.4381 C   0  0  0  0  0  0  0  0  0  0  0  0
  -22.0308  -47.6758   -7.2741 C   0  0  0  0  0  0  0  0  0  0  0  0
  -22.5890  -47.7243   -5.8790 C   0  0  0  0  0  0  0  0  0  0  0  0
  -21.7726  -46.9915   -4.8662 C   0  0  0  0  0  0  0  0  0  0  0  0
  -22.2312  -45.6566   -4.5793 N   0  0  0  0  0  0  0  0  0  0  0  0
  -21.7657  -44.3912   -5.0679 C   0  0  0  0  0  0  0  0  0  0  0  0
  -20.5328  -43.7896   -5.0876 C   0  0  0  0  0  0  0  0  0  0  0  0
  -20.4541  -42.5336   -5.6519 C   0  0  0  0  0  0  0  0  0  0  0  0
  -21.6348  -41.9390   -6.1718 C   0  0  0  0  0  0  0  0  0  0  0  0
  -22.8668  -42.5446   -6.1494 C   0  0  0  0  0  0  0  0  0  0  0  0
  -24.0534  -41.8612   -6.7126 C   0  0  0  0  0  0  0  0  0  0  0  0
  -22.8757  -43.7401   -5.6000 N   0  0  0  0  0  0  0  0  0  0  0  0
  -19.3298  -41.6082   -5.8528 C   0  0  0  0  0  0  0  0  0  0  0  0
  -19.5226  -40.3246   -5.6111 O   0  0  0  0  0  0  0  0  0  0  0  0
  -17.9944  -41.8390   -6.2854 N   0  0  0  0  0  0  0  0  0  0  0  0
  -17.5366  -42.4681   -7.4666 C   0  0  1  0  0  0  0  0  0  0  0  0
  -18.5562  -43.1885   -8.2737 C   0  0  0  0  0  0  0  0  0  0  0  0
  -16.7777  -41.4900   -8.3837 C   0  0  2  0  0  0  0  0  0  0  0  0
  -15.4193  -41.5648   -8.0961 O   0  0  0  0  0  0  0  0  0  0  0  0
  -17.3646  -40.1326   -8.3861 C   0  0  0  0  0  0  0  0  0  0  0  0
  -16.8146  -39.1118   -9.1495 N   0  0  0  0  0  0  0  0  0  0  0  0
  -17.4891  -37.9666   -9.5554 C   0  0  0  0  0  0  0  0  0  0  0  0
  -17.8273  -37.0199   -8.4374 C   0  0  0  0  0  0  0  0  0  0  0  0
  -18.7764  -38.2419  -10.3214 C   0  0  0  0  0  0  0  0  0  0  0  0
  -16.6076  -37.2531  -10.5629 C   0  0  0  0  0  0  0  0  0  0  0  0
  -16.7292  -35.9894  -11.0527 C   0  0  0  0  0  0  0  0  0  0  0  0
  -15.6919  -35.7978  -11.9391 C   0  0  0  0  0  0  0  0  0  0  0  0
  -15.3924  -34.5871  -12.7288 C   0  0  0  0  0  0  0  0  0  0  0  0
  -13.9229  -34.2477  -12.7208 C   0  0  0  0  0  0  0  0  0  0  0  0
  -13.1932  -35.3581  -13.4715 C   0  0  0  0  0  0  0  0  0  0  0  0
  -13.3919  -34.2500  -11.3095 C   0  0  0  0  0  0  0  0  0  0  0  0
  -13.6123  -32.9548  -13.4328 C   0  0  0  0  0  0  0  0  0  0  0  0
  -15.0163  -36.9023  -11.9487 O   0  0  0  0  0  0  0  0  0  0  0  0
  -15.5257  -37.7912  -11.1466 N   0  0  0  0  0  0  0  0  0  0  0  0
  2  1  1  6
  2  3  1  0
  3  4  1  0
  4  5  1  0
  5  6  1  0
  6  7  1  0
  7  8  1  0
  8  9  1  0
  9 10  1  0
 10 11  1  0
 11 12  1  0
 12 13  2  0
 13 14  1  0
 14 15  2  0
 15 16  1  0
 15 17  1  0
 13 18  1  0
 18 19  2  0
 18 20  1  0
 20 21  1  0
 21 22  1  6
 21 23  1  0
 23 24  1  1
 23 25  1  0
 25 26  1  0
 26 27  1  0
 27 28  1  0
 27 29  1  0
 27 30  1  0
 30 31  1  0
 31 32  2  0
 32 33  1  0
 33 34  1  0
 34 35  1  0
 34 36  1  0
 34 37  1  0
 32 38  1  0
 38 39  1  0
 17 11  2  0
 22  2  1  0
 39 30  2  0
M  END
$$$$
