
     RDKit          3D

 39 41  0  0  0  0  0  0  0  0999 V2000
  -16.1869  -44.0867  -10.5203 C   0  0  0  0  0  0  0  0  0  0  0  0
  -15.9030  -43.8814   -9.0275 C   0  0  2  0  0  0  0  0  0  0  0  0
  -15.9655  -45.1961   -8.3456 C   0  0  0  0  0  0  0  0  0  0  0  0
  -16.2499  -46.3622   -9.2983 C   0  0  0  0  0  0  0  0  0  0  0  0
  -16.6437  -47.4330   -8.5016 O   0  0  0  0  0  0  0  0  0  0  0  0
  -17.2269  -48.4536   -9.2380 C   0  0  0  0  0  0  0  0  0  0  0  0
  -18.6869  -48.2784   -9.4751 C   0  0  0  0  0  0  0  0  0  0  0  0
  -19.5722  -48.8338   -8.3943 C   0  0  0  0  0  0  0  0  0  0  0  0
  -19.4062  -48.1729   -7.0659 C   0  0  0  0  0  0  0  0  0  0  0  0
  -20.3744  -47.1445   -6.7832 N   0  0  0  0  0  0  0  0  0  0  0  0
  -20.2715  -45.7184   -6.8940 C   0  0  0  0  0  0  0  0  0  0  0  0
  -19.3875  -44.7998   -6.3870 C   0  0  0  0  0  0  0  0  0  0  0  0
  -19.6022  -43.4758   -6.7080 C   0  0  0  0  0  0  0  0  0  0  0  0
  -20.7102  -43.1395   -7.5309 C   0  0  0  0  0  0  0  0  0  0  0  0
  -21.5928  -44.0621   -8.0356 C   0  0  0  0  0  0  0  0  0  0  0  0
  -22.7252  -43.6347   -8.8883 C   0  0  0  0  0  0  0  0  0  0  0  0
  -21.3335  -45.3063   -7.6950 N   0  0  0  0  0  0  0  0  0  0  0  0
  -18.8774  -42.2444   -6.3631 C   0  0  0  0  0  0  0  0  0  0  0  0
  -19.5783  -41.1750   -6.0336 O   0  0  0  0  0  0  0  0  0  0  0  0
  -17.4840  -41.9618   -6.3142 N   0  0  0  0  0  0  0  0  0  0  0  0
  -16.5079  -42.1149   -7.3263 C   0  0  1  0  0  0  0  0  0  0  0  0
  -16.9186  -42.8747   -8.5361 C   0  0  0  0  0  0  0  0  0  0  0  0
  -15.9168  -40.7619   -7.7666 C   0  0  2  0  0  0  0  0  0  0  0  0
  -14.6069  -40.6722   -7.3084 O   0  0  0  0  0  0  0  0  0  0  0  0
  -16.7957  -39.6182   -7.4408 C   0  0  0  0  0  0  0  0  0  0  0  0
  -17.9640  -39.3823   -8.1527 N   0  0  0  0  0  0  0  0  0  0  0  0
  -18.5735  -38.1420   -8.2978 C   0  0  0  0  0  0  0  0  0  0  0  0
  -18.1807  -37.1346   -7.2531 C   0  0  0  0  0  0  0  0  0  0  0  0
  -20.0954  -38.1965   -8.3254 C   0  0  0  0  0  0  0  0  0  0  0  0
  -18.2001  -37.6097   -9.6684 C   0  0  0  0  0  0  0  0  0  0  0  0
  -17.3324  -36.6101   -9.9835 C   0  0  0  0  0  0  0  0  0  0  0  0
  -17.3304  -36.4943  -11.3565 C   0  0  0  0  0  0  0  0  0  0  0  0
  -16.5502  -35.5504  -12.1808 C   0  0  0  0  0  0  0  0  0  0  0  0
  -17.4288  -34.5580  -12.9006 C   0  0  0  0  0  0  0  0  0  0  0  0
  -17.9544  -35.2419  -14.1596 C   0  0  0  0  0  0  0  0  0  0  0  0
  -16.6171  -33.3704  -13.3529 C   0  0  0  0  0  0  0  0  0  0  0  0
  -18.6304  -34.1383  -12.0912 C   0  0  0  0  0  0  0  0  0  0  0  0
  -18.1586  -37.3875  -11.7955 O   0  0  0  0  0  0  0  0  0  0  0  0
  -18.6960  -38.0705  -10.8271 N   0  0  0  0  0  0  0  0  0  0  0  0
  2  1  1  6
  2  3  1  0
  3  4  1  0
  4  5  1  0
  5  6  1  0
  6  7  1  0
  7  8  1  0
  8  9  1  0
  9 10  1  0
 10 11  1  0
 11 12  1  0
 12 13  2  0
 13 14  1  0
 14 15  2  0
 15 16  1  0
 15 17  1  0
 13 18  1  0
 18 19  2  0
 18 20  1  0
 20 21  1  0
 21 22  1  6
 21 23  1  0
 23 24  1  1
 23 25  1  0
 25 26  1  0
 26 27  1  0
 27 28  1  0
 27 29  1  0
 27 30  1  0
 30 31  1  0
 31 32  2  0
 32 33  1  0
 33 34  1  0
 34 35  1  0
 34 36  1  0
 34 37  1  0
 32 38  1  0
 38 39  1  0
 17 11  2  0
 22  2  1  0
 39 30  2  0
M  END
$$$$
