
     RDKit          3D

 39 41  0  0  0  0  0  0  0  0999 V2000
  -19.0328  -40.1794   -3.6557 C   0  0  0  0  0  0  0  0  0  0  0  0
  -19.3009  -39.6733   -5.0782 C   0  0  2  0  0  0  0  0  0  0  0  0
  -20.7465  -39.8199   -5.3712 C   0  0  0  0  0  0  0  0  0  0  0  0
  -21.5513  -40.3831   -4.1951 C   0  0  0  0  0  0  0  0  0  0  0  0
  -22.7686  -40.8068   -4.7193 O   0  0  0  0  0  0  0  0  0  0  0  0
  -23.4714  -41.6150   -3.8378 C   0  0  0  0  0  0  0  0  0  0  0  0
  -23.1036  -43.0567   -3.9052 C   0  0  0  0  0  0  0  0  0  0  0  0
  -23.8695  -43.8559   -4.9226 C   0  0  0  0  0  0  0  0  0  0  0  0
  -23.6450  -43.4264   -6.3348 C   0  0  0  0  0  0  0  0  0  0  0  0
  -22.6620  -44.2012   -7.0476 N   0  0  0  0  0  0  0  0  0  0  0  0
  -21.2814  -43.9237   -7.3191 C   0  0  0  0  0  0  0  0  0  0  0  0
  -20.6356  -42.8645   -7.9051 C   0  0  0  0  0  0  0  0  0  0  0  0
  -19.2619  -42.9407   -8.0024 C   0  0  0  0  0  0  0  0  0  0  0  0
  -18.6006  -44.0936   -7.5011 C   0  0  0  0  0  0  0  0  0  0  0  0
  -19.2512  -45.1515   -6.9159 C   0  0  0  0  0  0  0  0  0  0  0  0
  -18.4922  -46.3201   -6.4155 C   0  0  0  0  0  0  0  0  0  0  0  0
  -20.5586  -45.0183   -6.8517 N   0  0  0  0  0  0  0  0  0  0  0  0
  -18.2564  -42.0176   -8.5480 C   0  0  0  0  0  0  0  0  0  0  0  0
  -17.2721  -42.5181   -9.2718 O   0  0  0  0  0  0  0  0  0  0  0  0
  -18.1273  -40.6050   -8.4398 N   0  0  0  0  0  0  0  0  0  0  0  0
  -18.0641  -39.8025   -7.2769 C   0  0  1  0  0  0  0  0  0  0  0  0
  -18.3954  -40.4697   -5.9904 C   0  0  0  0  0  0  0  0  0  0  0  0
  -16.7005  -39.0995   -7.1349 C   0  0  2  0  0  0  0  0  0  0  0  0
  -16.7556  -38.2233   -6.0565 O   0  0  0  0  0  0  0  0  0  0  0  0
  -16.2142  -38.5274   -8.4089 C   0  0  0  0  0  0  0  0  0  0  0  0
  -15.7670  -39.3425   -9.4399 N   0  0  0  0  0  0  0  0  0  0  0  0
  -15.8981  -39.0605  -10.7943 C   0  0  0  0  0  0  0  0  0  0  0  0
  -16.8969  -37.9809  -11.1067 C   0  0  0  0  0  0  0  0  0  0  0  0
  -16.2549  -40.2694  -11.6493 C   0  0  0  0  0  0  0  0  0  0  0  0
  -14.5331  -38.6394  -11.3050 C   0  0  0  0  0  0  0  0  0  0  0  0
  -14.1138  -37.4023  -11.6860 C   0  0  0  0  0  0  0  0  0  0  0  0
  -12.7967  -37.5230  -12.0722 C   0  0  0  0  0  0  0  0  0  0  0  0
  -11.9009  -36.4591  -12.5670 C   0  0  0  0  0  0  0  0  0  0  0  0
  -12.0481  -36.2312  -14.0506 C   0  0  0  0  0  0  0  0  0  0  0  0
  -11.4251  -37.4296  -14.7611 C   0  0  0  0  0  0  0  0  0  0  0  0
  -11.2651  -35.0143  -14.4745 C   0  0  0  0  0  0  0  0  0  0  0  0
  -13.4872  -36.1529  -14.4954 C   0  0  0  0  0  0  0  0  0  0  0  0
  -12.4875  -38.7705  -11.9161 O   0  0  0  0  0  0  0  0  0  0  0  0
  -13.4887  -39.4670  -11.4631 N   0  0  0  0  0  0  0  0  0  0  0  0
  2  1  1  1
  2  3  1  0
  3  4  1  0
  4  5  1  0
  5  6  1  0
  6  7  1  0
  7  8  1  0
  8  9  1  0
  9 10  1  0
 10 11  1  0
 11 12  1  0
 12 13  2  0
 13 14  1  0
 14 15  2  0
 15 16  1  0
 15 17  1  0
 13 18  1  0
 18 19  2  0
 18 20  1  0
 20 21  1  0
 21 22  1  1
 21 23  1  0
 23 24  1  1
 23 25  1  0
 25 26  1  0
 26 27  1  0
 27 28  1  0
 27 29  1  0
 27 30  1  0
 30 31  1  0
 31 32  2  0
 32 33  1  0
 33 34  1  0
 34 35  1  0
 34 36  1  0
 34 37  1  0
 32 38  1  0
 38 39  1  0
 17 11  2  0
 22  2  1  0
 39 30  2  0
M  END
$$$$
