
     RDKit          3D

 39 41  0  0  0  0  0  0  0  0999 V2000
  -19.9837  -39.8418   -4.4977 C   0  0  0  0  0  0  0  0  0  0  0  0
  -19.8248  -39.5573   -5.9960 C   0  0  2  0  0  0  0  0  0  0  0  0
  -21.1262  -39.7914   -6.6659 C   0  0  0  0  0  0  0  0  0  0  0  0
  -22.2421  -40.2027   -5.6995 C   0  0  0  0  0  0  0  0  0  0  0  0
  -23.2615  -40.7373   -6.4815 O   0  0  0  0  0  0  0  0  0  0  0  0
  -24.1975  -41.4304   -5.7284 C   0  0  0  0  0  0  0  0  0  0  0  0
  -23.8424  -42.8541   -5.4722 C   0  0  0  0  0  0  0  0  0  0  0  0
  -24.2916  -43.8172   -6.5356 C   0  0  0  0  0  0  0  0  0  0  0  0
  -23.6649  -43.5912   -7.8717 C   0  0  0  0  0  0  0  0  0  0  0  0
  -22.5270  -44.4295   -8.1493 N   0  0  0  0  0  0  0  0  0  0  0  0
  -21.1237  -44.1503   -8.0519 C   0  0  0  0  0  0  0  0  0  0  0  0
  -20.3244  -43.1677   -8.5791 C   0  0  0  0  0  0  0  0  0  0  0  0
  -18.9819  -43.2130   -8.2662 C   0  0  0  0  0  0  0  0  0  0  0  0
  -18.5063  -44.2587   -7.4306 C   0  0  0  0  0  0  0  0  0  0  0  0
  -19.3098  -45.2404   -6.9058 C   0  0  0  0  0  0  0  0  0  0  0  0
  -18.7406  -46.2986   -6.0407 C   0  0  0  0  0  0  0  0  0  0  0  0
  -20.5787  -45.1413   -7.2395 N   0  0  0  0  0  0  0  0  0  0  0  0
  -17.8514  -42.3475   -8.6317 C   0  0  0  0  0  0  0  0  0  0  0  0
  -16.7061  -42.9163   -8.9601 O   0  0  0  0  0  0  0  0  0  0  0  0
  -17.7430  -40.9308   -8.7026 N   0  0  0  0  0  0  0  0  0  0  0  0
  -18.0084  -39.9658   -7.7033 C   0  0  1  0  0  0  0  0  0  0  0  0
  -18.7039  -40.4486   -6.4814 C   0  0  0  0  0  0  0  0  0  0  0  0
  -16.7357  -39.2061   -7.2827 C   0  0  2  0  0  0  0  0  0  0  0  0
  -17.0943  -38.1554   -6.4454 O   0  0  0  0  0  0  0  0  0  0  0  0
  -15.8724  -38.8529   -8.4303 C   0  0  0  0  0  0  0  0  0  0  0  0
  -14.8905  -39.7217   -8.8868 N   0  0  0  0  0  0  0  0  0  0  0  0
  -14.4559  -39.8140  -10.2035 C   0  0  0  0  0  0  0  0  0  0  0  0
  -15.5302  -40.1968  -11.1833 C   0  0  0  0  0  0  0  0  0  0  0  0
  -13.2922  -40.7751  -10.4081 C   0  0  0  0  0  0  0  0  0  0  0  0
  -13.8877  -38.4616  -10.5903 C   0  0  0  0  0  0  0  0  0  0  0  0
  -13.2127  -38.1160  -11.7201 C   0  0  0  0  0  0  0  0  0  0  0  0
  -12.9025  -36.7778  -11.6123 C   0  0  0  0  0  0  0  0  0  0  0  0
  -12.1736  -35.9399  -12.5848 C   0  0  0  0  0  0  0  0  0  0  0  0
  -13.1009  -35.2478  -13.5521 C   0  0  0  0  0  0  0  0  0  0  0  0
  -13.9270  -36.3276  -14.2454 C   0  0  0  0  0  0  0  0  0  0  0  0
  -12.3092  -34.5444  -14.6255 C   0  0  0  0  0  0  0  0  0  0  0  0
  -14.0729  -34.3157  -12.8729 C   0  0  0  0  0  0  0  0  0  0  0  0
  -13.3806  -36.3868  -10.4744 O   0  0  0  0  0  0  0  0  0  0  0  0
  -13.9725  -37.3544   -9.8369 N   0  0  0  0  0  0  0  0  0  0  0  0
  2  1  1  1
  2  3  1  0
  3  4  1  0
  4  5  1  0
  5  6  1  0
  6  7  1  0
  7  8  1  0
  8  9  1  0
  9 10  1  0
 10 11  1  0
 11 12  1  0
 12 13  2  0
 13 14  1  0
 14 15  2  0
 15 16  1  0
 15 17  1  0
 13 18  1  0
 18 19  2  0
 18 20  1  0
 20 21  1  0
 21 22  1  1
 21 23  1  0
 23 24  1  6
 23 25  1  0
 25 26  1  0
 26 27  1  0
 27 28  1  0
 27 29  1  0
 27 30  1  0
 30 31  1  0
 31 32  2  0
 32 33  1  0
 33 34  1  0
 34 35  1  0
 34 36  1  0
 34 37  1  0
 32 38  1  0
 38 39  1  0
 17 11  2  0
 22  2  1  0
 39 30  2  0
M  END
$$$$
