
     RDKit          3D

 42 45  0  0  0  0  0  0  0  0999 V2000
  -14.3141  -38.4561  -15.9039 C   0  0  0  0  0  0  0  0  0  0  0  0
  -13.7195  -38.4656  -14.5434 C   0  0  0  0  0  0  0  0  0  0  0  0
  -12.8155  -37.6952  -14.3016 O   0  0  0  0  0  0  0  0  0  0  0  0
  -14.1968  -39.3741  -13.4990 C   0  0  0  0  0  0  0  0  0  0  0  0
  -14.5516  -38.7112  -12.3035 O   0  0  0  0  0  0  0  0  0  0  0  0
  -15.8885  -38.7567  -11.9041 C   0  0  0  0  0  0  0  0  0  0  0  0
  -16.7788  -37.7659  -12.1974 C   0  0  0  0  0  0  0  0  0  0  0  0
  -18.1372  -37.8032  -11.7971 C   0  0  0  0  0  0  0  0  0  0  0  0
  -18.6170  -38.8879  -11.0710 C   0  0  0  0  0  0  0  0  0  0  0  0
  -17.7384  -39.9003  -10.7596 C   0  0  0  0  0  0  0  0  0  0  0  0
  -16.3881  -39.8142  -11.1849 C   0  0  0  0  0  0  0  0  0  0  0  0
  -17.9193  -41.1551   -9.9901 C   0  0  0  0  0  0  0  0  0  0  0  0
  -17.3750  -42.1949  -10.5692 O   0  0  0  0  0  0  0  0  0  0  0  0
  -18.5823  -41.3716   -8.7449 N   0  0  0  0  0  0  0  0  0  0  0  0
  -18.4251  -40.6243   -7.5197 C   0  0  1  0  0  0  0  0  0  0  0  0
  -19.7661  -40.3476   -6.8247 C   0  0  0  0  0  0  0  0  0  0  0  0
  -20.2629  -38.9560   -7.0551 C   0  0  0  0  0  0  0  0  0  0  0  0
  -20.9598  -38.4124   -8.1063 C   0  0  0  0  0  0  0  0  0  0  0  0
  -21.3050  -37.0954   -8.0753 C   0  0  0  0  0  0  0  0  0  0  0  0
  -22.0421  -36.2356   -9.0436 C   0  0  0  0  0  0  0  0  0  0  0  0
  -21.1185  -35.3599   -9.8587 C   0  0  0  0  0  0  0  0  0  0  0  0
  -20.9460  -36.0252  -11.2188 C   0  0  0  0  0  0  0  0  0  0  0  0
  -19.5800  -35.6561  -11.7258 C   0  0  0  0  0  0  0  0  0  0  0  0
  -18.8043  -36.6778  -12.2253 O   0  0  0  0  0  0  0  0  0  0  0  0
  -20.9355  -36.3091   -6.9536 C   0  0  0  0  0  0  0  0  0  0  0  0
  -20.2419  -36.7894   -5.8775 C   0  0  0  0  0  0  0  0  0  0  0  0
  -19.9243  -38.1137   -5.9642 C   0  0  0  0  0  0  0  0  0  0  0  0
  -17.6525  -41.5275   -6.5528 C   0  0  2  0  0  0  0  0  0  0  0  0
  -17.4230  -40.8872   -5.3429 O   0  0  0  0  0  0  0  0  0  0  0  0
  -16.3289  -41.9816   -7.0788 C   0  0  0  0  0  0  0  0  0  0  0  0
  -15.7608  -42.9752   -6.2287 N   0  0  0  0  0  0  0  0  0  0  0  0
  -15.9270  -44.3168   -6.5891 C   0  0  0  0  0  0  0  0  0  0  0  0
  -17.0656  -44.6746   -7.4168 C   0  0  0  0  0  0  0  0  0  0  0  0
  -18.2040  -43.9068   -7.4163 C   0  0  0  0  0  0  0  0  0  0  0  0
  -19.3068  -44.2271   -8.2072 C   0  0  0  0  0  0  0  0  0  0  0  0
  -19.2057  -45.3559   -8.9977 C   0  0  0  0  0  0  0  0  0  0  0  0
  -18.0582  -46.0946   -8.9721 C   0  0  0  0  0  0  0  0  0  0  0  0
  -17.0352  -45.7482   -8.2012 N   0  0  0  0  0  0  0  0  0  0  0  0
  -20.5580  -43.4323   -8.2400 C   0  0  0  0  0  0  0  0  0  0  0  0
  -20.8306  -42.7558   -6.9150 C   0  0  0  0  0  0  0  0  0  0  0  0
  -21.7618  -44.2011   -8.6973 C   0  0  0  0  0  0  0  0  0  0  0  0
  -20.3509  -42.2992   -9.2527 C   0  0  0  0  0  0  0  0  0  0  0  0
  1  2  1  0
  2  3  2  0
  2  4  1  0
  4  5  1  0
  5  6  1  0
  6  7  2  0
  7  8  1  0
  8  9  2  0
  9 10  1  0
 10 11  2  0
 10 12  1  0
 12 13  2  0
 12 14  1  0
 14 15  1  0
 15 16  1  1
 16 17  1  0
 17 18  1  0
 18 19  2  0
 19 20  1  0
 20 21  1  0
 21 22  1  0
 22 23  1  0
 23 24  1  0
 19 25  1  0
 25 26  2  0
 26 27  1  0
 15 28  1  0
 28 29  1  1
 28 30  1  0
 30 31  1  0
 31 32  1  0
 32 33  1  0
 33 34  2  0
 34 35  1  0
 35 36  2  0
 36 37  1  0
 37 38  2  0
 35 39  1  0
 39 40  1  0
 39 41  1  0
 39 42  1  0
 11  6  1  0
 24  8  1  0
 27 17  2  0
 38 33  1  0
M  END
$$$$
