
     RDKit          3D

 42 45  0  0  0  0  0  0  0  0999 V2000
  -16.7001  -44.9992  -11.2729 C   0  0  0  0  0  0  0  0  0  0  0  0
  -17.3023  -45.9509  -10.3053 C   0  0  0  0  0  0  0  0  0  0  0  0
  -18.1263  -46.7427  -10.7092 O   0  0  0  0  0  0  0  0  0  0  0  0
  -16.9256  -45.9547   -8.8904 C   0  0  0  0  0  0  0  0  0  0  0  0
  -18.0223  -46.1497   -8.0223 O   0  0  0  0  0  0  0  0  0  0  0  0
  -18.5332  -45.0345   -7.3557 C   0  0  0  0  0  0  0  0  0  0  0  0
  -19.8175  -44.9730   -6.9008 C   0  0  0  0  0  0  0  0  0  0  0  0
  -20.3449  -43.8463   -6.2229 C   0  0  0  0  0  0  0  0  0  0  0  0
  -19.5404  -42.7354   -5.9936 C   0  0  0  0  0  0  0  0  0  0  0  0
  -18.2407  -42.7708   -6.4448 C   0  0  0  0  0  0  0  0  0  0  0  0
  -17.7619  -43.9238   -7.1177 C   0  0  0  0  0  0  0  0  0  0  0  0
  -17.1542  -41.7631   -6.3884 C   0  0  0  0  0  0  0  0  0  0  0  0
  -16.0030  -42.2697   -6.0265 O   0  0  0  0  0  0  0  0  0  0  0  0
  -17.1946  -40.3643   -6.6689 N   0  0  0  0  0  0  0  0  0  0  0  0
  -17.7608  -39.7122   -7.8258 C   0  0  1  0  0  0  0  0  0  0  0  0
  -18.5545  -38.4500   -7.4585 C   0  0  0  0  0  0  0  0  0  0  0  0
  -20.0328  -38.6761   -7.4498 C   0  0  0  0  0  0  0  0  0  0  0  0
  -20.8574  -39.1955   -6.4822 C   0  0  0  0  0  0  0  0  0  0  0  0
  -22.1946  -39.2946   -6.7201 C   0  0  0  0  0  0  0  0  0  0  0  0
  -23.3196  -39.8058   -5.8875 C   0  0  0  0  0  0  0  0  0  0  0  0
  -23.7501  -41.1978   -6.2893 C   0  0  0  0  0  0  0  0  0  0  0  0
  -23.1232  -42.1703   -5.2976 C   0  0  0  0  0  0  0  0  0  0  0  0
  -22.8969  -43.4656   -6.0257 C   0  0  0  0  0  0  0  0  0  0  0  0
  -21.6613  -44.0546   -5.8788 O   0  0  0  0  0  0  0  0  0  0  0  0
  -22.7100  -38.8580   -7.9679 C   0  0  0  0  0  0  0  0  0  0  0  0
  -21.9431  -38.3334   -8.9712 C   0  0  0  0  0  0  0  0  0  0  0  0
  -20.6129  -38.2585   -8.6759 C   0  0  0  0  0  0  0  0  0  0  0  0
  -16.5816  -39.2124   -8.6668 C   0  0  2  0  0  0  0  0  0  0  0  0
  -17.0141  -38.6955   -9.8802 O   0  0  0  0  0  0  0  0  0  0  0  0
  -15.5637  -40.2659   -8.9645 C   0  0  0  0  0  0  0  0  0  0  0  0
  -14.2456  -39.7771   -8.7267 N   0  0  0  0  0  0  0  0  0  0  0  0
  -13.2788  -39.9968   -9.7139 C   0  0  0  0  0  0  0  0  0  0  0  0
  -13.3146  -39.1762  -10.9117 C   0  0  0  0  0  0  0  0  0  0  0  0
  -13.4475  -37.8121  -10.8257 C   0  0  0  0  0  0  0  0  0  0  0  0
  -13.4780  -37.0038  -11.9613 C   0  0  0  0  0  0  0  0  0  0  0  0
  -13.3670  -37.6358  -13.1850 C   0  0  0  0  0  0  0  0  0  0  0  0
  -13.2361  -38.9937  -13.2315 C   0  0  0  0  0  0  0  0  0  0  0  0
  -13.2129  -39.7200  -12.1211 N   0  0  0  0  0  0  0  0  0  0  0  0
  -13.6220  -35.5286  -11.9210 C   0  0  0  0  0  0  0  0  0  0  0  0
  -14.6961  -35.0938  -10.9489 C   0  0  0  0  0  0  0  0  0  0  0  0
  -13.8382  -34.8960  -13.2636 C   0  0  0  0  0  0  0  0  0  0  0  0
  -12.3077  -34.9578  -11.3740 C   0  0  0  0  0  0  0  0  0  0  0  0
  1  2  1  0
  2  3  2  0
  2  4  1  0
  4  5  1  0
  5  6  1  0
  6  7  2  0
  7  8  1  0
  8  9  2  0
  9 10  1  0
 10 11  2  0
 10 12  1  0
 12 13  2  0
 12 14  1  0
 14 15  1  0
 15 16  1  1
 16 17  1  0
 17 18  1  0
 18 19  2  0
 19 20  1  0
 20 21  1  0
 21 22  1  0
 22 23  1  0
 23 24  1  0
 19 25  1  0
 25 26  2  0
 26 27  1  0
 15 28  1  0
 28 29  1  6
 28 30  1  0
 30 31  1  0
 31 32  1  0
 32 33  1  0
 33 34  2  0
 34 35  1  0
 35 36  2  0
 36 37  1  0
 37 38  2  0
 35 39  1  0
 39 40  1  0
 39 41  1  0
 39 42  1  0
 11  6  1  0
 24  8  1  0
 27 17  2  0
 38 33  1  0
M  END
$$$$
