
     RDKit          3D

 42 45  0  0  0  0  0  0  0  0999 V2000
  -15.1916  -46.6241  -10.6667 C   0  0  0  0  0  0  0  0  0  0  0  0
  -16.4763  -46.8199   -9.9484 C   0  0  0  0  0  0  0  0  0  0  0  0
  -16.4581  -47.3758   -8.8715 O   0  0  0  0  0  0  0  0  0  0  0  0
  -17.7498  -46.3601  -10.5057 C   0  0  0  0  0  0  0  0  0  0  0  0
  -17.9030  -44.9569  -10.4619 O   0  0  0  0  0  0  0  0  0  0  0  0
  -18.3144  -44.3826   -9.2577 C   0  0  0  0  0  0  0  0  0  0  0  0
  -19.4475  -44.7716   -8.6056 C   0  0  0  0  0  0  0  0  0  0  0  0
  -19.8729  -44.1953   -7.3834 C   0  0  0  0  0  0  0  0  0  0  0  0
  -19.1212  -43.1845   -6.7942 C   0  0  0  0  0  0  0  0  0  0  0  0
  -17.9744  -42.7717   -7.4332 C   0  0  0  0  0  0  0  0  0  0  0  0
  -17.5927  -43.3820   -8.6553 C   0  0  0  0  0  0  0  0  0  0  0  0
  -16.9853  -41.7203   -7.0932 C   0  0  0  0  0  0  0  0  0  0  0  0
  -15.7462  -42.1156   -7.2385 O   0  0  0  0  0  0  0  0  0  0  0  0
  -17.1973  -40.3814   -6.6470 N   0  0  0  0  0  0  0  0  0  0  0  0
  -18.0785  -39.3901   -7.2172 C   0  0  1  0  0  0  0  0  0  0  0  0
  -18.8480  -38.6032   -6.1464 C   0  0  0  0  0  0  0  0  0  0  0  0
  -20.2574  -39.0750   -5.9803 C   0  0  0  0  0  0  0  0  0  0  0  0
  -20.7766  -40.1193   -5.2551 C   0  0  0  0  0  0  0  0  0  0  0  0
  -22.1199  -40.3423   -5.2639 C   0  0  0  0  0  0  0  0  0  0  0  0
  -22.9633  -41.3731   -4.5956 C   0  0  0  0  0  0  0  0  0  0  0  0
  -23.3754  -42.4816   -5.5366 C   0  0  0  0  0  0  0  0  0  0  0  0
  -22.4527  -43.6657   -5.2741 C   0  0  0  0  0  0  0  0  0  0  0  0
  -22.3180  -44.4211   -6.5666 C   0  0  0  0  0  0  0  0  0  0  0  0
  -21.0443  -44.7748   -6.9511 O   0  0  0  0  0  0  0  0  0  0  0  0
  -22.9585  -39.4881   -6.0257 C   0  0  0  0  0  0  0  0  0  0  0  0
  -22.5043  -38.4337   -6.7685 C   0  0  0  0  0  0  0  0  0  0  0  0
  -21.1518  -38.2592   -6.7210 C   0  0  0  0  0  0  0  0  0  0  0  0
  -17.1840  -38.3556   -7.9081 C   0  0  2  0  0  0  0  0  0  0  0  0
  -17.8981  -37.2096   -8.2294 O   0  0  0  0  0  0  0  0  0  0  0  0
  -16.5449  -38.8538   -9.1643 C   0  0  0  0  0  0  0  0  0  0  0  0
  -15.5573  -39.8398   -8.8725 N   0  0  0  0  0  0  0  0  0  0  0  0
  -14.7041  -40.2370   -9.9078 C   0  0  0  0  0  0  0  0  0  0  0  0
  -13.9557  -39.2147  -10.6178 C   0  0  0  0  0  0  0  0  0  0  0  0
  -14.5648  -38.0538  -11.0266 C   0  0  0  0  0  0  0  0  0  0  0  0
  -13.8651  -37.0560  -11.7040 C   0  0  0  0  0  0  0  0  0  0  0  0
  -12.5243  -37.2843  -11.9476 C   0  0  0  0  0  0  0  0  0  0  0  0
  -11.9529  -38.4502  -11.5264 C   0  0  0  0  0  0  0  0  0  0  0  0
  -12.6622  -39.3704  -10.8852 N   0  0  0  0  0  0  0  0  0  0  0  0
  -14.4774  -35.7876  -12.1673 C   0  0  0  0  0  0  0  0  0  0  0  0
  -13.7579  -35.2216  -13.3714 C   0  0  0  0  0  0  0  0  0  0  0  0
  -14.6153  -34.7457  -11.0973 C   0  0  0  0  0  0  0  0  0  0  0  0
  -15.8973  -36.1157  -12.6453 C   0  0  0  0  0  0  0  0  0  0  0  0
  1  2  1  0
  2  3  2  0
  2  4  1  0
  4  5  1  0
  5  6  1  0
  6  7  2  0
  7  8  1  0
  8  9  2  0
  9 10  1  0
 10 11  2  0
 10 12  1  0
 12 13  2  0
 12 14  1  0
 14 15  1  0
 15 16  1  1
 16 17  1  0
 17 18  1  0
 18 19  2  0
 19 20  1  0
 20 21  1  0
 21 22  1  0
 22 23  1  0
 23 24  1  0
 19 25  1  0
 25 26  2  0
 26 27  1  0
 15 28  1  0
 28 29  1  6
 28 30  1  0
 30 31  1  0
 31 32  1  0
 32 33  1  0
 33 34  2  0
 34 35  1  0
 35 36  2  0
 36 37  1  0
 37 38  2  0
 35 39  1  0
 39 40  1  0
 39 41  1  0
 39 42  1  0
 11  6  1  0
 24  8  1  0
 27 17  2  0
 38 33  1  0
M  END
$$$$
