
     RDKit          3D

 42 45  0  0  0  0  0  0  0  0999 V2000
  -17.4706  -47.8793   -6.5828 C   0  0  0  0  0  0  0  0  0  0  0  0
  -18.0632  -47.9016   -7.9440 C   0  0  0  0  0  0  0  0  0  0  0  0
  -18.6618  -48.8943   -8.2982 O   0  0  0  0  0  0  0  0  0  0  0  0
  -17.9428  -46.7631   -8.8568 C   0  0  0  0  0  0  0  0  0  0  0  0
  -19.1318  -46.0090   -8.9668 O   0  0  0  0  0  0  0  0  0  0  0  0
  -19.3710  -45.0239   -8.0070 C   0  0  0  0  0  0  0  0  0  0  0  0
  -20.5104  -44.9865   -7.2582 C   0  0  0  0  0  0  0  0  0  0  0  0
  -20.7619  -43.9915   -6.2818 C   0  0  0  0  0  0  0  0  0  0  0  0
  -19.8221  -42.9928   -6.0508 C   0  0  0  0  0  0  0  0  0  0  0  0
  -18.6645  -43.0062   -6.7948 C   0  0  0  0  0  0  0  0  0  0  0  0
  -18.4615  -44.0254   -7.7600 C   0  0  0  0  0  0  0  0  0  0  0  0
  -17.4993  -42.0889   -6.8143 C   0  0  0  0  0  0  0  0  0  0  0  0
  -16.3517  -42.7178   -6.8328 O   0  0  0  0  0  0  0  0  0  0  0  0
  -17.4642  -40.6621   -6.8181 N   0  0  0  0  0  0  0  0  0  0  0  0
  -18.2061  -39.7632   -7.6700 C   0  0  1  0  0  0  0  0  0  0  0  0
  -18.7716  -38.5596   -6.9024 C   0  0  0  0  0  0  0  0  0  0  0  0
  -20.2261  -38.7043   -6.5861 C   0  0  0  0  0  0  0  0  0  0  0  0
  -20.8626  -39.3619   -5.5622 C   0  0  0  0  0  0  0  0  0  0  0  0
  -22.2224  -39.3407   -5.4916 C   0  0  0  0  0  0  0  0  0  0  0  0
  -23.1795  -39.9475   -4.5241 C   0  0  0  0  0  0  0  0  0  0  0  0
  -23.8220  -41.2065   -5.0592 C   0  0  0  0  0  0  0  0  0  0  0  0
  -23.0892  -42.3892   -4.4374 C   0  0  0  0  0  0  0  0  0  0  0  0
  -23.1573  -43.5233   -5.4215 C   0  0  0  0  0  0  0  0  0  0  0  0
  -21.9834  -44.1943   -5.6802 O   0  0  0  0  0  0  0  0  0  0  0  0
  -22.9562  -38.6372   -6.4815 C   0  0  0  0  0  0  0  0  0  0  0  0
  -22.3831  -37.9643   -7.5249 C   0  0  0  0  0  0  0  0  0  0  0  0
  -21.0197  -38.0204   -7.5434 C   0  0  0  0  0  0  0  0  0  0  0  0
  -17.1994  -39.1688   -8.6604 C   0  0  2  0  0  0  0  0  0  0  0  0
  -17.8439  -38.4781   -9.6773 O   0  0  0  0  0  0  0  0  0  0  0  0
  -16.3111  -40.1861   -9.3012 C   0  0  0  0  0  0  0  0  0  0  0  0
  -14.9402  -39.8200   -9.1617 N   0  0  0  0  0  0  0  0  0  0  0  0
  -14.0296  -40.3277  -10.0948 C   0  0  0  0  0  0  0  0  0  0  0  0
  -13.9195  -39.6673  -11.3837 C   0  0  0  0  0  0  0  0  0  0  0  0
  -13.6519  -38.3229  -11.4642 C   0  0  0  0  0  0  0  0  0  0  0  0
  -13.5356  -37.6689  -12.6901 C   0  0  0  0  0  0  0  0  0  0  0  0
  -13.7005  -38.4347  -13.8283 C   0  0  0  0  0  0  0  0  0  0  0  0
  -13.9654  -39.7684  -13.7093 C   0  0  0  0  0  0  0  0  0  0  0  0
  -14.0672  -40.3450  -12.5185 N   0  0  0  0  0  0  0  0  0  0  0  0
  -13.2503  -36.2205  -12.8294 C   0  0  0  0  0  0  0  0  0  0  0  0
  -12.0280  -35.8087  -12.0395 C   0  0  0  0  0  0  0  0  0  0  0  0
  -14.4135  -35.3316  -12.5032 C   0  0  0  0  0  0  0  0  0  0  0  0
  -12.9023  -35.9647  -14.3011 C   0  0  0  0  0  0  0  0  0  0  0  0
  1  2  1  0
  2  3  2  0
  2  4  1  0
  4  5  1  0
  5  6  1  0
  6  7  2  0
  7  8  1  0
  8  9  2  0
  9 10  1  0
 10 11  2  0
 10 12  1  0
 12 13  2  0
 12 14  1  0
 14 15  1  0
 15 16  1  1
 16 17  1  0
 17 18  1  0
 18 19  2  0
 19 20  1  0
 20 21  1  0
 21 22  1  0
 22 23  1  0
 23 24  1  0
 19 25  1  0
 25 26  2  0
 26 27  1  0
 15 28  1  0
 28 29  1  6
 28 30  1  0
 30 31  1  0
 31 32  1  0
 32 33  1  0
 33 34  2  0
 34 35  1  0
 35 36  2  0
 36 37  1  0
 37 38  2  0
 35 39  1  0
 39 40  1  0
 39 41  1  0
 39 42  1  0
 11  6  1  0
 24  8  1  0
 27 17  2  0
 38 33  1  0
M  END
$$$$
