
     RDKit          3D

 42 45  0  0  0  0  0  0  0  0999 V2000
  -12.9537  -43.8109  -10.8415 C   0  0  0  0  0  0  0  0  0  0  0  0
  -12.8002  -43.0993  -12.1356 C   0  0  0  0  0  0  0  0  0  0  0  0
  -11.8224  -43.3339  -12.8124 O   0  0  0  0  0  0  0  0  0  0  0  0
  -13.7935  -42.1324  -12.6072 C   0  0  0  0  0  0  0  0  0  0  0  0
  -15.0262  -42.7259  -12.9572 O   0  0  0  0  0  0  0  0  0  0  0  0
  -16.1952  -42.1378  -12.4706 C   0  0  0  0  0  0  0  0  0  0  0  0
  -17.1109  -41.5372  -13.2836 C   0  0  0  0  0  0  0  0  0  0  0  0
  -18.2999  -40.9383  -12.7994 C   0  0  0  0  0  0  0  0  0  0  0  0
  -18.5764  -40.9478  -11.4365 C   0  0  0  0  0  0  0  0  0  0  0  0
  -17.6671  -41.5455  -10.5939 C   0  0  0  0  0  0  0  0  0  0  0  0
  -16.4920  -42.1311  -11.1301 C   0  0  0  0  0  0  0  0  0  0  0  0
  -17.6483  -41.6978   -9.1188 C   0  0  0  0  0  0  0  0  0  0  0  0
  -17.3132  -42.9023   -8.7319 O   0  0  0  0  0  0  0  0  0  0  0  0
  -17.9345  -40.7391   -8.1011 N   0  0  0  0  0  0  0  0  0  0  0  0
  -17.4197  -39.3953   -7.9846 C   0  0  1  0  0  0  0  0  0  0  0  0
  -18.5017  -38.3857   -7.5749 C   0  0  0  0  0  0  0  0  0  0  0  0
  -19.0139  -37.5837   -8.7286 C   0  0  0  0  0  0  0  0  0  0  0  0
  -19.9692  -37.8737   -9.6717 C   0  0  0  0  0  0  0  0  0  0  0  0
  -20.2634  -36.9573  -10.6351 C   0  0  0  0  0  0  0  0  0  0  0  0
  -21.2271  -36.9807  -11.7714 C   0  0  0  0  0  0  0  0  0  0  0  0
  -20.5549  -37.2718  -13.0934 C   0  0  0  0  0  0  0  0  0  0  0  0
  -20.7902  -38.7443  -13.4073 C   0  0  0  0  0  0  0  0  0  0  0  0
  -19.6172  -39.2205  -14.2175 C   0  0  0  0  0  0  0  0  0  0  0  0
  -19.0373  -40.4088  -13.8342 O   0  0  0  0  0  0  0  0  0  0  0  0
  -19.5738  -35.7174  -10.6449 C   0  0  0  0  0  0  0  0  0  0  0  0
  -18.6132  -35.3689   -9.7362 C   0  0  0  0  0  0  0  0  0  0  0  0
  -18.3614  -36.3252   -8.7958 C   0  0  0  0  0  0  0  0  0  0  0  0
  -16.4234  -39.4081   -6.8206 C   0  0  2  0  0  0  0  0  0  0  0  0
  -15.1430  -39.7153   -7.2596 O   0  0  0  0  0  0  0  0  0  0  0  0
  -16.7723  -40.3789   -5.7387 C   0  0  0  0  0  0  0  0  0  0  0  0
  -17.8566  -41.2138   -6.1389 N   0  0  0  0  0  0  0  0  0  0  0  0
  -18.3513  -42.1340   -5.2083 C   0  0  0  0  0  0  0  0  0  0  0  0
  -19.7894  -42.3098   -5.1068 C   0  0  0  0  0  0  0  0  0  0  0  0
  -20.6424  -41.2506   -5.2971 C   0  0  0  0  0  0  0  0  0  0  0  0
  -22.0263  -41.3970   -5.2108 C   0  0  0  0  0  0  0  0  0  0  0  0
  -22.5074  -42.6604   -4.9253 C   0  0  0  0  0  0  0  0  0  0  0  0
  -21.6293  -43.6893   -4.7425 C   0  0  0  0  0  0  0  0  0  0  0  0
  -20.3193  -43.4989   -4.8346 N   0  0  0  0  0  0  0  0  0  0  0  0
  -22.9878  -40.2851   -5.4055 C   0  0  0  0  0  0  0  0  0  0  0  0
  -23.9088  -40.1223   -4.2169 C   0  0  0  0  0  0  0  0  0  0  0  0
  -23.7781  -40.3726   -6.6772 C   0  0  0  0  0  0  0  0  0  0  0  0
  -22.1735  -38.9878   -5.4839 C   0  0  0  0  0  0  0  0  0  0  0  0
  1  2  1  0
  2  3  2  0
  2  4  1  0
  4  5  1  0
  5  6  1  0
  6  7  2  0
  7  8  1  0
  8  9  2  0
  9 10  1  0
 10 11  2  0
 10 12  1  0
 12 13  2  0
 12 14  1  0
 14 15  1  0
 15 16  1  1
 16 17  1  0
 17 18  1  0
 18 19  2  0
 19 20  1  0
 20 21  1  0
 21 22  1  0
 22 23  1  0
 23 24  1  0
 19 25  1  0
 25 26  2  0
 26 27  1  0
 15 28  1  0
 28 29  1  6
 28 30  1  0
 30 31  1  0
 31 32  1  0
 32 33  1  0
 33 34  2  0
 34 35  1  0
 35 36  2  0
 36 37  1  0
 37 38  2  0
 35 39  1  0
 39 40  1  0
 39 41  1  0
 39 42  1  0
 11  6  1  0
 24  8  1  0
 27 17  2  0
 38 33  1  0
M  END
$$$$
