
     RDKit          3D

 42 45  0  0  0  0  0  0  0  0999 V2000
  -16.4483  -44.9899  -11.1265 C   0  0  0  0  0  0  0  0  0  0  0  0
  -16.9850  -46.1728  -10.4074 C   0  0  0  0  0  0  0  0  0  0  0  0
  -16.9404  -47.2527  -10.9560 O   0  0  0  0  0  0  0  0  0  0  0  0
  -17.5591  -46.0647   -9.0648 C   0  0  0  0  0  0  0  0  0  0  0  0
  -18.8164  -45.4217   -9.0465 O   0  0  0  0  0  0  0  0  0  0  0  0
  -18.9714  -44.3152   -8.2095 C   0  0  0  0  0  0  0  0  0  0  0  0
  -19.7908  -44.3256   -7.1193 C   0  0  0  0  0  0  0  0  0  0  0  0
  -19.9543  -43.2081   -6.2640 C   0  0  0  0  0  0  0  0  0  0  0  0
  -19.2596  -42.0309   -6.5199 C   0  0  0  0  0  0  0  0  0  0  0  0
  -18.4277  -41.9932   -7.6156 C   0  0  0  0  0  0  0  0  0  0  0  0
  -18.2994  -43.1402   -8.4399 C   0  0  0  0  0  0  0  0  0  0  0  0
  -17.5853  -40.9068   -8.1718 C   0  0  0  0  0  0  0  0  0  0  0  0
  -16.3860  -41.3086   -8.5078 O   0  0  0  0  0  0  0  0  0  0  0  0
  -17.8982  -39.5306   -8.3842 N   0  0  0  0  0  0  0  0  0  0  0  0
  -19.0641  -38.9807   -9.0342 C   0  0  1  0  0  0  0  0  0  0  0  0
  -19.6319  -37.7635   -8.2899 C   0  0  0  0  0  0  0  0  0  0  0  0
  -20.8328  -38.0970   -7.4633 C   0  0  0  0  0  0  0  0  0  0  0  0
  -20.9364  -38.6264   -6.2004 C   0  0  0  0  0  0  0  0  0  0  0  0
  -22.1676  -38.8354   -5.6574 C   0  0  0  0  0  0  0  0  0  0  0  0
  -22.5955  -39.3856   -4.3404 C   0  0  0  0  0  0  0  0  0  0  0  0
  -23.0503  -40.8239   -4.4350 C   0  0  0  0  0  0  0  0  0  0  0  0
  -21.8966  -41.6967   -3.9558 C   0  0  0  0  0  0  0  0  0  0  0  0
  -21.9955  -43.0067   -4.6860 C   0  0  0  0  0  0  0  0  0  0  0  0
  -20.8375  -43.4952   -5.2478 O   0  0  0  0  0  0  0  0  0  0  0  0
  -23.3224  -38.5011   -6.4110 C   0  0  0  0  0  0  0  0  0  0  0  0
  -23.2869  -37.9725   -7.6716 C   0  0  0  0  0  0  0  0  0  0  0  0
  -22.0276  -37.7852   -8.1629 C   0  0  0  0  0  0  0  0  0  0  0  0
  -18.5949  -38.4383  -10.3882 C   0  0  2  0  0  0  0  0  0  0  0  0
  -19.2370  -39.0826  -11.4366 O   0  0  0  0  0  0  0  0  0  0  0  0
  -17.1231  -38.5706  -10.6136 C   0  0  0  0  0  0  0  0  0  0  0  0
  -16.7114  -39.9293  -10.4818 N   0  0  0  0  0  0  0  0  0  0  0  0
  -15.6138  -40.2031   -9.6585 C   0  0  0  0  0  0  0  0  0  0  0  0
  -14.4135  -39.4008   -9.8167 C   0  0  0  0  0  0  0  0  0  0  0  0
  -14.3876  -38.3383  -10.6863 C   0  0  0  0  0  0  0  0  0  0  0  0
  -13.2489  -37.5505  -10.8501 C   0  0  0  0  0  0  0  0  0  0  0  0
  -12.1406  -37.8843  -10.0955 C   0  0  0  0  0  0  0  0  0  0  0  0
  -12.2035  -38.9472   -9.2414 C   0  0  0  0  0  0  0  0  0  0  0  0
  -13.3116  -39.6673   -9.1213 N   0  0  0  0  0  0  0  0  0  0  0  0
  -13.1703  -36.3956  -11.7768 C   0  0  0  0  0  0  0  0  0  0  0  0
  -13.0824  -35.0816  -11.0330 C   0  0  0  0  0  0  0  0  0  0  0  0
  -14.2685  -36.3517  -12.7973 C   0  0  0  0  0  0  0  0  0  0  0  0
  -11.8545  -36.5246  -12.5541 C   0  0  0  0  0  0  0  0  0  0  0  0
  1  2  1  0
  2  3  2  0
  2  4  1  0
  4  5  1  0
  5  6  1  0
  6  7  2  0
  7  8  1  0
  8  9  2  0
  9 10  1  0
 10 11  2  0
 10 12  1  0
 12 13  2  0
 12 14  1  0
 14 15  1  0
 15 16  1  1
 16 17  1  0
 17 18  1  0
 18 19  2  0
 19 20  1  0
 20 21  1  0
 21 22  1  0
 22 23  1  0
 23 24  1  0
 19 25  1  0
 25 26  2  0
 26 27  1  0
 15 28  1  0
 28 29  1  6
 28 30  1  0
 30 31  1  0
 31 32  1  0
 32 33  1  0
 33 34  2  0
 34 35  1  0
 35 36  2  0
 36 37  1  0
 37 38  2  0
 35 39  1  0
 39 40  1  0
 39 41  1  0
 39 42  1  0
 11  6  1  0
 24  8  1  0
 27 17  2  0
 38 33  1  0
M  END
$$$$
