
     RDKit          3D

 42 45  0  0  0  0  0  0  0  0999 V2000
  -12.8699  -43.1956   -7.9649 C   0  0  0  0  0  0  0  0  0  0  0  0
  -12.7038  -44.3975   -8.8207 C   0  0  0  0  0  0  0  0  0  0  0  0
  -11.7724  -45.1410   -8.5995 O   0  0  0  0  0  0  0  0  0  0  0  0
  -13.6308  -44.7014   -9.9126 C   0  0  0  0  0  0  0  0  0  0  0  0
  -13.2330  -44.1508  -11.1507 O   0  0  0  0  0  0  0  0  0  0  0  0
  -13.8950  -43.0062  -11.5988 C   0  0  0  0  0  0  0  0  0  0  0  0
  -13.6858  -42.4714  -12.8359 C   0  0  0  0  0  0  0  0  0  0  0  0
  -14.3529  -41.3108  -13.2996 C   0  0  0  0  0  0  0  0  0  0  0  0
  -15.2712  -40.6641  -12.4796 C   0  0  0  0  0  0  0  0  0  0  0  0
  -15.4989  -41.1821  -11.2251 C   0  0  0  0  0  0  0  0  0  0  0  0
  -14.8047  -42.3470  -10.8095 C   0  0  0  0  0  0  0  0  0  0  0  0
  -16.3746  -40.7258  -10.1187 C   0  0  0  0  0  0  0  0  0  0  0  0
  -17.0536  -41.6992   -9.5671 O   0  0  0  0  0  0  0  0  0  0  0  0
  -16.5667  -39.4132   -9.5921 N   0  0  0  0  0  0  0  0  0  0  0  0
  -15.5534  -38.4610   -9.2039 C   0  0  1  0  0  0  0  0  0  0  0  0
  -15.8823  -37.0334   -9.6642 C   0  0  0  0  0  0  0  0  0  0  0  0
  -15.1233  -36.6287  -10.8876 C   0  0  0  0  0  0  0  0  0  0  0  0
  -15.3690  -36.8659  -12.2178 C   0  0  0  0  0  0  0  0  0  0  0  0
  -14.5133  -36.3771  -13.1576 C   0  0  0  0  0  0  0  0  0  0  0  0
  -14.5092  -36.4680  -14.6449 C   0  0  0  0  0  0  0  0  0  0  0  0
  -13.5356  -37.5039  -15.1580 C   0  0  0  0  0  0  0  0  0  0  0  0
  -14.3400  -38.7524  -15.4994 C   0  0  0  0  0  0  0  0  0  0  0  0
  -13.4367  -39.9355  -15.2911 C   0  0  0  0  0  0  0  0  0  0  0  0
  -13.9521  -40.9943  -14.5779 O   0  0  0  0  0  0  0  0  0  0  0  0
  -13.3808  -35.6306  -12.7412 C   0  0  0  0  0  0  0  0  0  0  0  0
  -13.0802  -35.3609  -11.4348 C   0  0  0  0  0  0  0  0  0  0  0  0
  -13.9723  -35.8750  -10.5393 C   0  0  0  0  0  0  0  0  0  0  0  0
  -15.5725  -38.4019   -7.6730 C   0  0  2  0  0  0  0  0  0  0  0  0
  -14.3090  -38.1325   -7.1655 O   0  0  0  0  0  0  0  0  0  0  0  0
  -16.0573  -39.6598   -7.0269 C   0  0  0  0  0  0  0  0  0  0  0  0
  -17.4823  -39.6973   -6.9994 N   0  0  0  0  0  0  0  0  0  0  0  0
  -18.0961  -40.8229   -6.4390 C   0  0  0  0  0  0  0  0  0  0  0  0
  -19.5093  -40.7492   -6.1122 C   0  0  0  0  0  0  0  0  0  0  0  0
  -20.2771  -39.6964   -6.5453 C   0  0  0  0  0  0  0  0  0  0  0  0
  -21.6367  -39.6077   -6.2491 C   0  0  0  0  0  0  0  0  0  0  0  0
  -22.1836  -40.6303   -5.4979 C   0  0  0  0  0  0  0  0  0  0  0  0
  -21.3894  -41.6609   -5.0850 C   0  0  0  0  0  0  0  0  0  0  0  0
  -20.0991  -41.6996   -5.3927 N   0  0  0  0  0  0  0  0  0  0  0  0
  -22.5069  -38.4914   -6.6911 C   0  0  0  0  0  0  0  0  0  0  0  0
  -23.8228  -38.9890   -7.2466 C   0  0  0  0  0  0  0  0  0  0  0  0
  -21.8515  -37.5463   -7.6537 C   0  0  0  0  0  0  0  0  0  0  0  0
  -22.8629  -37.6711   -5.4451 C   0  0  0  0  0  0  0  0  0  0  0  0
  1  2  1  0
  2  3  2  0
  2  4  1  0
  4  5  1  0
  5  6  1  0
  6  7  2  0
  7  8  1  0
  8  9  2  0
  9 10  1  0
 10 11  2  0
 10 12  1  0
 12 13  2  0
 12 14  1  0
 14 15  1  0
 15 16  1  6
 16 17  1  0
 17 18  1  0
 18 19  2  0
 19 20  1  0
 20 21  1  0
 21 22  1  0
 22 23  1  0
 23 24  1  0
 19 25  1  0
 25 26  2  0
 26 27  1  0
 15 28  1  0
 28 29  1  1
 28 30  1  0
 30 31  1  0
 31 32  1  0
 32 33  1  0
 33 34  2  0
 34 35  1  0
 35 36  2  0
 36 37  1  0
 37 38  2  0
 35 39  1  0
 39 40  1  0
 39 41  1  0
 39 42  1  0
 11  6  1  0
 24  8  1  0
 27 17  2  0
 38 33  1  0
M  END
$$$$
