
     RDKit          3D

 42 45  0  0  0  0  0  0  0  0999 V2000
  -21.0892  -49.3255   -8.9749 C   0  0  0  0  0  0  0  0  0  0  0  0
  -20.2527  -48.2055   -9.4753 C   0  0  0  0  0  0  0  0  0  0  0  0
  -20.4953  -47.7467  -10.5707 O   0  0  0  0  0  0  0  0  0  0  0  0
  -19.1546  -47.6485   -8.6829 C   0  0  0  0  0  0  0  0  0  0  0  0
  -18.8274  -46.3217   -9.0393 O   0  0  0  0  0  0  0  0  0  0  0  0
  -19.1636  -45.3039   -8.1449 C   0  0  0  0  0  0  0  0  0  0  0  0
  -20.3238  -45.3072   -7.4278 C   0  0  0  0  0  0  0  0  0  0  0  0
  -20.6734  -44.2794   -6.5177 C   0  0  0  0  0  0  0  0  0  0  0  0
  -19.8141  -43.2035   -6.3226 C   0  0  0  0  0  0  0  0  0  0  0  0
  -18.6376  -43.1747   -7.0360 C   0  0  0  0  0  0  0  0  0  0  0  0
  -18.3350  -44.2295   -7.9346 C   0  0  0  0  0  0  0  0  0  0  0  0
  -17.5408  -42.1776   -7.0807 C   0  0  0  0  0  0  0  0  0  0  0  0
  -16.3512  -42.7213   -7.0342 O   0  0  0  0  0  0  0  0  0  0  0  0
  -17.6073  -40.7546   -7.1670 N   0  0  0  0  0  0  0  0  0  0  0  0
  -18.3866  -39.9618   -8.0881 C   0  0  1  0  0  0  0  0  0  0  0  0
  -19.0583  -38.7610   -7.4063 C   0  0  0  0  0  0  0  0  0  0  0  0
  -20.5072  -38.9930   -7.1178 C   0  0  0  0  0  0  0  0  0  0  0  0
  -21.1243  -39.6362   -6.0730 C   0  0  0  0  0  0  0  0  0  0  0  0
  -22.4836  -39.7100   -6.0371 C   0  0  0  0  0  0  0  0  0  0  0  0
  -23.4224  -40.3292   -5.0594 C   0  0  0  0  0  0  0  0  0  0  0  0
  -23.9579  -41.6599   -5.5355 C   0  0  0  0  0  0  0  0  0  0  0  0
  -23.1608  -42.7490   -4.8278 C   0  0  0  0  0  0  0  0  0  0  0  0
  -23.1197  -43.9389   -5.7452 C   0  0  0  0  0  0  0  0  0  0  0  0
  -21.8941  -44.5363   -5.9354 O   0  0  0  0  0  0  0  0  0  0  0  0
  -23.2370  -39.1190   -7.0842 C   0  0  0  0  0  0  0  0  0  0  0  0
  -22.6836  -38.4664   -8.1508 C   0  0  0  0  0  0  0  0  0  0  0  0
  -21.3198  -38.4240   -8.1326 C   0  0  0  0  0  0  0  0  0  0  0  0
  -17.3969  -39.3526   -9.0866 C   0  0  2  0  0  0  0  0  0  0  0  0
  -18.0290  -39.0089  -10.2735 O   0  0  0  0  0  0  0  0  0  0  0  0
  -16.2552  -40.2543   -9.4304 C   0  0  0  0  0  0  0  0  0  0  0  0
  -15.0224  -39.7086   -8.9663 N   0  0  0  0  0  0  0  0  0  0  0  0
  -13.8638  -39.9974   -9.6956 C   0  0  0  0  0  0  0  0  0  0  0  0
  -13.5640  -39.1906  -10.8655 C   0  0  0  0  0  0  0  0  0  0  0  0
  -13.2545  -37.8586  -10.7405 C   0  0  0  0  0  0  0  0  0  0  0  0
  -12.9573  -37.0661  -11.8485 C   0  0  0  0  0  0  0  0  0  0  0  0
  -12.9859  -37.6806  -13.0858 C   0  0  0  0  0  0  0  0  0  0  0  0
  -13.2977  -39.0068  -13.1712 C   0  0  0  0  0  0  0  0  0  0  0  0
  -13.5739  -39.7189  -12.0860 N   0  0  0  0  0  0  0  0  0  0  0  0
  -12.6197  -35.6246  -11.7659 C   0  0  0  0  0  0  0  0  0  0  0  0
  -13.6639  -34.8447  -10.9984 C   0  0  0  0  0  0  0  0  0  0  0  0
  -12.3498  -34.9804  -13.0931 C   0  0  0  0  0  0  0  0  0  0  0  0
  -11.3264  -35.5062  -10.9500 C   0  0  0  0  0  0  0  0  0  0  0  0
  1  2  1  0
  2  3  2  0
  2  4  1  0
  4  5  1  0
  5  6  1  0
  6  7  2  0
  7  8  1  0
  8  9  2  0
  9 10  1  0
 10 11  2  0
 10 12  1  0
 12 13  2  0
 12 14  1  0
 14 15  1  0
 15 16  1  1
 16 17  1  0
 17 18  1  0
 18 19  2  0
 19 20  1  0
 20 21  1  0
 21 22  1  0
 22 23  1  0
 23 24  1  0
 19 25  1  0
 25 26  2  0
 26 27  1  0
 15 28  1  0
 28 29  1  6
 28 30  1  0
 30 31  1  0
 31 32  1  0
 32 33  1  0
 33 34  2  0
 34 35  1  0
 35 36  2  0
 36 37  1  0
 37 38  2  0
 35 39  1  0
 39 40  1  0
 39 41  1  0
 39 42  1  0
 11  6  1  0
 24  8  1  0
 27 17  2  0
 38 33  1  0
M  END
$$$$
