
     RDKit          3D

 35 37  0  0  0  0  0  0  0  0999 V2000
  -19.0034  -38.8298   -5.4398 C   0  0  0  0  0  0  0  0  0  0  0  0
  -18.8462  -38.3304   -6.8356 C   0  0  2  0  0  0  0  0  0  0  0  0
  -20.0745  -37.4581   -7.1350 C   0  0  0  0  0  0  0  0  0  0  0  0
  -21.2260  -38.4153   -7.3049 C   0  0  0  0  0  0  0  0  0  0  0  0
  -22.5697  -37.8041   -7.0711 C   0  0  0  0  0  0  0  0  0  0  0  0
  -23.5964  -38.8132   -7.6097 C   0  0  0  0  0  0  0  0  0  0  0  0
  -23.5105  -40.1312   -6.9082 C   0  0  0  0  0  0  0  0  0  0  0  0
  -23.1143  -41.2758   -7.8502 C   0  0  0  0  0  0  0  0  0  0  0  0
  -23.7272  -42.5218   -7.3600 C   0  0  0  0  0  0  0  0  0  0  0  0
  -22.7949  -43.5837   -7.0188 N   0  0  0  0  0  0  0  0  0  0  0  0
  -21.3702  -43.6359   -7.0333 C   0  0  0  0  0  0  0  0  0  0  0  0
  -20.4030  -42.7509   -6.5978 C   0  0  0  0  0  0  0  0  0  0  0  0
  -19.0739  -43.1031   -6.7566 C   0  0  0  0  0  0  0  0  0  0  0  0
  -18.7366  -44.3513   -7.3538 C   0  0  0  0  0  0  0  0  0  0  0  0
  -19.6716  -45.2473   -7.7933 C   0  0  0  0  0  0  0  0  0  0  0  0
  -20.9701  -44.8698   -7.6232 C   0  0  0  0  0  0  0  0  0  0  0  0
  -17.8234  -42.3961   -6.4154 C   0  0  0  0  0  0  0  0  0  0  0  0
  -16.9011  -43.1363   -5.8253 O   0  0  0  0  0  0  0  0  0  0  0  0
  -17.4554  -41.0289   -6.6300 N   0  0  0  0  0  0  0  0  0  0  0  0
  -17.6242  -40.2905   -7.8422 C   0  0  1  0  0  0  0  0  0  0  0  0
  -18.8194  -39.3981   -7.8732 C   0  0  0  0  0  0  0  0  0  0  0  0
  -16.3870  -39.4137   -8.0788 C   0  0  2  0  0  0  0  0  0  0  0  0
  -16.7780  -38.1795   -8.5813 O   0  0  0  0  0  0  0  0  0  0  0  0
  -15.4492  -40.0992   -9.0621 C   0  0  0  0  0  0  0  0  0  0  0  0
  -14.2602  -40.5755   -8.4204 N   0  0  0  0  0  0  0  0  0  0  0  0
  -13.1176  -40.6084   -9.2825 C   0  0  0  0  0  0  0  0  0  0  0  0
  -12.8074  -39.2434   -9.8340 C   0  0  0  0  0  0  0  0  0  0  0  0
  -12.9922  -38.7892  -11.1277 C   0  0  0  0  0  0  0  0  0  0  0  0
  -12.5766  -37.4782  -11.2031 C   0  0  0  0  0  0  0  0  0  0  0  0
  -12.1497  -37.1597   -9.9647 N   0  0  0  0  0  0  0  0  0  0  0  0
  -12.2840  -38.1966   -9.1555 N   0  0  0  0  0  0  0  0  0  0  0  0
  -12.6161  -36.6404  -12.4262 C   0  0  0  0  0  0  0  0  0  0  0  0
  -11.7933  -37.2579  -13.5338 C   0  0  0  0  0  0  0  0  0  0  0  0
  -14.0466  -36.4539  -12.8789 C   0  0  0  0  0  0  0  0  0  0  0  0
  -12.0596  -35.2798  -12.0768 C   0  0  0  0  0  0  0  0  0  0  0  0
  2  1  1  1
  2  3  1  0
  3  4  1  0
  4  5  1  0
  5  6  1  0
  6  7  1  0
  7  8  1  0
  8  9  1  0
  9 10  1  0
 10 11  1  0
 11 12  1  0
 12 13  2  0
 13 14  1  0
 14 15  2  0
 15 16  1  0
 13 17  1  0
 17 18  2  0
 17 19  1  0
 19 20  1  0
 20 21  1  1
 20 22  1  0
 22 23  1  6
 22 24  1  0
 24 25  1  0
 25 26  1  0
 26 27  1  0
 27 28  1  0
 28 29  2  0
 29 30  1  0
 30 31  1  0
 29 32  1  0
 32 33  1  0
 32 34  1  0
 32 35  1  0
 16 11  2  0
 21  2  1  0
 31 27  2  0
M  END
$$$$
