
     RDKit          3D

 35 37  0  0  0  0  0  0  0  0999 V2000
  -18.8847  -39.7235   -4.9279 C   0  0  0  0  0  0  0  0  0  0  0  0
  -19.2534  -38.9271   -6.1331 C   0  0  2  0  0  0  0  0  0  0  0  0
  -20.6974  -38.4476   -5.9224 C   0  0  0  0  0  0  0  0  0  0  0  0
  -21.5655  -39.6648   -6.1110 C   0  0  0  0  0  0  0  0  0  0  0  0
  -22.9019  -39.5722   -5.4482 C   0  0  0  0  0  0  0  0  0  0  0  0
  -23.7434  -40.7230   -6.0230 C   0  0  0  0  0  0  0  0  0  0  0  0
  -23.1319  -42.0594   -5.7458 C   0  0  0  0  0  0  0  0  0  0  0  0
  -22.7324  -42.8024   -7.0275 C   0  0  0  0  0  0  0  0  0  0  0  0
  -22.8451  -44.2506   -6.7860 C   0  0  0  0  0  0  0  0  0  0  0  0
  -21.6152  -45.0081   -6.9493 N   0  0  0  0  0  0  0  0  0  0  0  0
  -20.2863  -44.6017   -7.2684 C   0  0  0  0  0  0  0  0  0  0  0  0
  -19.4967  -43.5639   -6.8125 C   0  0  0  0  0  0  0  0  0  0  0  0
  -18.2196  -43.4364   -7.3305 C   0  0  0  0  0  0  0  0  0  0  0  0
  -17.7526  -44.3642   -8.3050 C   0  0  0  0  0  0  0  0  0  0  0  0
  -18.5107  -45.4012   -8.7742 C   0  0  0  0  0  0  0  0  0  0  0  0
  -19.7629  -45.4978   -8.2450 C   0  0  0  0  0  0  0  0  0  0  0  0
  -17.1481  -42.4544   -7.0703 C   0  0  0  0  0  0  0  0  0  0  0  0
  -15.9410  -42.9677   -6.9089 O   0  0  0  0  0  0  0  0  0  0  0  0
  -17.2170  -41.0275   -6.9694 N   0  0  0  0  0  0  0  0  0  0  0  0
  -17.8981  -40.1505   -7.8694 C   0  0  1  0  0  0  0  0  0  0  0  0
  -19.2422  -39.6965   -7.4078 C   0  0  0  0  0  0  0  0  0  0  0  0
  -17.0424  -38.8979   -8.1022 C   0  0  2  0  0  0  0  0  0  0  0  0
  -17.7956  -37.9326   -8.7576 O   0  0  0  0  0  0  0  0  0  0  0  0
  -15.8206  -39.2553   -8.9362 C   0  0  0  0  0  0  0  0  0  0  0  0
  -16.1770  -39.9788  -10.1202 N   0  0  0  0  0  0  0  0  0  0  0  0
  -15.0593  -40.2926  -10.9582 C   0  0  0  0  0  0  0  0  0  0  0  0
  -14.2352  -39.0692  -11.2540 C   0  0  0  0  0  0  0  0  0  0  0  0
  -14.5383  -38.0304  -12.1160 C   0  0  0  0  0  0  0  0  0  0  0  0
  -13.5106  -37.1136  -12.0875 C   0  0  0  0  0  0  0  0  0  0  0  0
  -12.6075  -37.6061  -11.2161 N   0  0  0  0  0  0  0  0  0  0  0  0
  -13.0306  -38.7576  -10.7231 N   0  0  0  0  0  0  0  0  0  0  0  0
  -13.4651  -35.8593  -12.8773 C   0  0  0  0  0  0  0  0  0  0  0  0
  -13.3908  -36.1528  -14.3583 C   0  0  0  0  0  0  0  0  0  0  0  0
  -14.6797  -35.0121  -12.5722 C   0  0  0  0  0  0  0  0  0  0  0  0
  -12.2404  -35.0842  -12.4500 C   0  0  0  0  0  0  0  0  0  0  0  0
  2  1  1  1
  2  3  1  0
  3  4  1  0
  4  5  1  0
  5  6  1  0
  6  7  1  0
  7  8  1  0
  8  9  1  0
  9 10  1  0
 10 11  1  0
 11 12  1  0
 12 13  2  0
 13 14  1  0
 14 15  2  0
 15 16  1  0
 13 17  1  0
 17 18  2  0
 17 19  1  0
 19 20  1  0
 20 21  1  1
 20 22  1  0
 22 23  1  6
 22 24  1  0
 24 25  1  0
 25 26  1  0
 26 27  1  0
 27 28  1  0
 28 29  2  0
 29 30  1  0
 30 31  1  0
 29 32  1  0
 32 33  1  0
 32 34  1  0
 32 35  1  0
 16 11  2  0
 21  2  1  0
 31 27  2  0
M  END
$$$$
