
     RDKit          3D

 35 37  0  0  0  0  0  0  0  0999 V2000
  -19.2078  -39.0817   -5.3339 C   0  0  0  0  0  0  0  0  0  0  0  0
  -18.9613  -38.3881   -6.6304 C   0  0  2  0  0  0  0  0  0  0  0  0
  -20.2038  -37.5322   -6.9180 C   0  0  0  0  0  0  0  0  0  0  0  0
  -21.2865  -38.5015   -7.3170 C   0  0  0  0  0  0  0  0  0  0  0  0
  -22.6746  -37.9822   -7.1238 C   0  0  0  0  0  0  0  0  0  0  0  0
  -23.6000  -38.9470   -7.8826 C   0  0  0  0  0  0  0  0  0  0  0  0
  -23.5047  -40.3450   -7.3598 C   0  0  0  0  0  0  0  0  0  0  0  0
  -22.9735  -41.3316   -8.4080 C   0  0  0  0  0  0  0  0  0  0  0  0
  -23.5600  -42.6567   -8.1464 C   0  0  0  0  0  0  0  0  0  0  0  0
  -22.6059  -43.7178   -7.8693 N   0  0  0  0  0  0  0  0  0  0  0  0
  -21.1841  -43.7110   -7.7636 C   0  0  0  0  0  0  0  0  0  0  0  0
  -20.3030  -42.8572   -7.1286 C   0  0  0  0  0  0  0  0  0  0  0  0
  -18.9490  -43.1311   -7.2143 C   0  0  0  0  0  0  0  0  0  0  0  0
  -18.4996  -44.2703   -7.9413 C   0  0  0  0  0  0  0  0  0  0  0  0
  -19.3477  -45.1332   -8.5789 C   0  0  0  0  0  0  0  0  0  0  0  0
  -20.6734  -44.8346   -8.4761 C   0  0  0  0  0  0  0  0  0  0  0  0
  -17.7691  -42.4291   -6.6710 C   0  0  0  0  0  0  0  0  0  0  0  0
  -16.8621  -43.2067   -6.1060 O   0  0  0  0  0  0  0  0  0  0  0  0
  -17.4554  -41.0319   -6.6663 N   0  0  0  0  0  0  0  0  0  0  0  0
  -17.5609  -40.1401   -7.7784 C   0  0  1  0  0  0  0  0  0  0  0  0
  -18.7938  -39.3001   -7.7954 C   0  0  0  0  0  0  0  0  0  0  0  0
  -16.3551  -39.1907   -7.7837 C   0  0  2  0  0  0  0  0  0  0  0  0
  -16.7831  -37.8903   -7.5504 O   0  0  0  0  0  0  0  0  0  0  0  0
  -15.6434  -39.2682   -9.1268 C   0  0  0  0  0  0  0  0  0  0  0  0
  -15.1689  -40.5914   -9.4025 N   0  0  0  0  0  0  0  0  0  0  0  0
  -13.9582  -40.6185  -10.1664 C   0  0  0  0  0  0  0  0  0  0  0  0
  -14.0924  -39.8207  -11.4349 C   0  0  0  0  0  0  0  0  0  0  0  0
  -13.4063  -38.6737  -11.7920 C   0  0  0  0  0  0  0  0  0  0  0  0
  -13.8340  -38.2682  -13.0370 C   0  0  0  0  0  0  0  0  0  0  0  0
  -14.7650  -39.1678  -13.4130 N   0  0  0  0  0  0  0  0  0  0  0  0
  -14.9201  -40.0836  -12.4721 N   0  0  0  0  0  0  0  0  0  0  0  0
  -13.3337  -37.0763  -13.7638 C   0  0  0  0  0  0  0  0  0  0  0  0
  -13.9573  -36.9767  -15.1372 C   0  0  0  0  0  0  0  0  0  0  0  0
  -13.6235  -35.8252  -12.9658 C   0  0  0  0  0  0  0  0  0  0  0  0
  -11.8340  -37.2058  -13.8940 C   0  0  0  0  0  0  0  0  0  0  0  0
  2  1  1  1
  2  3  1  0
  3  4  1  0
  4  5  1  0
  5  6  1  0
  6  7  1  0
  7  8  1  0
  8  9  1  0
  9 10  1  0
 10 11  1  0
 11 12  1  0
 12 13  2  0
 13 14  1  0
 14 15  2  0
 15 16  1  0
 13 17  1  0
 17 18  2  0
 17 19  1  0
 19 20  1  0
 20 21  1  1
 20 22  1  0
 22 23  1  6
 22 24  1  0
 24 25  1  0
 25 26  1  0
 26 27  1  0
 27 28  1  0
 28 29  2  0
 29 30  1  0
 30 31  1  0
 29 32  1  0
 32 33  1  0
 32 34  1  0
 32 35  1  0
 16 11  2  0
 21  2  1  0
 31 27  2  0
M  END
$$$$
