
     RDKit          3D

 35 37  0  0  0  0  0  0  0  0999 V2000
  -18.9626  -39.6988   -5.5382 C   0  0  0  0  0  0  0  0  0  0  0  0
  -19.0920  -38.8543   -6.7599 C   0  0  2  0  0  0  0  0  0  0  0  0
  -20.5121  -38.2691   -6.7454 C   0  0  0  0  0  0  0  0  0  0  0  0
  -21.4305  -39.4122   -7.0929 C   0  0  0  0  0  0  0  0  0  0  0  0
  -22.8388  -39.2294   -6.6270 C   0  0  0  0  0  0  0  0  0  0  0  0
  -23.6697  -40.3011   -7.3507 C   0  0  0  0  0  0  0  0  0  0  0  0
  -23.2050  -41.6855   -7.0277 C   0  0  0  0  0  0  0  0  0  0  0  0
  -22.6785  -42.4333   -8.2597 C   0  0  0  0  0  0  0  0  0  0  0  0
  -22.9313  -43.8728   -8.0797 C   0  0  0  0  0  0  0  0  0  0  0  0
  -21.7497  -44.7195   -8.0863 N   0  0  0  0  0  0  0  0  0  0  0  0
  -20.3623  -44.4108   -8.1985 C   0  0  0  0  0  0  0  0  0  0  0  0
  -19.5736  -43.4454   -7.6034 C   0  0  0  0  0  0  0  0  0  0  0  0
  -18.2286  -43.4070   -7.9279 C   0  0  0  0  0  0  0  0  0  0  0  0
  -17.6940  -44.3498   -8.8518 C   0  0  0  0  0  0  0  0  0  0  0  0
  -18.4496  -45.3167   -9.4556 C   0  0  0  0  0  0  0  0  0  0  0  0
  -19.7692  -45.3264   -9.1154 C   0  0  0  0  0  0  0  0  0  0  0  0
  -17.1374  -42.5153   -7.4873 C   0  0  0  0  0  0  0  0  0  0  0  0
  -16.0077  -43.1229   -7.1689 O   0  0  0  0  0  0  0  0  0  0  0  0
  -17.1153  -41.0895   -7.3555 N   0  0  0  0  0  0  0  0  0  0  0  0
  -17.5915  -40.1462   -8.3181 C   0  0  1  0  0  0  0  0  0  0  0  0
  -18.9516  -39.5988   -8.0418 C   0  0  0  0  0  0  0  0  0  0  0  0
  -16.6213  -38.9591   -8.3882 C   0  0  2  0  0  0  0  0  0  0  0  0
  -17.2842  -37.8422   -8.8799 O   0  0  0  0  0  0  0  0  0  0  0  0
  -15.4478  -39.3046   -9.2936 C   0  0  0  0  0  0  0  0  0  0  0  0
  -15.2607  -40.7205   -9.4061 N   0  0  0  0  0  0  0  0  0  0  0  0
  -14.5302  -41.1110  -10.5739 C   0  0  0  0  0  0  0  0  0  0  0  0
  -13.9574  -39.9167  -11.2872 C   0  0  0  0  0  0  0  0  0  0  0  0
  -14.1352  -38.5795  -10.9800 C   0  0  0  0  0  0  0  0  0  0  0  0
  -13.4340  -37.8169  -11.8878 C   0  0  0  0  0  0  0  0  0  0  0  0
  -12.8465  -38.6955  -12.7247 N   0  0  0  0  0  0  0  0  0  0  0  0
  -13.1523  -39.9331  -12.3743 N   0  0  0  0  0  0  0  0  0  0  0  0
  -13.3758  -36.3350  -11.8914 C   0  0  0  0  0  0  0  0  0  0  0  0
  -13.2048  -35.8020  -13.2956 C   0  0  0  0  0  0  0  0  0  0  0  0
  -14.6294  -35.7671  -11.2653 C   0  0  0  0  0  0  0  0  0  0  0  0
  -12.2008  -35.9131  -11.0403 C   0  0  0  0  0  0  0  0  0  0  0  0
  2  1  1  1
  2  3  1  0
  3  4  1  0
  4  5  1  0
  5  6  1  0
  6  7  1  0
  7  8  1  0
  8  9  1  0
  9 10  1  0
 10 11  1  0
 11 12  1  0
 12 13  2  0
 13 14  1  0
 14 15  2  0
 15 16  1  0
 13 17  1  0
 17 18  2  0
 17 19  1  0
 19 20  1  0
 20 21  1  1
 20 22  1  0
 22 23  1  6
 22 24  1  0
 24 25  1  0
 25 26  1  0
 26 27  1  0
 27 28  1  0
 28 29  2  0
 29 30  1  0
 30 31  1  0
 29 32  1  0
 32 33  1  0
 32 34  1  0
 32 35  1  0
 16 11  2  0
 21  2  1  0
 31 27  2  0
M  END
$$$$
