
     RDKit          3D

 35 37  0  0  0  0  0  0  0  0999 V2000
  -19.0710  -39.3375   -4.8547 C   0  0  0  0  0  0  0  0  0  0  0  0
  -19.5380  -38.6991   -6.1184 C   0  0  2  0  0  0  0  0  0  0  0  0
  -21.0047  -38.2999   -5.8972 C   0  0  0  0  0  0  0  0  0  0  0  0
  -21.7887  -39.5866   -5.9236 C   0  0  0  0  0  0  0  0  0  0  0  0
  -23.1043  -39.5164   -5.2180 C   0  0  0  0  0  0  0  0  0  0  0  0
  -23.8799  -40.7759   -5.6362 C   0  0  0  0  0  0  0  0  0  0  0  0
  -23.1641  -42.0309   -5.2497 C   0  0  0  0  0  0  0  0  0  0  0  0
  -22.7568  -42.8754   -6.4644 C   0  0  0  0  0  0  0  0  0  0  0  0
  -22.7561  -44.2945   -6.0716 C   0  0  0  0  0  0  0  0  0  0  0  0
  -21.4811  -44.9792   -6.2082 N   0  0  0  0  0  0  0  0  0  0  0  0
  -20.1970  -44.5188   -6.6228 C   0  0  0  0  0  0  0  0  0  0  0  0
  -19.4691  -43.3874   -6.3092 C   0  0  0  0  0  0  0  0  0  0  0  0
  -18.2233  -43.2281   -6.8908 C   0  0  0  0  0  0  0  0  0  0  0  0
  -17.7247  -44.2189   -7.7841 C   0  0  0  0  0  0  0  0  0  0  0  0
  -18.4217  -45.3489   -8.1124 C   0  0  0  0  0  0  0  0  0  0  0  0
  -19.6444  -45.4746   -7.5238 C   0  0  0  0  0  0  0  0  0  0  0  0
  -17.2172  -42.1533   -6.7777 C   0  0  0  0  0  0  0  0  0  0  0  0
  -15.9713  -42.5632   -6.6157 O   0  0  0  0  0  0  0  0  0  0  0  0
  -17.3855  -40.7318   -6.8205 N   0  0  0  0  0  0  0  0  0  0  0  0
  -18.1591  -40.0026   -7.7760 C   0  0  1  0  0  0  0  0  0  0  0  0
  -19.5157  -39.5956   -7.3071 C   0  0  0  0  0  0  0  0  0  0  0  0
  -17.4049  -38.7259   -8.1715 C   0  0  2  0  0  0  0  0  0  0  0  0
  -17.9928  -38.1658   -9.2981 O   0  0  0  0  0  0  0  0  0  0  0  0
  -15.9471  -39.0558   -8.4583 C   0  0  0  0  0  0  0  0  0  0  0  0
  -15.7183  -39.2893   -9.8531 N   0  0  0  0  0  0  0  0  0  0  0  0
  -14.4235  -39.8295  -10.1389 C   0  0  0  0  0  0  0  0  0  0  0  0
  -13.5353  -38.8071  -10.7942 C   0  0  0  0  0  0  0  0  0  0  0  0
  -13.6424  -38.2840  -12.0704 C   0  0  0  0  0  0  0  0  0  0  0  0
  -12.6247  -37.3768  -12.2668 C   0  0  0  0  0  0  0  0  0  0  0  0
  -11.9219  -37.3634  -11.1165 N   0  0  0  0  0  0  0  0  0  0  0  0
  -12.4550  -38.2044  -10.2468 N   0  0  0  0  0  0  0  0  0  0  0  0
  -12.4007  -36.6034  -13.5122 C   0  0  0  0  0  0  0  0  0  0  0  0
  -13.5142  -35.6068  -13.7400 C   0  0  0  0  0  0  0  0  0  0  0  0
  -11.0678  -35.8926  -13.4464 C   0  0  0  0  0  0  0  0  0  0  0  0
  -12.3484  -37.5802  -14.6638 C   0  0  0  0  0  0  0  0  0  0  0  0
  2  1  1  1
  2  3  1  0
  3  4  1  0
  4  5  1  0
  5  6  1  0
  6  7  1  0
  7  8  1  0
  8  9  1  0
  9 10  1  0
 10 11  1  0
 11 12  1  0
 12 13  2  0
 13 14  1  0
 14 15  2  0
 15 16  1  0
 13 17  1  0
 17 18  2  0
 17 19  1  0
 19 20  1  0
 20 21  1  1
 20 22  1  0
 22 23  1  6
 22 24  1  0
 24 25  1  0
 25 26  1  0
 26 27  1  0
 27 28  1  0
 28 29  2  0
 29 30  1  0
 30 31  1  0
 29 32  1  0
 32 33  1  0
 32 34  1  0
 32 35  1  0
 16 11  2  0
 21  2  1  0
 31 27  2  0
M  END
$$$$
