
     RDKit          3D

 35 37  0  0  0  0  0  0  0  0999 V2000
  -19.1251  -39.2133   -5.4458 C   0  0  0  0  0  0  0  0  0  0  0  0
  -19.1307  -38.5396   -6.7757 C   0  0  2  0  0  0  0  0  0  0  0  0
  -20.4994  -37.8576   -6.9209 C   0  0  0  0  0  0  0  0  0  0  0  0
  -21.4880  -38.9690   -7.1624 C   0  0  0  0  0  0  0  0  0  0  0  0
  -22.8976  -38.6226   -6.8062 C   0  0  0  0  0  0  0  0  0  0  0  0
  -23.7760  -39.7220   -7.4245 C   0  0  0  0  0  0  0  0  0  0  0  0
  -23.4374  -41.0779   -6.8918 C   0  0  0  0  0  0  0  0  0  0  0  0
  -22.9150  -42.0254   -7.9798 C   0  0  0  0  0  0  0  0  0  0  0  0
  -23.2887  -43.4040   -7.6218 C   0  0  0  0  0  0  0  0  0  0  0  0
  -22.1785  -44.3261   -7.4470 N   0  0  0  0  0  0  0  0  0  0  0  0
  -20.7674  -44.1363   -7.5210 C   0  0  0  0  0  0  0  0  0  0  0  0
  -19.9334  -43.1567   -7.0178 C   0  0  0  0  0  0  0  0  0  0  0  0
  -18.5760  -43.2605   -7.2678 C   0  0  0  0  0  0  0  0  0  0  0  0
  -18.0752  -44.3584   -8.0241 C   0  0  0  0  0  0  0  0  0  0  0  0
  -18.8760  -45.3430   -8.5339 C   0  0  0  0  0  0  0  0  0  0  0  0
  -20.2066  -45.2106   -8.2708 C   0  0  0  0  0  0  0  0  0  0  0  0
  -17.4394  -42.3969   -6.8903 C   0  0  0  0  0  0  0  0  0  0  0  0
  -16.3772  -43.0339   -6.4293 O   0  0  0  0  0  0  0  0  0  0  0  0
  -17.3110  -40.9719   -6.9511 N   0  0  0  0  0  0  0  0  0  0  0  0
  -17.6662  -40.1397   -8.0576 C   0  0  1  0  0  0  0  0  0  0  0  0
  -18.9902  -39.4630   -7.9353 C   0  0  0  0  0  0  0  0  0  0  0  0
  -16.6032  -39.0466   -8.2322 C   0  0  2  0  0  0  0  0  0  0  0  0
  -16.9309  -38.2452   -9.3180 O   0  0  0  0  0  0  0  0  0  0  0  0
  -15.2389  -39.6840   -8.4525 C   0  0  0  0  0  0  0  0  0  0  0  0
  -15.3356  -40.9069   -9.1923 N   0  0  0  0  0  0  0  0  0  0  0  0
  -15.2902  -40.7232  -10.6115 C   0  0  0  0  0  0  0  0  0  0  0  0
  -14.4026  -39.5679  -10.9867 C   0  0  0  0  0  0  0  0  0  0  0  0
  -14.6768  -38.5400  -11.8711 C   0  0  0  0  0  0  0  0  0  0  0  0
  -13.5913  -37.6934  -11.9206 C   0  0  0  0  0  0  0  0  0  0  0  0
  -12.6829  -38.2163  -11.0726 N   0  0  0  0  0  0  0  0  0  0  0  0
  -13.1570  -39.3202  -10.5207 N   0  0  0  0  0  0  0  0  0  0  0  0
  -13.5006  -36.4714  -12.7559 C   0  0  0  0  0  0  0  0  0  0  0  0
  -14.8556  -36.0878  -13.3053 C   0  0  0  0  0  0  0  0  0  0  0  0
  -12.9234  -35.3331  -11.9453 C   0  0  0  0  0  0  0  0  0  0  0  0
  -12.5511  -36.7563  -13.8961 C   0  0  0  0  0  0  0  0  0  0  0  0
  2  1  1  1
  2  3  1  0
  3  4  1  0
  4  5  1  0
  5  6  1  0
  6  7  1  0
  7  8  1  0
  8  9  1  0
  9 10  1  0
 10 11  1  0
 11 12  1  0
 12 13  2  0
 13 14  1  0
 14 15  2  0
 15 16  1  0
 13 17  1  0
 17 18  2  0
 17 19  1  0
 19 20  1  0
 20 21  1  1
 20 22  1  0
 22 23  1  6
 22 24  1  0
 24 25  1  0
 25 26  1  0
 26 27  1  0
 27 28  1  0
 28 29  2  0
 29 30  1  0
 30 31  1  0
 29 32  1  0
 32 33  1  0
 32 34  1  0
 32 35  1  0
 16 11  2  0
 21  2  1  0
 31 27  2  0
M  END
$$$$
