
     RDKit          3D

 35 37  0  0  0  0  0  0  0  0999 V2000
  -19.0600  -38.9358   -5.8684 C   0  0  0  0  0  0  0  0  0  0  0  0
  -18.9284  -38.3981   -7.2526 C   0  0  2  0  0  0  0  0  0  0  0  0
  -20.2678  -37.7299   -7.5974 C   0  0  0  0  0  0  0  0  0  0  0  0
  -21.2425  -38.8568   -7.8230 C   0  0  0  0  0  0  0  0  0  0  0  0
  -22.6754  -38.4724   -7.6419 C   0  0  0  0  0  0  0  0  0  0  0  0
  -23.5037  -39.6254   -8.2311 C   0  0  0  0  0  0  0  0  0  0  0  0
  -23.2355  -40.9224   -7.5363 C   0  0  0  0  0  0  0  0  0  0  0  0
  -22.6224  -41.9752   -8.4690 C   0  0  0  0  0  0  0  0  0  0  0  0
  -23.0465  -43.3101   -8.0145 C   0  0  0  0  0  0  0  0  0  0  0  0
  -21.9702  -44.2135   -7.6419 N   0  0  0  0  0  0  0  0  0  0  0  0
  -20.5563  -44.0363   -7.5963 C   0  0  0  0  0  0  0  0  0  0  0  0
  -19.7625  -43.0139   -7.1137 C   0  0  0  0  0  0  0  0  0  0  0  0
  -18.3887  -43.1462   -7.2185 C   0  0  0  0  0  0  0  0  0  0  0  0
  -17.8310  -44.3155   -7.8100 C   0  0  0  0  0  0  0  0  0  0  0  0
  -18.5912  -45.3436   -8.2955 C   0  0  0  0  0  0  0  0  0  0  0  0
  -19.9392  -45.1817   -8.1779 C   0  0  0  0  0  0  0  0  0  0  0  0
  -17.2831  -42.2526   -6.8194 C   0  0  0  0  0  0  0  0  0  0  0  0
  -16.2786  -42.8437   -6.1962 O   0  0  0  0  0  0  0  0  0  0  0  0
  -17.1313  -40.8412   -7.0081 N   0  0  0  0  0  0  0  0  0  0  0  0
  -17.3672  -40.1224   -8.2209 C   0  0  1  0  0  0  0  0  0  0  0  0
  -18.6881  -39.4330   -8.2959 C   0  0  0  0  0  0  0  0  0  0  0  0
  -16.2785  -39.0554   -8.3983 C   0  0  2  0  0  0  0  0  0  0  0  0
  -16.7852  -37.8090   -8.0541 O   0  0  0  0  0  0  0  0  0  0  0  0
  -15.8024  -39.0394   -9.8438 C   0  0  0  0  0  0  0  0  0  0  0  0
  -14.3826  -38.8718   -9.9351 N   0  0  0  0  0  0  0  0  0  0  0  0
  -13.6421  -39.8317   -9.1734 C   0  0  0  0  0  0  0  0  0  0  0  0
  -13.3321  -41.0574   -9.9890 C   0  0  0  0  0  0  0  0  0  0  0  0
  -13.9445  -41.4767  -11.1564 C   0  0  0  0  0  0  0  0  0  0  0  0
  -13.3538  -42.6491  -11.5732 C   0  0  0  0  0  0  0  0  0  0  0  0
  -12.4000  -42.9209  -10.6599 N   0  0  0  0  0  0  0  0  0  0  0  0
  -12.3841  -41.9859   -9.7254 N   0  0  0  0  0  0  0  0  0  0  0  0
  -13.7336  -43.4103  -12.7879 C   0  0  0  0  0  0  0  0  0  0  0  0
  -12.8681  -43.0217  -13.9647 C   0  0  0  0  0  0  0  0  0  0  0  0
  -13.6215  -44.8947  -12.5237 C   0  0  0  0  0  0  0  0  0  0  0  0
  -15.1804  -43.1026  -13.0967 C   0  0  0  0  0  0  0  0  0  0  0  0
  2  1  1  1
  2  3  1  0
  3  4  1  0
  4  5  1  0
  5  6  1  0
  6  7  1  0
  7  8  1  0
  8  9  1  0
  9 10  1  0
 10 11  1  0
 11 12  1  0
 12 13  2  0
 13 14  1  0
 14 15  2  0
 15 16  1  0
 13 17  1  0
 17 18  2  0
 17 19  1  0
 19 20  1  0
 20 21  1  1
 20 22  1  0
 22 23  1  6
 22 24  1  0
 24 25  1  0
 25 26  1  0
 26 27  1  0
 27 28  1  0
 28 29  2  0
 29 30  1  0
 30 31  1  0
 29 32  1  0
 32 33  1  0
 32 34  1  0
 32 35  1  0
 16 11  2  0
 21  2  1  0
 31 27  2  0
M  END
$$$$
