
     RDKit          3D

 35 37  0  0  0  0  0  0  0  0999 V2000
  -18.1503  -43.2551   -7.9864 C   0  0  0  0  0  0  0  0  0  0  0  0
  -17.5856  -42.5187   -6.8196 C   0  0  2  0  0  0  0  0  0  0  0  0
  -18.0677  -43.2509   -5.5583 C   0  0  0  0  0  0  0  0  0  0  0  0
  -19.5307  -42.9159   -5.4233 C   0  0  0  0  0  0  0  0  0  0  0  0
  -20.3134  -43.9039   -4.6202 C   0  0  0  0  0  0  0  0  0  0  0  0
  -21.6626  -43.2330   -4.3165 C   0  0  0  0  0  0  0  0  0  0  0  0
  -22.4117  -42.8872   -5.5639 C   0  0  0  0  0  0  0  0  0  0  0  0
  -22.6268  -41.3763   -5.7230 C   0  0  0  0  0  0  0  0  0  0  0  0
  -23.8845  -41.1550   -6.4562 C   0  0  0  0  0  0  0  0  0  0  0  0
  -23.7563  -40.4327   -7.7112 N   0  0  0  0  0  0  0  0  0  0  0  0
  -22.6170  -39.9207   -8.3987 C   0  0  0  0  0  0  0  0  0  0  0  0
  -21.3749  -40.4608   -8.6708 C   0  0  0  0  0  0  0  0  0  0  0  0
  -20.4669  -39.6915   -9.3774 C   0  0  0  0  0  0  0  0  0  0  0  0
  -20.8267  -38.3814   -9.8044 C   0  0  0  0  0  0  0  0  0  0  0  0
  -22.0482  -37.8209   -9.5507 C   0  0  0  0  0  0  0  0  0  0  0  0
  -22.9182  -38.6038   -8.8524 C   0  0  0  0  0  0  0  0  0  0  0  0
  -19.0825  -39.9608   -9.8145 C   0  0  0  0  0  0  0  0  0  0  0  0
  -18.8091  -39.6184  -11.0614 O   0  0  0  0  0  0  0  0  0  0  0  0
  -17.9878  -40.5342   -9.0909 N   0  0  0  0  0  0  0  0  0  0  0  0
  -17.5761  -40.1842   -7.7675 C   0  0  1  0  0  0  0  0  0  0  0  0
  -18.0495  -41.1091   -6.6969 C   0  0  0  0  0  0  0  0  0  0  0  0
  -16.0430  -40.1517   -7.7050 C   0  0  2  0  0  0  0  0  0  0  0  0
  -15.6327  -39.9640   -6.3916 O   0  0  0  0  0  0  0  0  0  0  0  0
  -15.5148  -39.0229   -8.5785 C   0  0  0  0  0  0  0  0  0  0  0  0
  -14.0829  -39.0042   -8.6166 N   0  0  0  0  0  0  0  0  0  0  0  0
  -13.5483  -38.6294   -9.8908 C   0  0  0  0  0  0  0  0  0  0  0  0
  -14.6048  -38.0177  -10.7702 C   0  0  0  0  0  0  0  0  0  0  0  0
  -14.9378  -36.6804  -10.8910 C   0  0  0  0  0  0  0  0  0  0  0  0
  -15.9599  -36.5568  -11.8060 C   0  0  0  0  0  0  0  0  0  0  0  0
  -16.2291  -37.8103  -12.2229 N   0  0  0  0  0  0  0  0  0  0  0  0
  -15.4331  -38.6735  -11.6151 N   0  0  0  0  0  0  0  0  0  0  0  0
  -16.5933  -35.2778  -12.2090 C   0  0  0  0  0  0  0  0  0  0  0  0
  -17.8040  -34.9790  -11.3547 C   0  0  0  0  0  0  0  0  0  0  0  0
  -15.5909  -34.1505  -12.1083 C   0  0  0  0  0  0  0  0  0  0  0  0
  -17.0094  -35.4000  -13.6564 C   0  0  0  0  0  0  0  0  0  0  0  0
  2  1  1  6
  2  3  1  0
  3  4  1  0
  4  5  1  0
  5  6  1  0
  6  7  1  0
  7  8  1  0
  8  9  1  0
  9 10  1  0
 10 11  1  0
 11 12  1  0
 12 13  2  0
 13 14  1  0
 14 15  2  0
 15 16  1  0
 13 17  1  0
 17 18  2  0
 17 19  1  0
 19 20  1  0
 20 21  1  1
 20 22  1  0
 22 23  1  1
 22 24  1  0
 24 25  1  0
 25 26  1  0
 26 27  1  0
 27 28  1  0
 28 29  2  0
 29 30  1  0
 30 31  1  0
 29 32  1  0
 32 33  1  0
 32 34  1  0
 32 35  1  0
 16 11  2  0
 21  2  1  0
 31 27  2  0
M  END
$$$$
