
     RDKit          3D

 35 37  0  0  0  0  0  0  0  0999 V2000
  -19.0653  -39.6903   -5.4956 C   0  0  0  0  0  0  0  0  0  0  0  0
  -18.9315  -39.0010   -6.8107 C   0  0  2  0  0  0  0  0  0  0  0  0
  -20.1871  -38.1337   -6.9859 C   0  0  0  0  0  0  0  0  0  0  0  0
  -21.3106  -39.0934   -7.2823 C   0  0  0  0  0  0  0  0  0  0  0  0
  -22.6704  -38.5608   -6.9647 C   0  0  0  0  0  0  0  0  0  0  0  0
  -23.6700  -39.5178   -7.6338 C   0  0  0  0  0  0  0  0  0  0  0  0
  -23.5405  -40.9159   -7.1187 C   0  0  0  0  0  0  0  0  0  0  0  0
  -23.1161  -41.9090   -8.2087 C   0  0  0  0  0  0  0  0  0  0  0  0
  -23.6886  -43.2281   -7.8917 C   0  0  0  0  0  0  0  0  0  0  0  0
  -22.7231  -44.2978   -7.7002 N   0  0  0  0  0  0  0  0  0  0  0  0
  -21.2976  -44.3043   -7.7246 C   0  0  0  0  0  0  0  0  0  0  0  0
  -20.3544  -43.4579   -7.1745 C   0  0  0  0  0  0  0  0  0  0  0  0
  -19.0165  -43.7447   -7.3825 C   0  0  0  0  0  0  0  0  0  0  0  0
  -18.6458  -44.8891   -8.1449 C   0  0  0  0  0  0  0  0  0  0  0  0
  -19.5564  -45.7449   -8.7006 C   0  0  0  0  0  0  0  0  0  0  0  0
  -20.8644  -45.4336   -8.4780 C   0  0  0  0  0  0  0  0  0  0  0  0
  -17.7855  -43.0531   -6.9506 C   0  0  0  0  0  0  0  0  0  0  0  0
  -16.8380  -43.8385   -6.4688 O   0  0  0  0  0  0  0  0  0  0  0  0
  -17.4597  -41.6589   -6.9776 N   0  0  0  0  0  0  0  0  0  0  0  0
  -17.6579  -40.7677   -8.0776 C   0  0  1  0  0  0  0  0  0  0  0  0
  -18.8793  -39.9162   -7.9841 C   0  0  0  0  0  0  0  0  0  0  0  0
  -16.4489  -39.8298   -8.1949 C   0  0  2  0  0  0  0  0  0  0  0  0
  -16.8571  -38.5155   -8.0087 O   0  0  0  0  0  0  0  0  0  0  0  0
  -15.8081  -39.9832   -9.5668 C   0  0  0  0  0  0  0  0  0  0  0  0
  -14.6150  -40.7743   -9.5120 N   0  0  0  0  0  0  0  0  0  0  0  0
  -13.4668  -40.1184  -10.0608 C   0  0  0  0  0  0  0  0  0  0  0  0
  -13.8618  -38.9440  -10.9142 C   0  0  0  0  0  0  0  0  0  0  0  0
  -13.7003  -37.5990  -10.6334 C   0  0  0  0  0  0  0  0  0  0  0  0
  -14.1994  -36.8615  -11.6842 C   0  0  0  0  0  0  0  0  0  0  0  0
  -14.6522  -37.7626  -12.5789 N   0  0  0  0  0  0  0  0  0  0  0  0
  -14.4552  -38.9901  -12.1290 N   0  0  0  0  0  0  0  0  0  0  0  0
  -14.2081  -35.3804  -11.7580 C   0  0  0  0  0  0  0  0  0  0  0  0
  -13.1584  -34.7854  -10.8475 C   0  0  0  0  0  0  0  0  0  0  0  0
  -13.9784  -34.9327  -13.1838 C   0  0  0  0  0  0  0  0  0  0  0  0
  -15.5778  -34.9012  -11.3369 C   0  0  0  0  0  0  0  0  0  0  0  0
  2  1  1  1
  2  3  1  0
  3  4  1  0
  4  5  1  0
  5  6  1  0
  6  7  1  0
  7  8  1  0
  8  9  1  0
  9 10  1  0
 10 11  1  0
 11 12  1  0
 12 13  2  0
 13 14  1  0
 14 15  2  0
 15 16  1  0
 13 17  1  0
 17 18  2  0
 17 19  1  0
 19 20  1  0
 20 21  1  1
 20 22  1  0
 22 23  1  6
 22 24  1  0
 24 25  1  0
 25 26  1  0
 26 27  1  0
 27 28  1  0
 28 29  2  0
 29 30  1  0
 30 31  1  0
 29 32  1  0
 32 33  1  0
 32 34  1  0
 32 35  1  0
 16 11  2  0
 21  2  1  0
 31 27  2  0
M  END
$$$$
