
     RDKit          3D

 35 37  0  0  0  0  0  0  0  0999 V2000
  -18.4981  -38.8761   -5.5006 C   0  0  0  0  0  0  0  0  0  0  0  0
  -19.0418  -38.4029   -6.8055 C   0  0  2  0  0  0  0  0  0  0  0  0
  -20.4938  -37.9719   -6.5503 C   0  0  0  0  0  0  0  0  0  0  0  0
  -21.2739  -39.2478   -6.3646 C   0  0  0  0  0  0  0  0  0  0  0  0
  -22.5453  -39.0817   -5.5966 C   0  0  0  0  0  0  0  0  0  0  0  0
  -23.3405  -40.3809   -5.8027 C   0  0  0  0  0  0  0  0  0  0  0  0
  -22.5990  -41.5793   -5.3019 C   0  0  0  0  0  0  0  0  0  0  0  0
  -22.2623  -42.5743   -6.4203 C   0  0  0  0  0  0  0  0  0  0  0  0
  -22.2337  -43.9314   -5.8495 C   0  0  0  0  0  0  0  0  0  0  0  0
  -20.9670  -44.6338   -5.9730 N   0  0  0  0  0  0  0  0  0  0  0  0
  -19.7114  -44.2362   -6.5191 C   0  0  0  0  0  0  0  0  0  0  0  0
  -18.9696  -43.0772   -6.3972 C   0  0  0  0  0  0  0  0  0  0  0  0
  -17.7613  -42.9994   -7.0677 C   0  0  0  0  0  0  0  0  0  0  0  0
  -17.3139  -44.0989   -7.8546 C   0  0  0  0  0  0  0  0  0  0  0  0
  -18.0257  -45.2585   -7.9932 C   0  0  0  0  0  0  0  0  0  0  0  0
  -19.2107  -45.3022   -7.3214 C   0  0  0  0  0  0  0  0  0  0  0  0
  -16.7536  -41.9236   -7.1537 C   0  0  0  0  0  0  0  0  0  0  0  0
  -15.4990  -42.3151   -7.0151 O   0  0  0  0  0  0  0  0  0  0  0  0
  -16.9287  -40.5186   -7.3683 N   0  0  0  0  0  0  0  0  0  0  0  0
  -17.7603  -39.9145   -8.3616 C   0  0  1  0  0  0  0  0  0  0  0  0
  -19.0877  -39.4445   -7.8686 C   0  0  0  0  0  0  0  0  0  0  0  0
  -17.0350  -38.7025   -8.9619 C   0  0  2  0  0  0  0  0  0  0  0  0
  -17.6292  -38.3521  -10.1672 O   0  0  0  0  0  0  0  0  0  0  0  0
  -15.5677  -39.0384   -9.1864 C   0  0  0  0  0  0  0  0  0  0  0  0
  -15.4024  -40.0836  -10.1521 N   0  0  0  0  0  0  0  0  0  0  0  0
  -14.1903  -39.9797  -10.9071 C   0  0  0  0  0  0  0  0  0  0  0  0
  -14.1794  -38.7394  -11.7586 C   0  0  0  0  0  0  0  0  0  0  0  0
  -13.2919  -37.6797  -11.7022 C   0  0  0  0  0  0  0  0  0  0  0  0
  -13.6428  -36.7532  -12.6592 C   0  0  0  0  0  0  0  0  0  0  0  0
  -14.7287  -37.2608  -13.2764 N   0  0  0  0  0  0  0  0  0  0  0  0
  -15.0477  -38.4303  -12.7489 N   0  0  0  0  0  0  0  0  0  0  0  0
  -12.9316  -35.4766  -12.9112 C   0  0  0  0  0  0  0  0  0  0  0  0
  -12.6583  -34.7431  -11.6180 C   0  0  0  0  0  0  0  0  0  0  0  0
  -11.6369  -35.7425  -13.6453 C   0  0  0  0  0  0  0  0  0  0  0  0
  -13.8042  -34.6258  -13.8042 C   0  0  0  0  0  0  0  0  0  0  0  0
  2  1  1  1
  2  3  1  0
  3  4  1  0
  4  5  1  0
  5  6  1  0
  6  7  1  0
  7  8  1  0
  8  9  1  0
  9 10  1  0
 10 11  1  0
 11 12  1  0
 12 13  2  0
 13 14  1  0
 14 15  2  0
 15 16  1  0
 13 17  1  0
 17 18  2  0
 17 19  1  0
 19 20  1  0
 20 21  1  1
 20 22  1  0
 22 23  1  6
 22 24  1  0
 24 25  1  0
 25 26  1  0
 26 27  1  0
 27 28  1  0
 28 29  2  0
 29 30  1  0
 30 31  1  0
 29 32  1  0
 32 33  1  0
 32 34  1  0
 32 35  1  0
 16 11  2  0
 21  2  1  0
 31 27  2  0
M  END
$$$$
