
     RDKit          3D

 35 37  0  0  0  0  0  0  0  0999 V2000
  -19.0135  -39.1787   -5.7171 C   0  0  0  0  0  0  0  0  0  0  0  0
  -19.6069  -38.8040   -7.0324 C   0  0  2  0  0  0  0  0  0  0  0  0
  -21.0001  -38.2264   -6.7414 C   0  0  0  0  0  0  0  0  0  0  0  0
  -21.8625  -39.4041   -6.3671 C   0  0  0  0  0  0  0  0  0  0  0  0
  -23.0615  -39.0492   -5.5484 C   0  0  0  0  0  0  0  0  0  0  0  0
  -23.9676  -40.2908   -5.5591 C   0  0  0  0  0  0  0  0  0  0  0  0
  -23.2890  -41.4870   -4.9714 C   0  0  0  0  0  0  0  0  0  0  0  0
  -23.1082  -42.6214   -5.9886 C   0  0  0  0  0  0  0  0  0  0  0  0
  -23.1462  -43.9068   -5.2712 C   0  0  0  0  0  0  0  0  0  0  0  0
  -21.9493  -44.7233   -5.3899 N   0  0  0  0  0  0  0  0  0  0  0  0
  -20.7070  -44.4947   -6.0511 C   0  0  0  0  0  0  0  0  0  0  0  0
  -19.8707  -43.3965   -6.1049 C   0  0  0  0  0  0  0  0  0  0  0  0
  -18.7088  -43.4941   -6.8506 C   0  0  0  0  0  0  0  0  0  0  0  0
  -18.4032  -44.7057   -7.5338 C   0  0  0  0  0  0  0  0  0  0  0  0
  -19.2109  -45.8088   -7.4982 C   0  0  0  0  0  0  0  0  0  0  0  0
  -20.3468  -45.6794   -6.7565 C   0  0  0  0  0  0  0  0  0  0  0  0
  -17.6287  -42.5231   -7.1171 C   0  0  0  0  0  0  0  0  0  0  0  0
  -16.4018  -43.0025   -7.0101 O   0  0  0  0  0  0  0  0  0  0  0  0
  -17.7083  -41.1396   -7.4779 N   0  0  0  0  0  0  0  0  0  0  0  0
  -18.5564  -40.5773   -8.4817 C   0  0  1  0  0  0  0  0  0  0  0  0
  -19.8063  -39.9461   -7.9667 C   0  0  0  0  0  0  0  0  0  0  0  0
  -17.7819  -39.5027   -9.2568 C   0  0  2  0  0  0  0  0  0  0  0  0
  -18.6685  -38.7258   -9.9909 O   0  0  0  0  0  0  0  0  0  0  0  0
  -16.7773  -40.1631  -10.1899 C   0  0  0  0  0  0  0  0  0  0  0  0
  -15.4893  -39.5407  -10.1124 N   0  0  0  0  0  0  0  0  0  0  0  0
  -14.6286  -39.8662  -11.2093 C   0  0  0  0  0  0  0  0  0  0  0  0
  -13.3907  -39.0112  -11.2073 C   0  0  0  0  0  0  0  0  0  0  0  0
  -13.0936  -37.9469  -12.0396 C   0  0  0  0  0  0  0  0  0  0  0  0
  -11.8577  -37.4446  -11.6968 C   0  0  0  0  0  0  0  0  0  0  0  0
  -11.4275  -38.2054  -10.6703 N   0  0  0  0  0  0  0  0  0  0  0  0
  -12.3275  -39.1291  -10.3791 N   0  0  0  0  0  0  0  0  0  0  0  0
  -11.1897  -36.2982  -12.3592 C   0  0  0  0  0  0  0  0  0  0  0  0
  -11.8702  -35.9537  -13.6643 C   0  0  0  0  0  0  0  0  0  0  0  0
  -11.1870  -35.0991  -11.4382 C   0  0  0  0  0  0  0  0  0  0  0  0
   -9.7527  -36.6845  -12.6211 C   0  0  0  0  0  0  0  0  0  0  0  0
  2  1  1  1
  2  3  1  0
  3  4  1  0
  4  5  1  0
  5  6  1  0
  6  7  1  0
  7  8  1  0
  8  9  1  0
  9 10  1  0
 10 11  1  0
 11 12  1  0
 12 13  2  0
 13 14  1  0
 14 15  2  0
 15 16  1  0
 13 17  1  0
 17 18  2  0
 17 19  1  0
 19 20  1  0
 20 21  1  1
 20 22  1  0
 22 23  1  6
 22 24  1  0
 24 25  1  0
 25 26  1  0
 26 27  1  0
 27 28  1  0
 28 29  2  0
 29 30  1  0
 30 31  1  0
 29 32  1  0
 32 33  1  0
 32 34  1  0
 32 35  1  0
 16 11  2  0
 21  2  1  0
 31 27  2  0
M  END
$$$$
