
     RDKit          3D

 35 37  0  0  0  0  0  0  0  0999 V2000
  -18.6298  -37.1827   -8.4423 C   0  0  0  0  0  0  0  0  0  0  0  0
  -17.8090  -38.2231   -9.1252 C   0  0  2  0  0  0  0  0  0  0  0  0
  -18.2378  -38.2278  -10.6002 C   0  0  0  0  0  0  0  0  0  0  0  0
  -19.5980  -38.8757  -10.6300 C   0  0  0  0  0  0  0  0  0  0  0  0
  -20.4209  -38.5170  -11.8250 C   0  0  0  0  0  0  0  0  0  0  0  0
  -21.5938  -39.5102  -11.8484 C   0  0  0  0  0  0  0  0  0  0  0  0
  -22.4305  -39.4211  -10.6120 C   0  0  0  0  0  0  0  0  0  0  0  0
  -22.4171  -40.7205   -9.7960 C   0  0  0  0  0  0  0  0  0  0  0  0
  -23.7057  -40.8489   -9.0951 C   0  0  0  0  0  0  0  0  0  0  0  0
  -23.6240  -40.9098   -7.6450 N   0  0  0  0  0  0  0  0  0  0  0  0
  -22.5143  -40.8294   -6.7534 C   0  0  0  0  0  0  0  0  0  0  0  0
  -21.4210  -39.9863   -6.7034 C   0  0  0  0  0  0  0  0  0  0  0  0
  -20.4984  -40.1699   -5.6881 C   0  0  0  0  0  0  0  0  0  0  0  0
  -20.6934  -41.2056   -4.7302 C   0  0  0  0  0  0  0  0  0  0  0  0
  -21.7656  -42.0543   -4.7538 C   0  0  0  0  0  0  0  0  0  0  0  0
  -22.6542  -41.8475   -5.7662 C   0  0  0  0  0  0  0  0  0  0  0  0
  -19.2432  -39.4638   -5.3627 C   0  0  0  0  0  0  0  0  0  0  0  0
  -19.0797  -39.1656   -4.0856 O   0  0  0  0  0  0  0  0  0  0  0  0
  -18.1722  -39.0552   -6.2211 N   0  0  0  0  0  0  0  0  0  0  0  0
  -17.5435  -39.8558   -7.2246 C   0  0  1  0  0  0  0  0  0  0  0  0
  -18.0194  -39.6066   -8.6165 C   0  0  0  0  0  0  0  0  0  0  0  0
  -16.0301  -39.6021   -7.2016 C   0  0  2  0  0  0  0  0  0  0  0  0
  -15.7623  -38.4357   -6.4972 O   0  0  0  0  0  0  0  0  0  0  0  0
  -15.5059  -39.4790   -8.6251 C   0  0  0  0  0  0  0  0  0  0  0  0
  -14.4882  -40.4480   -8.9036 N   0  0  0  0  0  0  0  0  0  0  0  0
  -13.9060  -40.3099  -10.2043 C   0  0  0  0  0  0  0  0  0  0  0  0
  -13.4774  -38.8916  -10.4655 C   0  0  0  0  0  0  0  0  0  0  0  0
  -13.8154  -38.0875  -11.5393 C   0  0  0  0  0  0  0  0  0  0  0  0
  -13.2074  -36.8611  -11.3863 C   0  0  0  0  0  0  0  0  0  0  0  0
  -12.5157  -36.9392  -10.2317 N   0  0  0  0  0  0  0  0  0  0  0  0
  -12.6722  -38.1334   -9.6865 N   0  0  0  0  0  0  0  0  0  0  0  0
  -13.3276  -35.7259  -12.3329 C   0  0  0  0  0  0  0  0  0  0  0  0
  -14.3623  -34.7311  -11.8588 C   0  0  0  0  0  0  0  0  0  0  0  0
  -11.9868  -35.0471  -12.4988 C   0  0  0  0  0  0  0  0  0  0  0  0
  -13.7349  -36.2820  -13.6775 C   0  0  0  0  0  0  0  0  0  0  0  0
  2  1  1  1
  2  3  1  0
  3  4  1  0
  4  5  1  0
  5  6  1  0
  6  7  1  0
  7  8  1  0
  8  9  1  0
  9 10  1  0
 10 11  1  0
 11 12  1  0
 12 13  2  0
 13 14  1  0
 14 15  2  0
 15 16  1  0
 13 17  1  0
 17 18  2  0
 17 19  1  0
 19 20  1  0
 20 21  1  6
 20 22  1  0
 22 23  1  1
 22 24  1  0
 24 25  1  0
 25 26  1  0
 26 27  1  0
 27 28  1  0
 28 29  2  0
 29 30  1  0
 30 31  1  0
 29 32  1  0
 32 33  1  0
 32 34  1  0
 32 35  1  0
 16 11  2  0
 21  2  1  0
 31 27  2  0
M  END
$$$$
