
     RDKit          3D

 35 37  0  0  0  0  0  0  0  0999 V2000
  -15.8591  -36.5455  -10.7836 C   0  0  0  0  0  0  0  0  0  0  0  0
  -14.8606  -36.6600   -9.6825 C   0  0  2  0  0  0  0  0  0  0  0  0
  -13.6438  -35.8201  -10.0988 C   0  0  0  0  0  0  0  0  0  0  0  0
  -12.9567  -36.6045  -11.1867 C   0  0  0  0  0  0  0  0  0  0  0  0
  -12.0992  -35.7775  -12.0893 C   0  0  0  0  0  0  0  0  0  0  0  0
  -11.2425  -36.7706  -12.8909 C   0  0  0  0  0  0  0  0  0  0  0  0
  -12.0793  -37.7061  -13.7041 C   0  0  0  0  0  0  0  0  0  0  0  0
  -11.9113  -39.1703  -13.2771 C   0  0  0  0  0  0  0  0  0  0  0  0
  -12.1159  -40.0301  -14.4549 C   0  0  0  0  0  0  0  0  0  0  0  0
  -13.2052  -40.9867  -14.3475 N   0  0  0  0  0  0  0  0  0  0  0  0
  -14.1555  -41.2296  -13.3129 C   0  0  0  0  0  0  0  0  0  0  0  0
  -14.9251  -40.3821  -12.5396 C   0  0  0  0  0  0  0  0  0  0  0  0
  -15.7717  -40.9419  -11.5986 C   0  0  0  0  0  0  0  0  0  0  0  0
  -15.8328  -42.3572  -11.4512 C   0  0  0  0  0  0  0  0  0  0  0  0
  -15.0842  -43.2206  -12.2025 C   0  0  0  0  0  0  0  0  0  0  0  0
  -14.2607  -42.6374  -13.1184 C   0  0  0  0  0  0  0  0  0  0  0  0
  -16.7002  -40.3312  -10.6265 C   0  0  0  0  0  0  0  0  0  0  0  0
  -17.8929  -40.8960  -10.5557 O   0  0  0  0  0  0  0  0  0  0  0  0
  -16.5037  -39.2202   -9.7445 N   0  0  0  0  0  0  0  0  0  0  0  0
  -15.3688  -39.0016   -8.9034 C   0  0  1  0  0  0  0  0  0  0  0  0
  -14.3618  -38.0425   -9.4437 C   0  0  0  0  0  0  0  0  0  0  0  0
  -15.8395  -38.4614   -7.5463 C   0  0  2  0  0  0  0  0  0  0  0  0
  -14.8650  -38.6982   -6.5856 O   0  0  0  0  0  0  0  0  0  0  0  0
  -17.1399  -39.1415   -7.1431 C   0  0  0  0  0  0  0  0  0  0  0  0
  -18.2639  -38.2634   -7.2765 N   0  0  0  0  0  0  0  0  0  0  0  0
  -19.2280  -38.4031   -6.2272 C   0  0  0  0  0  0  0  0  0  0  0  0
  -20.0895  -39.6192   -6.4326 C   0  0  0  0  0  0  0  0  0  0  0  0
  -20.9038  -40.2479   -5.5076 C   0  0  0  0  0  0  0  0  0  0  0  0
  -21.5156  -41.3242   -6.1114 C   0  0  0  0  0  0  0  0  0  0  0  0
  -21.0670  -41.3320   -7.3827 N   0  0  0  0  0  0  0  0  0  0  0  0
  -20.2270  -40.3295   -7.5758 N   0  0  0  0  0  0  0  0  0  0  0  0
  -22.4650  -42.2489   -5.4458 C   0  0  0  0  0  0  0  0  0  0  0  0
  -23.8910  -41.7768   -5.6149 C   0  0  0  0  0  0  0  0  0  0  0  0
  -22.3059  -43.6441   -6.0060 C   0  0  0  0  0  0  0  0  0  0  0  0
  -22.1156  -42.2969   -3.9766 C   0  0  0  0  0  0  0  0  0  0  0  0
  2  1  1  6
  2  3  1  0
  3  4  1  0
  4  5  1  0
  5  6  1  0
  6  7  1  0
  7  8  1  0
  8  9  1  0
  9 10  1  0
 10 11  1  0
 11 12  1  0
 12 13  2  0
 13 14  1  0
 14 15  2  0
 15 16  1  0
 13 17  1  0
 17 18  2  0
 17 19  1  0
 19 20  1  0
 20 21  1  6
 20 22  1  0
 22 23  1  1
 22 24  1  0
 24 25  1  0
 25 26  1  0
 26 27  1  0
 27 28  1  0
 28 29  2  0
 29 30  1  0
 30 31  1  0
 29 32  1  0
 32 33  1  0
 32 34  1  0
 32 35  1  0
 16 11  2  0
 21  2  1  0
 31 27  2  0
M  END
$$$$
