
     RDKit          3D

 35 37  0  0  0  0  0  0  0  0999 V2000
  -19.6787  -37.6148   -7.4928 C   0  0  0  0  0  0  0  0  0  0  0  0
  -18.6121  -37.4320   -8.5182 C   0  0  2  0  0  0  0  0  0  0  0  0
  -19.2375  -36.6308   -9.6699 C   0  0  0  0  0  0  0  0  0  0  0  0
  -20.1560  -37.5883  -10.3844 C   0  0  0  0  0  0  0  0  0  0  0  0
  -21.2416  -36.9250  -11.1688 C   0  0  0  0  0  0  0  0  0  0  0  0
  -21.8417  -38.0147  -12.0717 C   0  0  0  0  0  0  0  0  0  0  0  0
  -22.4093  -39.1502  -11.2809 C   0  0  0  0  0  0  0  0  0  0  0  0
  -21.6866  -40.4765  -11.5513 C   0  0  0  0  0  0  0  0  0  0  0  0
  -22.6473  -41.5791  -11.3792 C   0  0  0  0  0  0  0  0  0  0  0  0
  -22.3031  -42.5527  -10.3560 N   0  0  0  0  0  0  0  0  0  0  0  0
  -21.2095  -42.6237   -9.4440 C   0  0  0  0  0  0  0  0  0  0  0  0
  -20.6090  -41.6768   -8.6370 C   0  0  0  0  0  0  0  0  0  0  0  0
  -19.5431  -42.0708   -7.8469 C   0  0  0  0  0  0  0  0  0  0  0  0
  -19.0962  -43.4227   -7.8800 C   0  0  0  0  0  0  0  0  0  0  0  0
  -19.6712  -44.3816   -8.6677 C   0  0  0  0  0  0  0  0  0  0  0  0
  -20.7169  -43.9608   -9.4336 C   0  0  0  0  0  0  0  0  0  0  0  0
  -18.6928  -41.3216   -6.9005 C   0  0  0  0  0  0  0  0  0  0  0  0
  -18.4641  -41.9271   -5.7483 O   0  0  0  0  0  0  0  0  0  0  0  0
  -18.0740  -40.0379   -7.0425 N   0  0  0  0  0  0  0  0  0  0  0  0
  -17.3367  -39.5780   -8.1774 C   0  0  1  0  0  0  0  0  0  0  0  0
  -18.1015  -38.6995   -9.1096 C   0  0  0  0  0  0  0  0  0  0  0  0
  -16.1106  -38.7882   -7.6999 C   0  0  2  0  0  0  0  0  0  0  0  0
  -16.1792  -37.4855   -8.1762 O   0  0  0  0  0  0  0  0  0  0  0  0
  -14.8388  -39.4565   -8.2021 C   0  0  0  0  0  0  0  0  0  0  0  0
  -14.6583  -40.7568   -7.6286 N   0  0  0  0  0  0  0  0  0  0  0  0
  -14.4946  -41.7944   -8.6015 C   0  0  0  0  0  0  0  0  0  0  0  0
  -13.5115  -41.3958   -9.6682 C   0  0  0  0  0  0  0  0  0  0  0  0
  -13.7799  -40.8141  -10.8944 C   0  0  0  0  0  0  0  0  0  0  0  0
  -12.5919  -40.6148  -11.5625 C   0  0  0  0  0  0  0  0  0  0  0  0
  -11.6291  -41.0747  -10.7384 N   0  0  0  0  0  0  0  0  0  0  0  0
  -12.1667  -41.5355   -9.6219 N   0  0  0  0  0  0  0  0  0  0  0  0
  -12.4631  -40.0120  -12.9113 C   0  0  0  0  0  0  0  0  0  0  0  0
  -11.8215  -38.6454  -12.8360 C   0  0  0  0  0  0  0  0  0  0  0  0
  -11.6540  -40.9211  -13.8084 C   0  0  0  0  0  0  0  0  0  0  0  0
  -13.8487  -39.8919  -13.5019 C   0  0  0  0  0  0  0  0  0  0  0  0
  2  1  1  1
  2  3  1  0
  3  4  1  0
  4  5  1  0
  5  6  1  0
  6  7  1  0
  7  8  1  0
  8  9  1  0
  9 10  1  0
 10 11  1  0
 11 12  1  0
 12 13  2  0
 13 14  1  0
 14 15  2  0
 15 16  1  0
 13 17  1  0
 17 18  2  0
 17 19  1  0
 19 20  1  0
 20 21  1  6
 20 22  1  0
 22 23  1  6
 22 24  1  0
 24 25  1  0
 25 26  1  0
 26 27  1  0
 27 28  1  0
 28 29  2  0
 29 30  1  0
 30 31  1  0
 29 32  1  0
 32 33  1  0
 32 34  1  0
 32 35  1  0
 16 11  2  0
 21  2  1  0
 31 27  2  0
M  END
$$$$
