
     RDKit          3D

 35 37  0  0  0  0  0  0  0  0999 V2000
  -18.7497  -39.2166   -4.8356 C   0  0  0  0  0  0  0  0  0  0  0  0
  -19.1418  -38.5008   -6.0832 C   0  0  2  0  0  0  0  0  0  0  0  0
  -20.5643  -37.9665   -5.8588 C   0  0  0  0  0  0  0  0  0  0  0  0
  -21.4698  -39.1692   -5.9260 C   0  0  0  0  0  0  0  0  0  0  0  0
  -22.7781  -38.9904   -5.2259 C   0  0  0  0  0  0  0  0  0  0  0  0
  -23.6693  -40.1560   -5.6838 C   0  0  0  0  0  0  0  0  0  0  0  0
  -23.0825  -41.4852   -5.3292 C   0  0  0  0  0  0  0  0  0  0  0  0
  -22.7495  -42.3314   -6.5651 C   0  0  0  0  0  0  0  0  0  0  0  0
  -22.8905  -43.7542   -6.2127 C   0  0  0  0  0  0  0  0  0  0  0  0
  -21.6872  -44.5561   -6.3617 N   0  0  0  0  0  0  0  0  0  0  0  0
  -20.3610  -44.2121   -6.7561 C   0  0  0  0  0  0  0  0  0  0  0  0
  -19.5288  -43.1663   -6.4065 C   0  0  0  0  0  0  0  0  0  0  0  0
  -18.2687  -43.1134   -6.9766 C   0  0  0  0  0  0  0  0  0  0  0  0
  -17.8618  -44.1232   -7.8948 C   0  0  0  0  0  0  0  0  0  0  0  0
  -18.6629  -45.1701   -8.2589 C   0  0  0  0  0  0  0  0  0  0  0  0
  -19.8969  -45.1920   -7.6808 C   0  0  0  0  0  0  0  0  0  0  0  0
  -17.1635  -42.1456   -6.8276 C   0  0  0  0  0  0  0  0  0  0  0  0
  -15.9649  -42.6797   -6.6705 O   0  0  0  0  0  0  0  0  0  0  0  0
  -17.1921  -40.7139   -6.8309 N   0  0  0  0  0  0  0  0  0  0  0  0
  -17.8830  -39.8864   -7.7696 C   0  0  1  0  0  0  0  0  0  0  0  0
  -19.1972  -39.3620   -7.2967 C   0  0  0  0  0  0  0  0  0  0  0  0
  -17.0046  -38.6791   -8.1246 C   0  0  2  0  0  0  0  0  0  0  0  0
  -17.7218  -37.7981   -8.9235 O   0  0  0  0  0  0  0  0  0  0  0  0
  -15.7574  -39.1470   -8.8606 C   0  0  0  0  0  0  0  0  0  0  0  0
  -16.0821  -39.8381  -10.0728 N   0  0  0  0  0  0  0  0  0  0  0  0
  -14.9534  -40.4573  -10.6994 C   0  0  0  0  0  0  0  0  0  0  0  0
  -14.0628  -39.4376  -11.3556 C   0  0  0  0  0  0  0  0  0  0  0  0
  -14.3029  -38.0859  -11.5257 C   0  0  0  0  0  0  0  0  0  0  0  0
  -13.2279  -37.5208  -12.1756 C   0  0  0  0  0  0  0  0  0  0  0  0
  -12.3594  -38.5298  -12.3879 N   0  0  0  0  0  0  0  0  0  0  0  0
  -12.8475  -39.6602  -11.9065 N   0  0  0  0  0  0  0  0  0  0  0  0
  -13.1088  -36.0881  -12.5396 C   0  0  0  0  0  0  0  0  0  0  0  0
  -11.7325  -35.5569  -12.2098 C   0  0  0  0  0  0  0  0  0  0  0  0
  -13.4023  -35.9027  -14.0112 C   0  0  0  0  0  0  0  0  0  0  0  0
  -14.1508  -35.3212  -11.7592 C   0  0  0  0  0  0  0  0  0  0  0  0
  2  1  1  1
  2  3  1  0
  3  4  1  0
  4  5  1  0
  5  6  1  0
  6  7  1  0
  7  8  1  0
  8  9  1  0
  9 10  1  0
 10 11  1  0
 11 12  1  0
 12 13  2  0
 13 14  1  0
 14 15  2  0
 15 16  1  0
 13 17  1  0
 17 18  2  0
 17 19  1  0
 19 20  1  0
 20 21  1  1
 20 22  1  0
 22 23  1  6
 22 24  1  0
 24 25  1  0
 25 26  1  0
 26 27  1  0
 27 28  1  0
 28 29  2  0
 29 30  1  0
 30 31  1  0
 29 32  1  0
 32 33  1  0
 32 34  1  0
 32 35  1  0
 16 11  2  0
 21  2  1  0
 31 27  2  0
M  END
$$$$
