
     RDKit          3D

 41 44  0  0  0  0  0  0  0  0999 V2000
  -20.0293  -47.9851   -7.3396 C   0  0  0  0  0  0  0  0  0  0  0  0
  -19.3959  -47.0582   -8.1777 O   0  0  0  0  0  0  0  0  0  0  0  0
  -20.3250  -46.6189   -9.1182 C   0  0  0  0  0  0  0  0  0  0  0  0
  -20.1668  -45.1422   -9.1844 C   0  0  0  0  0  0  0  0  0  0  0  0
  -21.1914  -44.3162   -9.5635 C   0  0  0  0  0  0  0  0  0  0  0  0
  -21.0687  -42.9033   -9.6405 C   0  0  0  0  0  0  0  0  0  0  0  0
  -19.8663  -42.3154   -9.3228 C   0  0  0  0  0  0  0  0  0  0  0  0
  -18.8008  -43.1008   -8.9321 C   0  0  0  0  0  0  0  0  0  0  0  0
  -18.9950  -44.5119   -8.8775 C   0  0  0  0  0  0  0  0  0  0  0  0
  -17.4376  -42.7566   -8.5241 C   0  0  0  0  0  0  0  0  0  0  0  0
  -16.4798  -43.6527   -8.8129 O   0  0  0  0  0  0  0  0  0  0  0  0
  -16.8353  -41.6658   -7.8649 N   0  0  0  0  0  0  0  0  0  0  0  0
  -16.5926  -40.3104   -8.3278 C   0  0  1  0  0  0  0  0  0  0  0  0
  -17.1099  -39.9624   -9.6633 C   0  0  0  0  0  0  0  0  0  0  0  0
  -18.0079  -38.7875   -9.8598 C   0  0  0  0  0  0  0  0  0  0  0  0
  -19.2586  -38.5277   -9.3596 C   0  0  0  0  0  0  0  0  0  0  0  0
  -19.9362  -37.4045   -9.7978 C   0  0  0  0  0  0  0  0  0  0  0  0
  -19.3489  -36.5450  -10.7242 C   0  0  0  0  0  0  0  0  0  0  0  0
  -18.0980  -36.7528  -11.2528 C   0  0  0  0  0  0  0  0  0  0  0  0
  -17.4649  -37.8776  -10.7995 C   0  0  0  0  0  0  0  0  0  0  0  0
  -21.2121  -36.9776   -9.4327 O   0  0  0  0  0  0  0  0  0  0  0  0
  -22.4795  -37.6102   -9.6066 C   0  0  0  0  0  0  0  0  0  0  0  0
  -22.4650  -38.7374  -10.5932 C   0  0  0  0  0  0  0  0  0  0  0  0
  -23.0086  -39.9881   -9.9473 C   0  0  0  0  0  0  0  0  0  0  0  0
  -22.6750  -41.1843  -10.8207 C   0  0  0  0  0  0  0  0  0  0  0  0
  -22.3244  -42.3426  -10.0262 N   0  0  0  0  0  0  0  0  0  0  0  0
  -16.8730  -39.2672   -7.2450 C   0  0  2  0  0  0  0  0  0  0  0  0
  -16.2057  -38.0902   -7.5534 O   0  0  0  0  0  0  0  0  0  0  0  0
  -16.4902  -39.7405   -5.8945 C   0  0  0  0  0  0  0  0  0  0  0  0
  -16.7779  -41.0564   -5.5045 N   0  0  0  0  0  0  0  0  0  0  0  0
  -16.5010  -41.5407   -4.2109 C   0  0  0  0  0  0  0  0  0  0  0  0
  -17.6549  -41.9938   -3.4149 C   0  0  0  0  0  0  0  0  0  0  0  0
  -18.3377  -41.4052   -2.3866 C   0  0  0  0  0  0  0  0  0  0  0  0
  -19.3472  -42.2477   -1.9818 C   0  0  0  0  0  0  0  0  0  0  0  0
  -20.3356  -42.0436   -0.9141 C   0  0  0  0  0  0  0  0  0  0  0  0
  -21.4956  -41.1780   -1.3680 C   0  0  0  0  0  0  0  0  0  0  0  0
  -21.0101  -39.7657   -1.5831 C   0  0  0  0  0  0  0  0  0  0  0  0
  -22.0341  -41.6822   -2.7114 C   0  0  0  0  0  0  0  0  0  0  0  0
  -22.6549  -41.2029   -0.3978 C   0  0  0  0  0  0  0  0  0  0  0  0
  -19.2475  -43.3131   -2.7704 O   0  0  0  0  0  0  0  0  0  0  0  0
  -18.2655  -43.1776   -3.6096 N   0  0  0  0  0  0  0  0  0  0  0  0
  1  2  1  0
  2  3  1  0
  3  4  1  0
  4  5  2  0
  5  6  1  0
  6  7  2  0
  7  8  1  0
  8  9  2  0
  8 10  1  0
 10 11  2  0
 10 12  1  0
 12 13  1  0
 13 14  1  6
 14 15  1  0
 15 16  2  0
 16 17  1  0
 17 18  2  0
 18 19  1  0
 19 20  2  0
 17 21  1  0
 21 22  1  0
 22 23  1  0
 23 24  1  0
 24 25  1  0
 25 26  1  0
 13 27  1  0
 27 28  1  6
 27 29  1  0
 29 30  1  0
 30 31  1  0
 31 32  1  0
 32 33  1  0
 33 34  2  0
 34 35  1  0
 35 36  1  0
 36 37  1  0
 36 38  1  0
 36 39  1  0
 34 40  1  0
 40 41  1  0
  9  4  1  0
 20 15  1  0
 26  6  1  0
 41 32  2  0
M  END
$$$$
