
     RDKit          3D

 41 44  0  0  0  0  0  0  0  0999 V2000
  -17.5702  -35.4936  -14.9581 C   0  0  0  0  0  0  0  0  0  0  0  0
  -18.6686  -35.8976  -14.1882 O   0  0  0  0  0  0  0  0  0  0  0  0
  -18.8613  -37.2623  -14.3910 C   0  0  0  0  0  0  0  0  0  0  0  0
  -19.1762  -37.8300  -13.0537 C   0  0  0  0  0  0  0  0  0  0  0  0
  -20.3270  -38.5327  -12.8133 C   0  0  0  0  0  0  0  0  0  0  0  0
  -20.6568  -39.0825  -11.5460 C   0  0  0  0  0  0  0  0  0  0  0  0
  -19.7888  -38.9102  -10.4928 C   0  0  0  0  0  0  0  0  0  0  0  0
  -18.6131  -38.2119  -10.6801 C   0  0  0  0  0  0  0  0  0  0  0  0
  -18.3467  -37.6873  -11.9785 C   0  0  0  0  0  0  0  0  0  0  0  0
  -17.5139  -37.8962   -9.7661 C   0  0  0  0  0  0  0  0  0  0  0  0
  -16.8638  -36.7415   -9.9847 O   0  0  0  0  0  0  0  0  0  0  0  0
  -16.9246  -38.5292   -8.6530 N   0  0  0  0  0  0  0  0  0  0  0  0
  -17.4351  -38.7215   -7.3067 C   0  0  1  0  0  0  0  0  0  0  0  0
  -18.8114  -38.2626   -7.0467 C   0  0  0  0  0  0  0  0  0  0  0  0
  -19.8371  -39.1851   -6.4790 C   0  0  0  0  0  0  0  0  0  0  0  0
  -20.3694  -40.3449   -6.9825 C   0  0  0  0  0  0  0  0  0  0  0  0
  -21.4088  -40.9554   -6.3048 C   0  0  0  0  0  0  0  0  0  0  0  0
  -21.8972  -40.4046   -5.1215 C   0  0  0  0  0  0  0  0  0  0  0  0
  -21.3981  -39.2500   -4.5692 C   0  0  0  0  0  0  0  0  0  0  0  0
  -20.3767  -38.6737   -5.2736 C   0  0  0  0  0  0  0  0  0  0  0  0
  -22.0957  -42.1163   -6.6569 O   0  0  0  0  0  0  0  0  0  0  0  0
  -22.8930  -42.4017   -7.8056 C   0  0  0  0  0  0  0  0  0  0  0  0
  -23.3004  -41.1853   -8.5793 C   0  0  0  0  0  0  0  0  0  0  0  0
  -22.8840  -41.3347  -10.0219 C   0  0  0  0  0  0  0  0  0  0  0  0
  -22.9838  -39.9854  -10.7107 C   0  0  0  0  0  0  0  0  0  0  0  0
  -21.8974  -39.7831  -11.6459 N   0  0  0  0  0  0  0  0  0  0  0  0
  -17.1130  -40.1115   -6.7557 C   0  0  2  0  0  0  0  0  0  0  0  0
  -17.0528  -40.0571   -5.3704 O   0  0  0  0  0  0  0  0  0  0  0  0
  -15.8514  -40.6575   -7.3076 C   0  0  0  0  0  0  0  0  0  0  0  0
  -14.7442  -39.8168   -7.4918 N   0  0  0  0  0  0  0  0  0  0  0  0
  -13.7753  -40.0476   -8.4881 C   0  0  0  0  0  0  0  0  0  0  0  0
  -13.8877  -39.2426   -9.7168 C   0  0  0  0  0  0  0  0  0  0  0  0
  -14.0541  -39.6002  -11.0262 C   0  0  0  0  0  0  0  0  0  0  0  0
  -14.1012  -38.4614  -11.7968 C   0  0  0  0  0  0  0  0  0  0  0  0
  -14.2660  -38.3484  -13.2524 C   0  0  0  0  0  0  0  0  0  0  0  0
  -12.9744  -37.9559  -13.9443 C   0  0  0  0  0  0  0  0  0  0  0  0
  -12.9046  -36.4528  -14.0551 C   0  0  0  0  0  0  0  0  0  0  0  0
  -11.7716  -38.4055  -13.1075 C   0  0  0  0  0  0  0  0  0  0  0  0
  -12.8235  -38.6000  -15.3038 C   0  0  0  0  0  0  0  0  0  0  0  0
  -13.9635  -37.4555  -10.9388 O   0  0  0  0  0  0  0  0  0  0  0  0
  -13.8382  -37.8973   -9.7238 N   0  0  0  0  0  0  0  0  0  0  0  0
  1  2  1  0
  2  3  1  0
  3  4  1  0
  4  5  2  0
  5  6  1  0
  6  7  2  0
  7  8  1  0
  8  9  2  0
  8 10  1  0
 10 11  2  0
 10 12  1  0
 12 13  1  0
 13 14  1  6
 14 15  1  0
 15 16  2  0
 16 17  1  0
 17 18  2  0
 18 19  1  0
 19 20  2  0
 17 21  1  0
 21 22  1  0
 22 23  1  0
 23 24  1  0
 24 25  1  0
 25 26  1  0
 13 27  1  0
 27 28  1  1
 27 29  1  0
 29 30  1  0
 30 31  1  0
 31 32  1  0
 32 33  1  0
 33 34  2  0
 34 35  1  0
 35 36  1  0
 36 37  1  0
 36 38  1  0
 36 39  1  0
 34 40  1  0
 40 41  1  0
  9  4  1  0
 20 15  1  0
 26  6  1  0
 41 32  2  0
M  END
$$$$
