
     RDKit          3D

 41 44  0  0  0  0  0  0  0  0999 V2000
  -17.7297  -48.8809   -7.9263 C   0  0  0  0  0  0  0  0  0  0  0  0
  -18.6879  -48.0046   -7.4003 O   0  0  0  0  0  0  0  0  0  0  0  0
  -19.3751  -47.4247   -8.4643 C   0  0  0  0  0  0  0  0  0  0  0  0
  -19.5513  -45.9941   -8.1009 C   0  0  0  0  0  0  0  0  0  0  0  0
  -20.6000  -45.5613   -7.3334 C   0  0  0  0  0  0  0  0  0  0  0  0
  -20.7967  -44.2014   -6.9742 C   0  0  0  0  0  0  0  0  0  0  0  0
  -19.8991  -43.2549   -7.4108 C   0  0  0  0  0  0  0  0  0  0  0  0
  -18.8224  -43.6364   -8.1854 C   0  0  0  0  0  0  0  0  0  0  0  0
  -18.6873  -45.0183   -8.5081 C   0  0  0  0  0  0  0  0  0  0  0  0
  -17.7192  -42.8667   -8.7630 C   0  0  0  0  0  0  0  0  0  0  0  0
  -17.2177  -43.3152   -9.9254 O   0  0  0  0  0  0  0  0  0  0  0  0
  -17.0029  -41.7108   -8.3915 N   0  0  0  0  0  0  0  0  0  0  0  0
  -17.4156  -40.3181   -8.3772 C   0  0  1  0  0  0  0  0  0  0  0  0
  -18.8193  -40.0380   -8.7282 C   0  0  0  0  0  0  0  0  0  0  0  0
  -19.7013  -39.2565   -7.8135 C   0  0  0  0  0  0  0  0  0  0  0  0
  -20.1239  -39.5263   -6.5365 C   0  0  0  0  0  0  0  0  0  0  0  0
  -21.0493  -38.6860   -5.9448 C   0  0  0  0  0  0  0  0  0  0  0  0
  -21.5335  -37.5756   -6.6337 C   0  0  0  0  0  0  0  0  0  0  0  0
  -21.1405  -37.2546   -7.9104 C   0  0  0  0  0  0  0  0  0  0  0  0
  -20.2306  -38.1142   -8.4622 C   0  0  0  0  0  0  0  0  0  0  0  0
  -21.6171  -38.7955   -4.6763 O   0  0  0  0  0  0  0  0  0  0  0  0
  -22.4368  -39.8228   -4.1201 C   0  0  0  0  0  0  0  0  0  0  0  0
  -23.0210  -40.7519   -5.1396 C   0  0  0  0  0  0  0  0  0  0  0  0
  -22.6679  -42.1774   -4.7929 C   0  0  0  0  0  0  0  0  0  0  0  0
  -22.9576  -43.0666   -5.9889 C   0  0  0  0  0  0  0  0  0  0  0  0
  -21.9529  -44.0975   -6.1420 N   0  0  0  0  0  0  0  0  0  0  0  0
  -16.9081  -39.5739   -7.1410 C   0  0  2  0  0  0  0  0  0  0  0  0
  -17.7412  -38.4963   -6.8759 O   0  0  0  0  0  0  0  0  0  0  0  0
  -15.5064  -39.1193   -7.2934 C   0  0  0  0  0  0  0  0  0  0  0  0
  -15.0622  -38.6149   -8.5242 N   0  0  0  0  0  0  0  0  0  0  0  0
  -14.4209  -39.4203   -9.4858 C   0  0  0  0  0  0  0  0  0  0  0  0
  -14.3067  -38.8615  -10.8442 C   0  0  0  0  0  0  0  0  0  0  0  0
  -13.9388  -37.6221  -11.2898 C   0  0  0  0  0  0  0  0  0  0  0  0
  -13.9947  -37.6078  -12.6644 C   0  0  0  0  0  0  0  0  0  0  0  0
  -13.6896  -36.5004  -13.5804 C   0  0  0  0  0  0  0  0  0  0  0  0
  -12.3569  -36.6890  -14.2800 C   0  0  0  0  0  0  0  0  0  0  0  0
  -11.2520  -36.7049  -13.2526 C   0  0  0  0  0  0  0  0  0  0  0  0
  -12.3271  -38.0421  -14.9993 C   0  0  0  0  0  0  0  0  0  0  0  0
  -12.0959  -35.6326  -15.3296 C   0  0  0  0  0  0  0  0  0  0  0  0
  -14.3912  -38.8290  -13.0085 O   0  0  0  0  0  0  0  0  0  0  0  0
  -14.5765  -39.5690  -11.9573 N   0  0  0  0  0  0  0  0  0  0  0  0
  1  2  1  0
  2  3  1  0
  3  4  1  0
  4  5  2  0
  5  6  1  0
  6  7  2  0
  7  8  1  0
  8  9  2  0
  8 10  1  0
 10 11  2  0
 10 12  1  0
 12 13  1  0
 13 14  1  1
 14 15  1  0
 15 16  2  0
 16 17  1  0
 17 18  2  0
 18 19  1  0
 19 20  2  0
 17 21  1  0
 21 22  1  0
 22 23  1  0
 23 24  1  0
 24 25  1  0
 25 26  1  0
 13 27  1  0
 27 28  1  6
 27 29  1  0
 29 30  1  0
 30 31  1  0
 31 32  1  0
 32 33  1  0
 33 34  2  0
 34 35  1  0
 35 36  1  0
 36 37  1  0
 36 38  1  0
 36 39  1  0
 34 40  1  0
 40 41  1  0
  9  4  1  0
 20 15  1  0
 26  6  1  0
 41 32  2  0
M  END
$$$$
