
     RDKit          3D

 41 44  0  0  0  0  0  0  0  0999 V2000
  -17.2126  -48.7788   -9.3552 C   0  0  0  0  0  0  0  0  0  0  0  0
  -17.6367  -47.8002   -8.4469 O   0  0  0  0  0  0  0  0  0  0  0  0
  -19.0083  -47.6208   -8.6125 C   0  0  0  0  0  0  0  0  0  0  0  0
  -19.2754  -46.1998   -8.2672 C   0  0  0  0  0  0  0  0  0  0  0  0
  -20.3856  -45.8180   -7.5617 C   0  0  0  0  0  0  0  0  0  0  0  0
  -20.6694  -44.4686   -7.2213 C   0  0  0  0  0  0  0  0  0  0  0  0
  -19.7969  -43.4796   -7.6123 C   0  0  0  0  0  0  0  0  0  0  0  0
  -18.6610  -43.8089   -8.3237 C   0  0  0  0  0  0  0  0  0  0  0  0
  -18.4395  -45.1832   -8.6309 C   0  0  0  0  0  0  0  0  0  0  0  0
  -17.5668  -42.9866   -8.8431 C   0  0  0  0  0  0  0  0  0  0  0  0
  -16.9794  -43.4126   -9.9732 O   0  0  0  0  0  0  0  0  0  0  0  0
  -16.9307  -41.7955   -8.4385 N   0  0  0  0  0  0  0  0  0  0  0  0
  -17.4122  -40.4251   -8.4547 C   0  0  1  0  0  0  0  0  0  0  0  0
  -18.8063  -40.2163   -8.8850 C   0  0  0  0  0  0  0  0  0  0  0  0
  -19.7758  -39.4774   -8.0250 C   0  0  0  0  0  0  0  0  0  0  0  0
  -20.2553  -39.7646   -6.7721 C   0  0  0  0  0  0  0  0  0  0  0  0
  -21.2528  -38.9700   -6.2374 C   0  0  0  0  0  0  0  0  0  0  0  0
  -21.7523  -37.8869   -6.9583 C   0  0  0  0  0  0  0  0  0  0  0  0
  -21.3050  -37.5501   -8.2128 C   0  0  0  0  0  0  0  0  0  0  0  0
  -20.3241  -38.3647   -8.7084 C   0  0  0  0  0  0  0  0  0  0  0  0
  -21.8846  -39.1044   -5.0020 O   0  0  0  0  0  0  0  0  0  0  0  0
  -22.6820  -40.1698   -4.4868 C   0  0  0  0  0  0  0  0  0  0  0  0
  -23.1615  -41.1296   -5.5322 C   0  0  0  0  0  0  0  0  0  0  0  0
  -22.7579  -42.5348   -5.1587 C   0  0  0  0  0  0  0  0  0  0  0  0
  -22.9358  -43.4405   -6.3642 C   0  0  0  0  0  0  0  0  0  0  0  0
  -21.8740  -44.4204   -6.4554 N   0  0  0  0  0  0  0  0  0  0  0  0
  -17.0122  -39.6532   -7.1962 C   0  0  2  0  0  0  0  0  0  0  0  0
  -17.8190  -38.5318   -7.0659 O   0  0  0  0  0  0  0  0  0  0  0  0
  -15.5828  -39.2644   -7.2047 C   0  0  0  0  0  0  0  0  0  0  0  0
  -14.6323  -40.0986   -7.8105 N   0  0  0  0  0  0  0  0  0  0  0  0
  -14.7213  -40.4935   -9.1598 C   0  0  0  0  0  0  0  0  0  0  0  0
  -14.1906  -39.5507  -10.1597 C   0  0  0  0  0  0  0  0  0  0  0  0
  -13.4733  -38.3939  -10.0281 C   0  0  0  0  0  0  0  0  0  0  0  0
  -13.2188  -37.8822  -11.2796 C   0  0  0  0  0  0  0  0  0  0  0  0
  -12.4856  -36.6599  -11.6360 C   0  0  0  0  0  0  0  0  0  0  0  0
  -13.2537  -35.8009  -12.6226 C   0  0  0  0  0  0  0  0  0  0  0  0
  -14.6655  -35.6111  -12.1255 C   0  0  0  0  0  0  0  0  0  0  0  0
  -12.6154  -34.4107  -12.7180 C   0  0  0  0  0  0  0  0  0  0  0  0
  -13.2518  -36.3771  -14.0204 C   0  0  0  0  0  0  0  0  0  0  0  0
  -13.7843  -38.7372  -12.1259 O   0  0  0  0  0  0  0  0  0  0  0  0
  -14.3539  -39.7135  -11.4860 N   0  0  0  0  0  0  0  0  0  0  0  0
  1  2  1  0
  2  3  1  0
  3  4  1  0
  4  5  2  0
  5  6  1  0
  6  7  2  0
  7  8  1  0
  8  9  2  0
  8 10  1  0
 10 11  2  0
 10 12  1  0
 12 13  1  0
 13 14  1  1
 14 15  1  0
 15 16  2  0
 16 17  1  0
 17 18  2  0
 18 19  1  0
 19 20  2  0
 17 21  1  0
 21 22  1  0
 22 23  1  0
 23 24  1  0
 24 25  1  0
 25 26  1  0
 13 27  1  0
 27 28  1  6
 27 29  1  0
 29 30  1  0
 30 31  1  0
 31 32  1  0
 32 33  1  0
 33 34  2  0
 34 35  1  0
 35 36  1  0
 36 37  1  0
 36 38  1  0
 36 39  1  0
 34 40  1  0
 40 41  1  0
  9  4  1  0
 20 15  1  0
 26  6  1  0
 41 32  2  0
M  END
$$$$
