
     RDKit          3D

 41 44  0  0  0  0  0  0  0  0999 V2000
  -18.2848  -48.6092   -8.1646 C   0  0  0  0  0  0  0  0  0  0  0  0
  -17.7447  -47.7195   -7.2268 O   0  0  0  0  0  0  0  0  0  0  0  0
  -18.6924  -47.5172   -6.2259 C   0  0  0  0  0  0  0  0  0  0  0  0
  -19.0343  -46.0714   -6.2784 C   0  0  0  0  0  0  0  0  0  0  0  0
  -20.1634  -45.5681   -5.6887 C   0  0  0  0  0  0  0  0  0  0  0  0
  -20.5183  -44.1934   -5.7261 C   0  0  0  0  0  0  0  0  0  0  0  0
  -19.6991  -43.3061   -6.3847 C   0  0  0  0  0  0  0  0  0  0  0  0
  -18.5471  -43.7592   -6.9949 C   0  0  0  0  0  0  0  0  0  0  0  0
  -18.2532  -45.1519   -6.9179 C   0  0  0  0  0  0  0  0  0  0  0  0
  -17.4976  -43.0558   -7.7346 C   0  0  0  0  0  0  0  0  0  0  0  0
  -16.8881  -43.7443   -8.7134 O   0  0  0  0  0  0  0  0  0  0  0  0
  -16.9255  -41.7687   -7.6799 N   0  0  0  0  0  0  0  0  0  0  0  0
  -17.4788  -40.4814   -8.0633 C   0  0  1  0  0  0  0  0  0  0  0  0
  -18.8818  -40.4696   -8.5146 C   0  0  0  0  0  0  0  0  0  0  0  0
  -19.8893  -39.5739   -7.8758 C   0  0  0  0  0  0  0  0  0  0  0  0
  -20.3534  -39.5313   -6.5855 C   0  0  0  0  0  0  0  0  0  0  0  0
  -21.3918  -38.6725   -6.2743 C   0  0  0  0  0  0  0  0  0  0  0  0
  -21.9475  -37.8550   -7.2567 C   0  0  0  0  0  0  0  0  0  0  0  0
  -21.5181  -37.8521   -8.5616 C   0  0  0  0  0  0  0  0  0  0  0  0
  -20.4953  -38.7201   -8.8295 C   0  0  0  0  0  0  0  0  0  0  0  0
  -22.0161  -38.4957   -5.0405 O   0  0  0  0  0  0  0  0  0  0  0  0
  -22.7564  -39.4187   -4.2425 C   0  0  0  0  0  0  0  0  0  0  0  0
  -23.1840  -40.6511   -4.9790 C   0  0  0  0  0  0  0  0  0  0  0  0
  -22.7069  -41.8780   -4.2414 C   0  0  0  0  0  0  0  0  0  0  0  0
  -22.8362  -43.0868   -5.1508 C   0  0  0  0  0  0  0  0  0  0  0  0
  -21.7241  -43.9988   -4.9856 N   0  0  0  0  0  0  0  0  0  0  0  0
  -17.1206  -39.3753   -7.0694 C   0  0  2  0  0  0  0  0  0  0  0  0
  -17.5026  -38.1463   -7.5883 O   0  0  0  0  0  0  0  0  0  0  0  0
  -15.6787  -39.3683   -6.7302 C   0  0  0  0  0  0  0  0  0  0  0  0
  -14.7245  -39.6593   -7.7159 N   0  0  0  0  0  0  0  0  0  0  0  0
  -13.7227  -38.7438   -8.0939 C   0  0  0  0  0  0  0  0  0  0  0  0
  -14.0141  -37.8907   -9.2591 C   0  0  0  0  0  0  0  0  0  0  0  0
  -14.5808  -38.1702  -10.4719 C   0  0  0  0  0  0  0  0  0  0  0  0
  -14.6307  -37.0151  -11.2175 C   0  0  0  0  0  0  0  0  0  0  0  0
  -15.1526  -36.8267  -12.5779 C   0  0  0  0  0  0  0  0  0  0  0  0
  -14.0420  -36.6478  -13.5956 C   0  0  0  0  0  0  0  0  0  0  0  0
  -13.0863  -37.8114  -13.5009 C   0  0  0  0  0  0  0  0  0  0  0  0
  -14.6226  -36.6516  -15.0141 C   0  0  0  0  0  0  0  0  0  0  0  0
  -13.3068  -35.3370  -13.4302 C   0  0  0  0  0  0  0  0  0  0  0  0
  -14.0975  -36.0772  -10.4410 O   0  0  0  0  0  0  0  0  0  0  0  0
  -13.7342  -36.5745   -9.2974 N   0  0  0  0  0  0  0  0  0  0  0  0
  1  2  1  0
  2  3  1  0
  3  4  1  0
  4  5  2  0
  5  6  1  0
  6  7  2  0
  7  8  1  0
  8  9  2  0
  8 10  1  0
 10 11  2  0
 10 12  1  0
 12 13  1  0
 13 14  1  1
 14 15  1  0
 15 16  2  0
 16 17  1  0
 17 18  2  0
 18 19  1  0
 19 20  2  0
 17 21  1  0
 21 22  1  0
 22 23  1  0
 23 24  1  0
 24 25  1  0
 25 26  1  0
 13 27  1  0
 27 28  1  6
 27 29  1  0
 29 30  1  0
 30 31  1  0
 31 32  1  0
 32 33  1  0
 33 34  2  0
 34 35  1  0
 35 36  1  0
 36 37  1  0
 36 38  1  0
 36 39  1  0
 34 40  1  0
 40 41  1  0
  9  4  1  0
 20 15  1  0
 26  6  1  0
 41 32  2  0
M  END
$$$$
