
     RDKit          3D

 41 44  0  0  0  0  0  0  0  0999 V2000
  -16.7333  -48.0357   -8.3843 C   0  0  0  0  0  0  0  0  0  0  0  0
  -17.8623  -47.6293   -7.6612 O   0  0  0  0  0  0  0  0  0  0  0  0
  -18.8152  -47.1700   -8.5677 C   0  0  0  0  0  0  0  0  0  0  0  0
  -19.0977  -45.7630   -8.1801 C   0  0  0  0  0  0  0  0  0  0  0  0
  -20.1424  -45.4293   -7.3594 C   0  0  0  0  0  0  0  0  0  0  0  0
  -20.4394  -44.0945   -6.9758 C   0  0  0  0  0  0  0  0  0  0  0  0
  -19.6493  -43.0699   -7.4430 C   0  0  0  0  0  0  0  0  0  0  0  0
  -18.5817  -43.3500   -8.2716 C   0  0  0  0  0  0  0  0  0  0  0  0
  -18.3423  -44.7124   -8.6161 C   0  0  0  0  0  0  0  0  0  0  0  0
  -17.5784  -42.4825   -8.8913 C   0  0  0  0  0  0  0  0  0  0  0  0
  -17.0957  -42.8769  -10.0809 O   0  0  0  0  0  0  0  0  0  0  0  0
  -16.9485  -41.2712   -8.5405 N   0  0  0  0  0  0  0  0  0  0  0  0
  -17.4797  -39.9201   -8.4909 C   0  0  1  0  0  0  0  0  0  0  0  0
  -18.9176  -39.7613   -8.7726 C   0  0  0  0  0  0  0  0  0  0  0  0
  -19.8197  -39.0667   -7.8086 C   0  0  0  0  0  0  0  0  0  0  0  0
  -20.1559  -39.3817   -6.5165 C   0  0  0  0  0  0  0  0  0  0  0  0
  -21.1216  -38.6300   -5.8725 C   0  0  0  0  0  0  0  0  0  0  0  0
  -21.7329  -37.5612   -6.5252 C   0  0  0  0  0  0  0  0  0  0  0  0
  -21.4306  -37.1977   -7.8151 C   0  0  0  0  0  0  0  0  0  0  0  0
  -20.4767  -37.9703   -8.4188 C   0  0  0  0  0  0  0  0  0  0  0  0
  -21.6167  -38.7981   -4.5802 O   0  0  0  0  0  0  0  0  0  0  0  0
  -22.3164  -39.8972   -3.9980 C   0  0  0  0  0  0  0  0  0  0  0  0
  -22.8655  -40.8663   -4.9997 C   0  0  0  0  0  0  0  0  0  0  0  0
  -22.3736  -42.2580   -4.6863 C   0  0  0  0  0  0  0  0  0  0  0  0
  -22.6415  -43.1603   -5.8775 C   0  0  0  0  0  0  0  0  0  0  0  0
  -21.5592  -44.0982   -6.0892 N   0  0  0  0  0  0  0  0  0  0  0  0
  -16.9806  -39.1434   -7.2714 C   0  0  2  0  0  0  0  0  0  0  0  0
  -17.5594  -37.8823   -7.2579 O   0  0  0  0  0  0  0  0  0  0  0  0
  -15.5035  -39.0354   -7.2385 C   0  0  0  0  0  0  0  0  0  0  0  0
  -14.7134  -40.0397   -7.8160 N   0  0  0  0  0  0  0  0  0  0  0  0
  -15.0013  -40.5989   -9.0766 C   0  0  0  0  0  0  0  0  0  0  0  0
  -14.9361  -39.6883  -10.2328 C   0  0  0  0  0  0  0  0  0  0  0  0
  -14.4568  -38.4140  -10.3609 C   0  0  0  0  0  0  0  0  0  0  0  0
  -14.6288  -38.0016  -11.6621 C   0  0  0  0  0  0  0  0  0  0  0  0
  -14.2685  -36.7125  -12.2680 C   0  0  0  0  0  0  0  0  0  0  0  0
  -15.4814  -35.8306  -12.4969 C   0  0  0  0  0  0  0  0  0  0  0  0
  -16.2889  -36.3813  -13.6463 C   0  0  0  0  0  0  0  0  0  0  0  0
  -16.3848  -35.8468  -11.2588 C   0  0  0  0  0  0  0  0  0  0  0  0
  -15.1118  -34.3860  -12.7466 C   0  0  0  0  0  0  0  0  0  0  0  0
  -15.2023  -39.0297  -12.2793 O   0  0  0  0  0  0  0  0  0  0  0  0
  -15.3868  -40.0186  -11.4576 N   0  0  0  0  0  0  0  0  0  0  0  0
  1  2  1  0
  2  3  1  0
  3  4  1  0
  4  5  2  0
  5  6  1  0
  6  7  2  0
  7  8  1  0
  8  9  2  0
  8 10  1  0
 10 11  2  0
 10 12  1  0
 12 13  1  0
 13 14  1  1
 14 15  1  0
 15 16  2  0
 16 17  1  0
 17 18  2  0
 18 19  1  0
 19 20  2  0
 17 21  1  0
 21 22  1  0
 22 23  1  0
 23 24  1  0
 24 25  1  0
 25 26  1  0
 13 27  1  0
 27 28  1  6
 27 29  1  0
 29 30  1  0
 30 31  1  0
 31 32  1  0
 32 33  1  0
 33 34  2  0
 34 35  1  0
 35 36  1  0
 36 37  1  0
 36 38  1  0
 36 39  1  0
 34 40  1  0
 40 41  1  0
  9  4  1  0
 20 15  1  0
 26  6  1  0
 41 32  2  0
M  END
$$$$
