
     RDKit          3D

 41 44  0  0  0  0  0  0  0  0999 V2000
  -17.8485  -48.5480   -8.3844 C   0  0  0  0  0  0  0  0  0  0  0  0
  -17.9258  -47.2386   -8.8764 O   0  0  0  0  0  0  0  0  0  0  0  0
  -19.2496  -46.9856   -9.2289 C   0  0  0  0  0  0  0  0  0  0  0  0
  -19.5332  -45.6004   -8.7700 C   0  0  0  0  0  0  0  0  0  0  0  0
  -20.6441  -45.2911   -8.0309 C   0  0  0  0  0  0  0  0  0  0  0  0
  -20.9436  -43.9772   -7.5825 C   0  0  0  0  0  0  0  0  0  0  0  0
  -20.0864  -42.9484   -7.8975 C   0  0  0  0  0  0  0  0  0  0  0  0
  -18.9506  -43.2046   -8.6384 C   0  0  0  0  0  0  0  0  0  0  0  0
  -18.7129  -44.5468   -9.0554 C   0  0  0  0  0  0  0  0  0  0  0  0
  -17.8703  -42.3287   -9.0958 C   0  0  0  0  0  0  0  0  0  0  0  0
  -17.2841  -42.6552  -10.2592 O   0  0  0  0  0  0  0  0  0  0  0  0
  -17.2475  -41.1651   -8.6005 N   0  0  0  0  0  0  0  0  0  0  0  0
  -17.7470  -39.8045   -8.5049 C   0  0  1  0  0  0  0  0  0  0  0  0
  -19.1462  -39.5809   -8.9103 C   0  0  0  0  0  0  0  0  0  0  0  0
  -20.1202  -38.9261   -7.9894 C   0  0  0  0  0  0  0  0  0  0  0  0
  -20.5884  -39.3188   -6.7612 C   0  0  0  0  0  0  0  0  0  0  0  0
  -21.5931  -38.5829   -6.1598 C   0  0  0  0  0  0  0  0  0  0  0  0
  -22.1110  -37.4527   -6.7895 C   0  0  0  0  0  0  0  0  0  0  0  0
  -21.6756  -37.0109   -8.0152 C   0  0  0  0  0  0  0  0  0  0  0  0
  -20.6871  -37.7700   -8.5791 C   0  0  0  0  0  0  0  0  0  0  0  0
  -22.2157  -38.8240   -4.9360 O   0  0  0  0  0  0  0  0  0  0  0  0
  -22.9960  -39.9379   -4.5036 C   0  0  0  0  0  0  0  0  0  0  0  0
  -23.4691  -40.8176   -5.6201 C   0  0  0  0  0  0  0  0  0  0  0  0
  -23.0449  -42.2425   -5.3619 C   0  0  0  0  0  0  0  0  0  0  0  0
  -23.2181  -43.0514   -6.6349 C   0  0  0  0  0  0  0  0  0  0  0  0
  -22.1441  -44.0065   -6.8093 N   0  0  0  0  0  0  0  0  0  0  0  0
  -17.3497  -39.1301   -7.1908 C   0  0  2  0  0  0  0  0  0  0  0  0
  -18.4354  -38.4305   -6.6836 O   0  0  0  0  0  0  0  0  0  0  0  0
  -16.1830  -38.2312   -7.3495 C   0  0  0  0  0  0  0  0  0  0  0  0
  -14.9183  -38.6368   -6.8995 N   0  0  0  0  0  0  0  0  0  0  0  0
  -14.4919  -39.9787   -6.9469 C   0  0  0  0  0  0  0  0  0  0  0  0
  -14.1166  -40.5054   -8.2706 C   0  0  0  0  0  0  0  0  0  0  0  0
  -13.8740  -41.7783   -8.7074 C   0  0  0  0  0  0  0  0  0  0  0  0
  -13.5574  -41.7376  -10.0457 C   0  0  0  0  0  0  0  0  0  0  0  0
  -13.2212  -42.8536  -10.9401 C   0  0  0  0  0  0  0  0  0  0  0  0
  -11.8709  -42.6651  -11.6053 C   0  0  0  0  0  0  0  0  0  0  0  0
  -11.6215  -41.1926  -11.8194 C   0  0  0  0  0  0  0  0  0  0  0  0
  -10.7566  -43.1858  -10.6908 C   0  0  0  0  0  0  0  0  0  0  0  0
  -11.7534  -43.4224  -12.9085 C   0  0  0  0  0  0  0  0  0  0  0  0
  -13.6174  -40.4519  -10.3778 O   0  0  0  0  0  0  0  0  0  0  0  0
  -13.9420  -39.7236   -9.3525 N   0  0  0  0  0  0  0  0  0  0  0  0
  1  2  1  0
  2  3  1  0
  3  4  1  0
  4  5  2  0
  5  6  1  0
  6  7  2  0
  7  8  1  0
  8  9  2  0
  8 10  1  0
 10 11  2  0
 10 12  1  0
 12 13  1  0
 13 14  1  1
 14 15  1  0
 15 16  2  0
 16 17  1  0
 17 18  2  0
 18 19  1  0
 19 20  2  0
 17 21  1  0
 21 22  1  0
 22 23  1  0
 23 24  1  0
 24 25  1  0
 25 26  1  0
 13 27  1  0
 27 28  1  6
 27 29  1  0
 29 30  1  0
 30 31  1  0
 31 32  1  0
 32 33  1  0
 33 34  2  0
 34 35  1  0
 35 36  1  0
 36 37  1  0
 36 38  1  0
 36 39  1  0
 34 40  1  0
 40 41  1  0
  9  4  1  0
 20 15  1  0
 26  6  1  0
 41 32  2  0
M  END
$$$$
