
     RDKit          3D

 41 44  0  0  0  0  0  0  0  0999 V2000
  -16.7907  -47.5781  -12.4529 C   0  0  0  0  0  0  0  0  0  0  0  0
  -17.1638  -46.5725  -11.5516 O   0  0  0  0  0  0  0  0  0  0  0  0
  -18.4384  -46.8696  -11.0743 C   0  0  0  0  0  0  0  0  0  0  0  0
  -18.8754  -45.6701  -10.3128 C   0  0  0  0  0  0  0  0  0  0  0  0
  -20.0408  -45.6486   -9.5936 C   0  0  0  0  0  0  0  0  0  0  0  0
  -20.4861  -44.5165   -8.8606 C   0  0  0  0  0  0  0  0  0  0  0  0
  -19.7219  -43.3727   -8.8616 C   0  0  0  0  0  0  0  0  0  0  0  0
  -18.5367  -43.3403   -9.5681 C   0  0  0  0  0  0  0  0  0  0  0  0
  -18.1514  -44.5127  -10.2815 C   0  0  0  0  0  0  0  0  0  0  0  0
  -17.5298  -42.2900   -9.7296 C   0  0  0  0  0  0  0  0  0  0  0  0
  -16.8668  -42.2679  -10.8974 O   0  0  0  0  0  0  0  0  0  0  0  0
  -17.0452  -41.2362   -8.9285 N   0  0  0  0  0  0  0  0  0  0  0  0
  -17.6794  -39.9888   -8.5386 C   0  0  1  0  0  0  0  0  0  0  0  0
  -19.0759  -39.7920   -8.9666 C   0  0  0  0  0  0  0  0  0  0  0  0
  -20.1467  -39.4703   -7.9790 C   0  0  0  0  0  0  0  0  0  0  0  0
  -20.6244  -40.1925   -6.9149 C   0  0  0  0  0  0  0  0  0  0  0  0
  -21.7204  -39.7162   -6.2190 C   0  0  0  0  0  0  0  0  0  0  0  0
  -22.3204  -38.5138   -6.5882 C   0  0  0  0  0  0  0  0  0  0  0  0
  -21.8803  -37.7475   -7.6400 C   0  0  0  0  0  0  0  0  0  0  0  0
  -20.7996  -38.2568   -8.3063 C   0  0  0  0  0  0  0  0  0  0  0  0
  -22.3663  -40.3042   -5.1325 O   0  0  0  0  0  0  0  0  0  0  0  0
  -23.0507  -41.5526   -5.0335 C   0  0  0  0  0  0  0  0  0  0  0  0
  -23.3886  -42.1663   -6.3577 C   0  0  0  0  0  0  0  0  0  0  0  0
  -22.8375  -43.5694   -6.4255 C   0  0  0  0  0  0  0  0  0  0  0  0
  -22.8777  -44.0505   -7.8649 C   0  0  0  0  0  0  0  0  0  0  0  0
  -21.7089  -44.8379   -8.1961 N   0  0  0  0  0  0  0  0  0  0  0  0
  -17.4049  -39.6287   -7.0776 C   0  0  2  0  0  0  0  0  0  0  0  0
  -18.0210  -38.4226   -6.7752 O   0  0  0  0  0  0  0  0  0  0  0  0
  -15.9559  -39.5593   -6.7776 C   0  0  0  0  0  0  0  0  0  0  0  0
  -15.1091  -40.6100   -7.1591 N   0  0  0  0  0  0  0  0  0  0  0  0
  -14.1793  -40.4898   -8.2106 C   0  0  0  0  0  0  0  0  0  0  0  0
  -14.0221  -39.1499   -8.8024 C   0  0  0  0  0  0  0  0  0  0  0  0
  -14.7990  -38.4469   -9.6812 C   0  0  0  0  0  0  0  0  0  0  0  0
  -14.2083  -37.2280   -9.9223 C   0  0  0  0  0  0  0  0  0  0  0  0
  -14.6750  -36.1424  -10.7953 C   0  0  0  0  0  0  0  0  0  0  0  0
  -14.0705  -36.2269  -12.1841 C   0  0  0  0  0  0  0  0  0  0  0  0
  -14.9105  -37.1434  -13.0389 C   0  0  0  0  0  0  0  0  0  0  0  0
  -14.0852  -34.8461  -12.8492 C   0  0  0  0  0  0  0  0  0  0  0  0
  -12.6298  -36.6850  -12.1648 C   0  0  0  0  0  0  0  0  0  0  0  0
  -13.1000  -37.2280   -9.1883 O   0  0  0  0  0  0  0  0  0  0  0  0
  -12.9799  -38.3420   -8.5313 N   0  0  0  0  0  0  0  0  0  0  0  0
  1  2  1  0
  2  3  1  0
  3  4  1  0
  4  5  2  0
  5  6  1  0
  6  7  2  0
  7  8  1  0
  8  9  2  0
  8 10  1  0
 10 11  2  0
 10 12  1  0
 12 13  1  0
 13 14  1  1
 14 15  1  0
 15 16  2  0
 16 17  1  0
 17 18  2  0
 18 19  1  0
 19 20  2  0
 17 21  1  0
 21 22  1  0
 22 23  1  0
 23 24  1  0
 24 25  1  0
 25 26  1  0
 13 27  1  0
 27 28  1  6
 27 29  1  0
 29 30  1  0
 30 31  1  0
 31 32  1  0
 32 33  1  0
 33 34  2  0
 34 35  1  0
 35 36  1  0
 36 37  1  0
 36 38  1  0
 36 39  1  0
 34 40  1  0
 40 41  1  0
  9  4  1  0
 20 15  1  0
 26  6  1  0
 41 32  2  0
M  END
$$$$
