
     RDKit          3D

 41 44  0  0  0  0  0  0  0  0999 V2000
  -17.8091  -47.9670  -10.8295 C   0  0  0  0  0  0  0  0  0  0  0  0
  -19.0774  -47.4465  -10.5415 O   0  0  0  0  0  0  0  0  0  0  0  0
  -19.2964  -47.5723   -9.1715 C   0  0  0  0  0  0  0  0  0  0  0  0
  -19.5612  -46.1962   -8.6756 C   0  0  0  0  0  0  0  0  0  0  0  0
  -20.6529  -45.8973   -7.9043 C   0  0  0  0  0  0  0  0  0  0  0  0
  -20.9341  -44.5921   -7.4202 C   0  0  0  0  0  0  0  0  0  0  0  0
  -20.0784  -43.5612   -7.7323 C   0  0  0  0  0  0  0  0  0  0  0  0
  -18.9615  -43.8070   -8.5049 C   0  0  0  0  0  0  0  0  0  0  0  0
  -18.7415  -45.1409   -8.9568 C   0  0  0  0  0  0  0  0  0  0  0  0
  -17.8870  -42.9270   -8.9679 C   0  0  0  0  0  0  0  0  0  0  0  0
  -17.3298  -43.2308  -10.1515 O   0  0  0  0  0  0  0  0  0  0  0  0
  -17.2460  -41.7781   -8.4616 N   0  0  0  0  0  0  0  0  0  0  0  0
  -17.7351  -40.4172   -8.3245 C   0  0  1  0  0  0  0  0  0  0  0  0
  -19.1420  -40.1772   -8.6923 C   0  0  0  0  0  0  0  0  0  0  0  0
  -20.0906  -39.5377   -7.7348 C   0  0  0  0  0  0  0  0  0  0  0  0
  -20.5325  -39.9550   -6.5049 C   0  0  0  0  0  0  0  0  0  0  0  0
  -21.5187  -39.2272   -5.8643 C   0  0  0  0  0  0  0  0  0  0  0  0
  -22.0443  -38.0806   -6.4567 C   0  0  0  0  0  0  0  0  0  0  0  0
  -21.6348  -37.6140   -7.6822 C   0  0  0  0  0  0  0  0  0  0  0  0
  -20.6640  -38.3657   -8.2855 C   0  0  0  0  0  0  0  0  0  0  0  0
  -22.1142  -39.4920   -4.6320 O   0  0  0  0  0  0  0  0  0  0  0  0
  -22.8909  -40.6110   -4.2062 C   0  0  0  0  0  0  0  0  0  0  0  0
  -23.3948  -41.4632   -5.3304 C   0  0  0  0  0  0  0  0  0  0  0  0
  -22.9732  -42.8957   -5.1137 C   0  0  0  0  0  0  0  0  0  0  0  0
  -23.1806  -43.6753   -6.3998 C   0  0  0  0  0  0  0  0  0  0  0  0
  -22.1166  -44.6320   -6.6201 N   0  0  0  0  0  0  0  0  0  0  0  0
  -17.3035  -39.7743   -7.0055 C   0  0  2  0  0  0  0  0  0  0  0  0
  -17.7517  -38.4617   -6.9626 O   0  0  0  0  0  0  0  0  0  0  0  0
  -15.8365  -39.8271   -6.8068 C   0  0  0  0  0  0  0  0  0  0  0  0
  -15.0211  -40.4512   -7.7618 N   0  0  0  0  0  0  0  0  0  0  0  0
  -13.7395  -39.9699   -8.0942 C   0  0  0  0  0  0  0  0  0  0  0  0
  -13.6451  -39.1171   -9.2918 C   0  0  0  0  0  0  0  0  0  0  0  0
  -13.8221  -37.7725   -9.4671 C   0  0  0  0  0  0  0  0  0  0  0  0
  -13.6172  -37.4648  -10.7923 C   0  0  0  0  0  0  0  0  0  0  0  0
  -13.6979  -36.1532  -11.4495 C   0  0  0  0  0  0  0  0  0  0  0  0
  -12.3261  -35.5647  -11.7194 C   0  0  0  0  0  0  0  0  0  0  0  0
  -11.6684  -35.2108  -10.4084 C   0  0  0  0  0  0  0  0  0  0  0  0
  -11.4343  -36.6033  -12.4086 C   0  0  0  0  0  0  0  0  0  0  0  0
  -12.3786  -34.3615  -12.6334 C   0  0  0  0  0  0  0  0  0  0  0  0
  -13.3240  -38.6223  -11.3762 O   0  0  0  0  0  0  0  0  0  0  0  0
  -13.3371  -39.5927  -10.5130 N   0  0  0  0  0  0  0  0  0  0  0  0
  1  2  1  0
  2  3  1  0
  3  4  1  0
  4  5  2  0
  5  6  1  0
  6  7  2  0
  7  8  1  0
  8  9  2  0
  8 10  1  0
 10 11  2  0
 10 12  1  0
 12 13  1  0
 13 14  1  1
 14 15  1  0
 15 16  2  0
 16 17  1  0
 17 18  2  0
 18 19  1  0
 19 20  2  0
 17 21  1  0
 21 22  1  0
 22 23  1  0
 23 24  1  0
 24 25  1  0
 25 26  1  0
 13 27  1  0
 27 28  1  6
 27 29  1  0
 29 30  1  0
 30 31  1  0
 31 32  1  0
 32 33  1  0
 33 34  2  0
 34 35  1  0
 35 36  1  0
 36 37  1  0
 36 38  1  0
 36 39  1  0
 34 40  1  0
 40 41  1  0
  9  4  1  0
 20 15  1  0
 26  6  1  0
 41 32  2  0
M  END
$$$$
