
     RDKit          3D

 41 44  0  0  0  0  0  0  0  0999 V2000
  -20.9665  -47.6688   -6.8499 C   0  0  0  0  0  0  0  0  0  0  0  0
  -21.0168  -46.2711   -6.7703 O   0  0  0  0  0  0  0  0  0  0  0  0
  -21.2372  -45.7718   -8.0521 C   0  0  0  0  0  0  0  0  0  0  0  0
  -20.0141  -45.0033   -8.4031 C   0  0  0  0  0  0  0  0  0  0  0  0
  -19.1449  -45.4220   -9.3754 C   0  0  0  0  0  0  0  0  0  0  0  0
  -17.9669  -44.7117   -9.7292 C   0  0  0  0  0  0  0  0  0  0  0  0
  -17.6656  -43.5413   -9.0722 C   0  0  0  0  0  0  0  0  0  0  0  0
  -18.5084  -43.0723   -8.0850 C   0  0  0  0  0  0  0  0  0  0  0  0
  -19.6728  -43.8364   -7.7814 C   0  0  0  0  0  0  0  0  0  0  0  0
  -18.4532  -41.8716   -7.2493 C   0  0  0  0  0  0  0  0  0  0  0  0
  -18.9784  -41.9724   -6.0174 O   0  0  0  0  0  0  0  0  0  0  0  0
  -17.9658  -40.5591   -7.4138 N   0  0  0  0  0  0  0  0  0  0  0  0
  -16.5999  -40.0692   -7.4799 C   0  0  1  0  0  0  0  0  0  0  0  0
  -15.5293  -41.0816   -7.4485 C   0  0  0  0  0  0  0  0  0  0  0  0
  -14.4885  -41.1361   -8.5159 C   0  0  0  0  0  0  0  0  0  0  0  0
  -14.6042  -41.3687   -9.8629 C   0  0  0  0  0  0  0  0  0  0  0  0
  -13.4557  -41.4880  -10.6240 C   0  0  0  0  0  0  0  0  0  0  0  0
  -12.2015  -41.3607  -10.0302 C   0  0  0  0  0  0  0  0  0  0  0  0
  -12.0272  -41.1215   -8.6886 C   0  0  0  0  0  0  0  0  0  0  0  0
  -13.1869  -41.0176   -7.9705 C   0  0  0  0  0  0  0  0  0  0  0  0
  -13.3572  -41.7433  -11.9910 O   0  0  0  0  0  0  0  0  0  0  0  0
  -13.7818  -42.8753  -12.7492 C   0  0  0  0  0  0  0  0  0  0  0  0
  -14.0902  -44.0822  -11.9171 C   0  0  0  0  0  0  0  0  0  0  0  0
  -15.4879  -44.5653  -12.2169 C   0  0  0  0  0  0  0  0  0  0  0  0
  -15.9136  -45.5527  -11.1451 C   0  0  0  0  0  0  0  0  0  0  0  0
  -17.3102  -45.3935  -10.7987 N   0  0  0  0  0  0  0  0  0  0  0  0
  -16.4212  -38.9869   -8.5457 C   0  0  2  0  0  0  0  0  0  0  0  0
  -15.1174  -38.5132   -8.5094 O   0  0  0  0  0  0  0  0  0  0  0  0
  -17.3820  -37.8713   -8.3819 C   0  0  0  0  0  0  0  0  0  0  0  0
  -18.4226  -37.9729   -7.4475 N   0  0  0  0  0  0  0  0  0  0  0  0
  -19.7639  -37.6917   -7.7739 C   0  0  0  0  0  0  0  0  0  0  0  0
  -20.6767  -38.8445   -7.8640 C   0  0  0  0  0  0  0  0  0  0  0  0
  -21.8751  -39.1050   -7.2590 C   0  0  0  0  0  0  0  0  0  0  0  0
  -22.3304  -40.3325   -7.6818 C   0  0  0  0  0  0  0  0  0  0  0  0
  -23.5675  -41.0289   -7.3033 C   0  0  0  0  0  0  0  0  0  0  0  0
  -23.3945  -41.8557   -6.0433 C   0  0  0  0  0  0  0  0  0  0  0  0
  -24.2534  -43.0926   -6.1363 C   0  0  0  0  0  0  0  0  0  0  0  0
  -21.9400  -42.3218   -5.9156 C   0  0  0  0  0  0  0  0  0  0  0  0
  -23.7132  -41.0764   -4.7875 C   0  0  0  0  0  0  0  0  0  0  0  0
  -21.4024  -40.7759   -8.5239 O   0  0  0  0  0  0  0  0  0  0  0  0
  -20.4337  -39.9184   -8.6386 N   0  0  0  0  0  0  0  0  0  0  0  0
  1  2  1  0
  2  3  1  0
  3  4  1  0
  4  5  2  0
  5  6  1  0
  6  7  2  0
  7  8  1  0
  8  9  2  0
  8 10  1  0
 10 11  2  0
 10 12  1  0
 12 13  1  0
 13 14  1  6
 14 15  1  0
 15 16  2  0
 16 17  1  0
 17 18  2  0
 18 19  1  0
 19 20  2  0
 17 21  1  0
 21 22  1  0
 22 23  1  0
 23 24  1  0
 24 25  1  0
 25 26  1  0
 13 27  1  0
 27 28  1  1
 27 29  1  0
 29 30  1  0
 30 31  1  0
 31 32  1  0
 32 33  1  0
 33 34  2  0
 34 35  1  0
 35 36  1  0
 36 37  1  0
 36 38  1  0
 36 39  1  0
 34 40  1  0
 40 41  1  0
  9  4  1  0
 20 15  1  0
 26  6  1  0
 41 32  2  0
M  END
$$$$
