
     RDKit          3D

 41 44  0  0  0  0  0  0  0  0999 V2000
  -12.7752  -42.0095   -7.6016 C   0  0  0  0  0  0  0  0  0  0  0  0
  -13.4331  -41.0437   -6.8289 O   0  0  0  0  0  0  0  0  0  0  0  0
  -13.9939  -40.1060   -7.6931 C   0  0  0  0  0  0  0  0  0  0  0  0
  -15.4656  -40.2859   -7.5859 C   0  0  0  0  0  0  0  0  0  0  0  0
  -16.1494  -40.0217   -6.4288 C   0  0  0  0  0  0  0  0  0  0  0  0
  -17.5535  -40.1884   -6.2953 C   0  0  0  0  0  0  0  0  0  0  0  0
  -18.2818  -40.6384   -7.3720 C   0  0  0  0  0  0  0  0  0  0  0  0
  -17.6433  -40.9178   -8.5633 C   0  0  0  0  0  0  0  0  0  0  0  0
  -16.2319  -40.7281   -8.6260 C   0  0  0  0  0  0  0  0  0  0  0  0
  -18.1542  -41.3815   -9.8545 C   0  0  0  0  0  0  0  0  0  0  0  0
  -17.3305  -42.1501  -10.5855 O   0  0  0  0  0  0  0  0  0  0  0  0
  -19.3562  -41.2177  -10.5727 N   0  0  0  0  0  0  0  0  0  0  0  0
  -20.6776  -41.7671  -10.3237 C   0  0  1  0  0  0  0  0  0  0  0  0
  -20.8443  -42.5651   -9.0958 C   0  0  0  0  0  0  0  0  0  0  0  0
  -21.9034  -42.2334   -8.0990 C   0  0  0  0  0  0  0  0  0  0  0  0
  -22.0891  -41.1082   -7.3364 C   0  0  0  0  0  0  0  0  0  0  0  0
  -23.0947  -41.0998   -6.3872 C   0  0  0  0  0  0  0  0  0  0  0  0
  -23.9133  -42.2150   -6.2192 C   0  0  0  0  0  0  0  0  0  0  0  0
  -23.7764  -43.3646   -6.9586 C   0  0  0  0  0  0  0  0  0  0  0  0
  -22.7664  -43.3349   -7.8808 C   0  0  0  0  0  0  0  0  0  0  0  0
  -23.4305  -40.0742   -5.5047 O   0  0  0  0  0  0  0  0  0  0  0  0
  -22.6656  -39.4682   -4.4634 C   0  0  0  0  0  0  0  0  0  0  0  0
  -21.4552  -40.2548   -4.0628 C   0  0  0  0  0  0  0  0  0  0  0  0
  -20.2262  -39.3846   -4.1585 C   0  0  0  0  0  0  0  0  0  0  0  0
  -18.9890  -40.2619   -4.0903 C   0  0  0  0  0  0  0  0  0  0  0  0
  -17.9515  -39.7897   -4.9828 N   0  0  0  0  0  0  0  0  0  0  0  0
  -21.7886  -40.7463  -10.5750 C   0  0  2  0  0  0  0  0  0  0  0  0
  -23.0056  -41.2800  -10.1755 O   0  0  0  0  0  0  0  0  0  0  0  0
  -21.8509  -40.3193  -11.9921 C   0  0  0  0  0  0  0  0  0  0  0  0
  -20.6676  -40.1226  -12.7184 N   0  0  0  0  0  0  0  0  0  0  0  0
  -20.1525  -38.8407  -12.9944 C   0  0  0  0  0  0  0  0  0  0  0  0
  -18.8848  -38.4829  -12.3346 C   0  0  0  0  0  0  0  0  0  0  0  0
  -17.6516  -38.1765  -12.8397 C   0  0  0  0  0  0  0  0  0  0  0  0
  -16.7953  -37.9121  -11.7958 C   0  0  0  0  0  0  0  0  0  0  0  0
  -15.3749  -37.5405  -11.8499 C   0  0  0  0  0  0  0  0  0  0  0  0
  -15.1786  -36.0364  -11.8664 C   0  0  0  0  0  0  0  0  0  0  0  0
  -13.7227  -35.7205  -11.6280 C   0  0  0  0  0  0  0  0  0  0  0  0
  -15.5455  -35.4731  -13.2439 C   0  0  0  0  0  0  0  0  0  0  0  0
  -16.0523  -35.3244  -10.8587 C   0  0  0  0  0  0  0  0  0  0  0  0
  -17.5289  -38.0645  -10.6978 O   0  0  0  0  0  0  0  0  0  0  0  0
  -18.7480  -38.3971  -10.9981 N   0  0  0  0  0  0  0  0  0  0  0  0
  1  2  1  0
  2  3  1  0
  3  4  1  0
  4  5  2  0
  5  6  1  0
  6  7  2  0
  7  8  1  0
  8  9  2  0
  8 10  1  0
 10 11  2  0
 10 12  1  0
 12 13  1  0
 13 14  1  1
 14 15  1  0
 15 16  2  0
 16 17  1  0
 17 18  2  0
 18 19  1  0
 19 20  2  0
 17 21  1  0
 21 22  1  0
 22 23  1  0
 23 24  1  0
 24 25  1  0
 25 26  1  0
 13 27  1  0
 27 28  1  6
 27 29  1  0
 29 30  1  0
 30 31  1  0
 31 32  1  0
 32 33  1  0
 33 34  2  0
 34 35  1  0
 35 36  1  0
 36 37  1  0
 36 38  1  0
 36 39  1  0
 34 40  1  0
 40 41  1  0
  9  4  1  0
 20 15  1  0
 26  6  1  0
 41 32  2  0
M  END
$$$$
