
     RDKit          3D

 41 44  0  0  0  0  0  0  0  0999 V2000
  -17.4716  -46.5514  -12.5842 C   0  0  0  0  0  0  0  0  0  0  0  0
  -18.0383  -45.7107  -11.6173 O   0  0  0  0  0  0  0  0  0  0  0  0
  -18.7707  -44.7254  -12.2757 C   0  0  0  0  0  0  0  0  0  0  0  0
  -18.1736  -43.4298  -11.8576 C   0  0  0  0  0  0  0  0  0  0  0  0
  -17.8246  -42.4628  -12.7627 C   0  0  0  0  0  0  0  0  0  0  0  0
  -17.2486  -41.2182  -12.3936 C   0  0  0  0  0  0  0  0  0  0  0  0
  -17.0205  -40.9518  -11.0635 C   0  0  0  0  0  0  0  0  0  0  0  0
  -17.3554  -41.8906  -10.1088 C   0  0  0  0  0  0  0  0  0  0  0  0
  -17.9296  -43.1182  -10.5507 C   0  0  0  0  0  0  0  0  0  0  0  0
  -17.2483  -41.8731   -8.6488 C   0  0  0  0  0  0  0  0  0  0  0  0
  -17.0344  -43.0551   -8.0480 O   0  0  0  0  0  0  0  0  0  0  0  0
  -17.3190  -40.8791   -7.6518 N   0  0  0  0  0  0  0  0  0  0  0  0
  -16.3816  -39.8214   -7.3164 C   0  0  1  0  0  0  0  0  0  0  0  0
  -15.1942  -39.6884   -8.1793 C   0  0  0  0  0  0  0  0  0  0  0  0
  -14.8598  -38.3912   -8.8357 C   0  0  0  0  0  0  0  0  0  0  0  0
  -15.5557  -37.6544   -9.7603 C   0  0  0  0  0  0  0  0  0  0  0  0
  -14.9619  -36.5317  -10.3075 C   0  0  0  0  0  0  0  0  0  0  0  0
  -13.6806  -36.1505   -9.9140 C   0  0  0  0  0  0  0  0  0  0  0  0
  -12.9415  -36.8468   -8.9887 C   0  0  0  0  0  0  0  0  0  0  0  0
  -13.5612  -37.9540   -8.4773 C   0  0  0  0  0  0  0  0  0  0  0  0
  -15.4862  -35.6680  -11.2681 O   0  0  0  0  0  0  0  0  0  0  0  0
  -15.8765  -35.9196  -12.6175 C   0  0  0  0  0  0  0  0  0  0  0  0
  -15.3588  -37.2130  -13.1681 C   0  0  0  0  0  0  0  0  0  0  0  0
  -16.5062  -38.0388  -13.6959 C   0  0  0  0  0  0  0  0  0  0  0  0
  -16.0296  -39.4614  -13.9285 C   0  0  0  0  0  0  0  0  0  0  0  0
  -17.0438  -40.4288  -13.5662 N   0  0  0  0  0  0  0  0  0  0  0  0
  -17.0847  -38.5019   -6.9938 C   0  0  2  0  0  0  0  0  0  0  0  0
  -16.2271  -37.6863   -6.2693 O   0  0  0  0  0  0  0  0  0  0  0  0
  -18.3526  -38.7054   -6.2552 C   0  0  0  0  0  0  0  0  0  0  0  0
  -19.5453  -38.9309   -6.9573 N   0  0  0  0  0  0  0  0  0  0  0  0
  -20.0670  -40.2223   -7.1690 C   0  0  0  0  0  0  0  0  0  0  0  0
  -20.5506  -40.9420   -5.9780 C   0  0  0  0  0  0  0  0  0  0  0  0
  -20.1894  -40.8671   -4.6612 C   0  0  0  0  0  0  0  0  0  0  0  0
  -20.9504  -41.7569   -3.9388 C   0  0  0  0  0  0  0  0  0  0  0  0
  -20.9167  -42.0276   -2.4951 C   0  0  0  0  0  0  0  0  0  0  0  0
  -22.1994  -41.6041   -1.8049 C   0  0  0  0  0  0  0  0  0  0  0  0
  -22.9750  -40.6835   -2.7145 C   0  0  0  0  0  0  0  0  0  0  0  0
  -23.0823  -42.8283   -1.5383 C   0  0  0  0  0  0  0  0  0  0  0  0
  -21.9503  -40.9477   -0.4659 C   0  0  0  0  0  0  0  0  0  0  0  0
  -21.7442  -42.3397   -4.8316 O   0  0  0  0  0  0  0  0  0  0  0  0
  -21.5211  -41.8739   -6.0234 N   0  0  0  0  0  0  0  0  0  0  0  0
  1  2  1  0
  2  3  1  0
  3  4  1  0
  4  5  2  0
  5  6  1  0
  6  7  2  0
  7  8  1  0
  8  9  2  0
  8 10  1  0
 10 11  2  0
 10 12  1  0
 12 13  1  0
 13 14  1  6
 14 15  1  0
 15 16  2  0
 16 17  1  0
 17 18  2  0
 18 19  1  0
 19 20  2  0
 17 21  1  0
 21 22  1  0
 22 23  1  0
 23 24  1  0
 24 25  1  0
 25 26  1  0
 13 27  1  0
 27 28  1  1
 27 29  1  0
 29 30  1  0
 30 31  1  0
 31 32  1  0
 32 33  1  0
 33 34  2  0
 34 35  1  0
 35 36  1  0
 36 37  1  0
 36 38  1  0
 36 39  1  0
 34 40  1  0
 40 41  1  0
  9  4  1  0
 20 15  1  0
 26  6  1  0
 41 32  2  0
M  END
$$$$
