
     RDKit          3D

 41 44  0  0  0  0  0  0  0  0999 V2000
  -16.2698  -47.5271  -10.7403 C   0  0  0  0  0  0  0  0  0  0  0  0
  -17.4689  -46.8031  -10.7141 O   0  0  0  0  0  0  0  0  0  0  0  0
  -18.1541  -47.1417   -9.5494 C   0  0  0  0  0  0  0  0  0  0  0  0
  -18.6847  -45.8639   -9.0059 C   0  0  0  0  0  0  0  0  0  0  0  0
  -19.6217  -45.8304   -8.0074 C   0  0  0  0  0  0  0  0  0  0  0  0
  -20.1502  -44.6259   -7.4716 C   0  0  0  0  0  0  0  0  0  0  0  0
  -19.7116  -43.4205   -7.9686 C   0  0  0  0  0  0  0  0  0  0  0  0
  -18.7664  -43.3962   -8.9740 C   0  0  0  0  0  0  0  0  0  0  0  0
  -18.2800  -44.6431   -9.4646 C   0  0  0  0  0  0  0  0  0  0  0  0
  -18.1133  -42.2846   -9.6676 C   0  0  0  0  0  0  0  0  0  0  0  0
  -17.7635  -42.4971  -10.9467 O   0  0  0  0  0  0  0  0  0  0  0  0
  -17.7313  -40.9733   -9.3189 N   0  0  0  0  0  0  0  0  0  0  0  0
  -18.5449  -39.7951   -9.0740 C   0  0  1  0  0  0  0  0  0  0  0  0
  -20.0068  -39.9779   -9.1138 C   0  0  0  0  0  0  0  0  0  0  0  0
  -20.8666  -39.5664   -7.9662 C   0  0  0  0  0  0  0  0  0  0  0  0
  -20.8939  -40.0103   -6.6685 C   0  0  0  0  0  0  0  0  0  0  0  0
  -21.8826  -39.5447   -5.8211 C   0  0  0  0  0  0  0  0  0  0  0  0
  -22.8278  -38.6286   -6.2786 C   0  0  0  0  0  0  0  0  0  0  0  0
  -22.8439  -38.1461   -7.5648 C   0  0  0  0  0  0  0  0  0  0  0  0
  -21.8547  -38.6366   -8.3724 C   0  0  0  0  0  0  0  0  0  0  0  0
  -22.0961  -39.8848   -4.4861 O   0  0  0  0  0  0  0  0  0  0  0  0
  -22.4112  -41.1456   -3.8962 C   0  0  0  0  0  0  0  0  0  0  0  0
  -22.8837  -42.1739   -4.8778 C   0  0  0  0  0  0  0  0  0  0  0  0
  -22.0359  -43.4168   -4.7627 C   0  0  0  0  0  0  0  0  0  0  0  0
  -22.2872  -44.3037   -5.9691 C   0  0  0  0  0  0  0  0  0  0  0  0
  -21.0695  -44.9405   -6.4248 N   0  0  0  0  0  0  0  0  0  0  0  0
  -18.0383  -38.9751   -7.8864 C   0  0  2  0  0  0  0  0  0  0  0  0
  -18.9844  -38.0178   -7.5485 O   0  0  0  0  0  0  0  0  0  0  0  0
  -16.7303  -38.3360   -8.1606 C   0  0  0  0  0  0  0  0  0  0  0  0
  -16.4691  -37.7859   -9.4237 N   0  0  0  0  0  0  0  0  0  0  0  0
  -15.2491  -37.9854  -10.0993 C   0  0  0  0  0  0  0  0  0  0  0  0
  -14.8051  -39.3808  -10.2613 C   0  0  0  0  0  0  0  0  0  0  0  0
  -13.6511  -39.9154  -10.7636 C   0  0  0  0  0  0  0  0  0  0  0  0
  -13.7273  -41.2872  -10.6925 C   0  0  0  0  0  0  0  0  0  0  0  0
  -12.7307  -42.2815  -11.1128 C   0  0  0  0  0  0  0  0  0  0  0  0
  -11.4093  -42.1065  -10.3886 C   0  0  0  0  0  0  0  0  0  0  0  0
  -10.5741  -43.3503  -10.5670 C   0  0  0  0  0  0  0  0  0  0  0  0
  -10.6243  -40.9410  -11.0005 C   0  0  0  0  0  0  0  0  0  0  0  0
  -11.5876  -41.7880   -8.9214 C   0  0  0  0  0  0  0  0  0  0  0  0
  -14.9154  -41.5415  -10.1533 O   0  0  0  0  0  0  0  0  0  0  0  0
  -15.5532  -40.4393   -9.8975 N   0  0  0  0  0  0  0  0  0  0  0  0
  1  2  1  0
  2  3  1  0
  3  4  1  0
  4  5  2  0
  5  6  1  0
  6  7  2  0
  7  8  1  0
  8  9  2  0
  8 10  1  0
 10 11  2  0
 10 12  1  0
 12 13  1  0
 13 14  1  1
 14 15  1  0
 15 16  2  0
 16 17  1  0
 17 18  2  0
 18 19  1  0
 19 20  2  0
 17 21  1  0
 21 22  1  0
 22 23  1  0
 23 24  1  0
 24 25  1  0
 25 26  1  0
 13 27  1  0
 27 28  1  6
 27 29  1  0
 29 30  1  0
 30 31  1  0
 31 32  1  0
 32 33  1  0
 33 34  2  0
 34 35  1  0
 35 36  1  0
 36 37  1  0
 36 38  1  0
 36 39  1  0
 34 40  1  0
 40 41  1  0
  9  4  1  0
 20 15  1  0
 26  6  1  0
 41 32  2  0
M  END
$$$$
