
     RDKit          3D

 41 44  0  0  0  0  0  0  0  0999 V2000
  -22.5130  -44.2575  -12.1698 C   0  0  0  0  0  0  0  0  0  0  0  0
  -22.4929  -42.9679  -12.7167 O   0  0  0  0  0  0  0  0  0  0  0  0
  -23.0171  -42.0884  -11.7720 C   0  0  0  0  0  0  0  0  0  0  0  0
  -21.9337  -41.1128  -11.4819 C   0  0  0  0  0  0  0  0  0  0  0  0
  -22.1736  -39.7686  -11.3742 C   0  0  0  0  0  0  0  0  0  0  0  0
  -21.1587  -38.8129  -11.1026 C   0  0  0  0  0  0  0  0  0  0  0  0
  -19.8615  -39.2395  -10.9370 C   0  0  0  0  0  0  0  0  0  0  0  0
  -19.5640  -40.5838  -11.0330 C   0  0  0  0  0  0  0  0  0  0  0  0
  -20.6320  -41.4869  -11.3080 C   0  0  0  0  0  0  0  0  0  0  0  0
  -18.3033  -41.3133  -10.8856 C   0  0  0  0  0  0  0  0  0  0  0  0
  -18.1655  -42.4291  -11.6202 O   0  0  0  0  0  0  0  0  0  0  0  0
  -17.1292  -41.1393  -10.1251 N   0  0  0  0  0  0  0  0  0  0  0  0
  -16.0644  -40.1602  -10.2579 C   0  0  1  0  0  0  0  0  0  0  0  0
  -16.2405  -39.1240  -11.2911 C   0  0  0  0  0  0  0  0  0  0  0  0
  -16.1550  -37.6740  -10.9508 C   0  0  0  0  0  0  0  0  0  0  0  0
  -16.9283  -36.9069  -10.1167 C   0  0  0  0  0  0  0  0  0  0  0  0
  -16.7118  -35.5419  -10.0684 C   0  0  0  0  0  0  0  0  0  0  0  0
  -15.7138  -34.9595  -10.8474 C   0  0  0  0  0  0  0  0  0  0  0  0
  -14.9068  -35.6797  -11.6944 C   0  0  0  0  0  0  0  0  0  0  0  0
  -15.1578  -37.0243  -11.7184 C   0  0  0  0  0  0  0  0  0  0  0  0
  -17.3962  -34.5928   -9.3106 O   0  0  0  0  0  0  0  0  0  0  0  0
  -18.7706  -34.2095   -9.3380 C   0  0  0  0  0  0  0  0  0  0  0  0
  -19.5043  -34.6678  -10.5611 C   0  0  0  0  0  0  0  0  0  0  0  0
  -20.7270  -35.4548  -10.1579 C   0  0  0  0  0  0  0  0  0  0  0  0
  -21.2630  -36.1964  -11.3694 C   0  0  0  0  0  0  0  0  0  0  0  0
  -21.7469  -37.5142  -11.0160 N   0  0  0  0  0  0  0  0  0  0  0  0
  -15.5860  -39.6340   -8.9038 C   0  0  2  0  0  0  0  0  0  0  0  0
  -14.2635  -39.2266   -9.0072 O   0  0  0  0  0  0  0  0  0  0  0  0
  -15.7355  -40.6379   -7.8248 C   0  0  0  0  0  0  0  0  0  0  0  0
  -16.4309  -41.8311   -8.0680 N   0  0  0  0  0  0  0  0  0  0  0  0
  -16.5984  -42.8244   -7.0831 C   0  0  0  0  0  0  0  0  0  0  0  0
  -17.9837  -43.2149   -6.7687 C   0  0  0  0  0  0  0  0  0  0  0  0
  -18.7443  -43.0432   -5.6454 C   0  0  0  0  0  0  0  0  0  0  0  0
  -19.9867  -43.5939   -5.8596 C   0  0  0  0  0  0  0  0  0  0  0  0
  -21.1326  -43.6504   -4.9418 C   0  0  0  0  0  0  0  0  0  0  0  0
  -21.9270  -42.3581   -4.9406 C   0  0  0  0  0  0  0  0  0  0  0  0
  -22.8514  -42.3418   -3.7482 C   0  0  0  0  0  0  0  0  0  0  0  0
  -20.9821  -41.1598   -4.7986 C   0  0  0  0  0  0  0  0  0  0  0  0
  -22.7029  -42.1508   -6.2216 C   0  0  0  0  0  0  0  0  0  0  0  0
  -19.9429  -44.0790   -7.0965 O   0  0  0  0  0  0  0  0  0  0  0  0
  -18.7814  -43.8647   -7.6369 N   0  0  0  0  0  0  0  0  0  0  0  0
  1  2  1  0
  2  3  1  0
  3  4  1  0
  4  5  2  0
  5  6  1  0
  6  7  2  0
  7  8  1  0
  8  9  2  0
  8 10  1  0
 10 11  2  0
 10 12  1  0
 12 13  1  0
 13 14  1  6
 14 15  1  0
 15 16  2  0
 16 17  1  0
 17 18  2  0
 18 19  1  0
 19 20  2  0
 17 21  1  0
 21 22  1  0
 22 23  1  0
 23 24  1  0
 24 25  1  0
 25 26  1  0
 13 27  1  0
 27 28  1  6
 27 29  1  0
 29 30  1  0
 30 31  1  0
 31 32  1  0
 32 33  1  0
 33 34  2  0
 34 35  1  0
 35 36  1  0
 36 37  1  0
 36 38  1  0
 36 39  1  0
 34 40  1  0
 40 41  1  0
  9  4  1  0
 20 15  1  0
 26  6  1  0
 41 32  2  0
M  END
$$$$
