
     RDKit          3D

 41 44  0  0  0  0  0  0  0  0999 V2000
  -18.9909  -47.2742   -6.2923 C   0  0  0  0  0  0  0  0  0  0  0  0
  -18.3573  -47.0107   -7.5137 O   0  0  0  0  0  0  0  0  0  0  0  0
  -19.3335  -46.6475   -8.4388 C   0  0  0  0  0  0  0  0  0  0  0  0
  -19.4999  -45.1773   -8.2957 C   0  0  0  0  0  0  0  0  0  0  0  0
  -20.6477  -44.6191   -7.7988 C   0  0  0  0  0  0  0  0  0  0  0  0
  -20.8372  -43.2189   -7.6549 C   0  0  0  0  0  0  0  0  0  0  0  0
  -19.8277  -42.3627   -8.0294 C   0  0  0  0  0  0  0  0  0  0  0  0
  -18.6485  -42.8718   -8.5344 C   0  0  0  0  0  0  0  0  0  0  0  0
  -18.5274  -44.2873   -8.6516 C   0  0  0  0  0  0  0  0  0  0  0  0
  -17.4205  -42.2149   -8.9857 C   0  0  0  0  0  0  0  0  0  0  0  0
  -16.7385  -42.8260   -9.9682 O   0  0  0  0  0  0  0  0  0  0  0  0
  -16.7261  -41.0399   -8.6329 N   0  0  0  0  0  0  0  0  0  0  0  0
  -17.0628  -39.6469   -8.8697 C   0  0  1  0  0  0  0  0  0  0  0  0
  -18.3626  -39.3777   -9.5103 C   0  0  0  0  0  0  0  0  0  0  0  0
  -19.3559  -38.4589   -8.8819 C   0  0  0  0  0  0  0  0  0  0  0  0
  -20.0180  -38.5467   -7.6836 C   0  0  0  0  0  0  0  0  0  0  0  0
  -20.9917  -37.6111   -7.3854 C   0  0  0  0  0  0  0  0  0  0  0  0
  -21.2846  -36.5885   -8.2857 C   0  0  0  0  0  0  0  0  0  0  0  0
  -20.6491  -36.4492   -9.4956 C   0  0  0  0  0  0  0  0  0  0  0  0
  -19.6987  -37.3982   -9.7555 C   0  0  0  0  0  0  0  0  0  0  0  0
  -21.7867  -37.5373   -6.2425 O   0  0  0  0  0  0  0  0  0  0  0  0
  -22.7456  -38.4598   -5.7268 C   0  0  0  0  0  0  0  0  0  0  0  0
  -23.1803  -39.4990   -6.7143 C   0  0  0  0  0  0  0  0  0  0  0  0
  -22.9697  -40.8755   -6.1329 C   0  0  0  0  0  0  0  0  0  0  0  0
  -23.0810  -41.9063   -7.2420 C   0  0  0  0  0  0  0  0  0  0  0  0
  -22.1191  -42.9751   -7.0741 N   0  0  0  0  0  0  0  0  0  0  0  0
  -16.7525  -38.7603   -7.6626 C   0  0  2  0  0  0  0  0  0  0  0  0
  -16.4187  -37.4859   -8.0987 O   0  0  0  0  0  0  0  0  0  0  0  0
  -15.6711  -39.3180   -6.8176 C   0  0  0  0  0  0  0  0  0  0  0  0
  -15.0980  -40.5569   -7.1385 N   0  0  0  0  0  0  0  0  0  0  0  0
  -15.5053  -41.3134   -8.2550 C   0  0  0  0  0  0  0  0  0  0  0  0
  -15.1000  -40.8078   -9.5781 C   0  0  0  0  0  0  0  0  0  0  0  0
  -14.2996  -39.7618   -9.9458 C   0  0  0  0  0  0  0  0  0  0  0  0
  -14.2369  -39.7097  -11.3191 C   0  0  0  0  0  0  0  0  0  0  0  0
  -13.5023  -38.7597  -12.1656 C   0  0  0  0  0  0  0  0  0  0  0  0
  -14.2859  -37.4826  -12.4029 C   0  0  0  0  0  0  0  0  0  0  0  0
  -14.2702  -36.6469  -11.1469 C   0  0  0  0  0  0  0  0  0  0  0  0
  -13.6201  -36.6545  -13.5074 C   0  0  0  0  0  0  0  0  0  0  0  0
  -15.7053  -37.7458  -12.8524 C   0  0  0  0  0  0  0  0  0  0  0  0
  -14.9946  -40.7176  -11.7398 O   0  0  0  0  0  0  0  0  0  0  0  0
  -15.5033  -41.3650  -10.7353 N   0  0  0  0  0  0  0  0  0  0  0  0
  1  2  1  0
  2  3  1  0
  3  4  1  0
  4  5  2  0
  5  6  1  0
  6  7  2  0
  7  8  1  0
  8  9  2  0
  8 10  1  0
 10 11  2  0
 10 12  1  0
 12 13  1  0
 13 14  1  1
 14 15  1  0
 15 16  2  0
 16 17  1  0
 17 18  2  0
 18 19  1  0
 19 20  2  0
 17 21  1  0
 21 22  1  0
 22 23  1  0
 23 24  1  0
 24 25  1  0
 25 26  1  0
 13 27  1  0
 27 28  1  6
 27 29  1  0
 29 30  1  0
 30 31  1  0
 31 32  1  0
 32 33  1  0
 33 34  2  0
 34 35  1  0
 35 36  1  0
 36 37  1  0
 36 38  1  0
 36 39  1  0
 34 40  1  0
 40 41  1  0
  9  4  1  0
 20 15  1  0
 26  6  1  0
 41 32  2  0
M  END
$$$$
