
     RDKit          3D

 41 44  0  0  0  0  0  0  0  0999 V2000
  -17.7521  -47.3461   -8.6733 C   0  0  0  0  0  0  0  0  0  0  0  0
  -17.1597  -47.1689   -9.9305 O   0  0  0  0  0  0  0  0  0  0  0  0
  -18.0979  -46.5745  -10.7715 C   0  0  0  0  0  0  0  0  0  0  0  0
  -18.4958  -45.3078  -10.1030 C   0  0  0  0  0  0  0  0  0  0  0  0
  -19.6703  -45.1886   -9.4084 C   0  0  0  0  0  0  0  0  0  0  0  0
  -20.0789  -43.9908   -8.7638 C   0  0  0  0  0  0  0  0  0  0  0  0
  -19.2675  -42.8820   -8.8300 C   0  0  0  0  0  0  0  0  0  0  0  0
  -18.0713  -42.9474   -9.5154 C   0  0  0  0  0  0  0  0  0  0  0  0
  -17.7245  -44.1816  -10.1387 C   0  0  0  0  0  0  0  0  0  0  0  0
  -17.0188  -41.9529   -9.7308 C   0  0  0  0  0  0  0  0  0  0  0  0
  -16.3376  -42.0396  -10.8850 O   0  0  0  0  0  0  0  0  0  0  0  0
  -16.5028  -40.8663   -8.9958 N   0  0  0  0  0  0  0  0  0  0  0  0
  -17.0901  -39.5699   -8.7049 C   0  0  1  0  0  0  0  0  0  0  0  0
  -18.4704  -39.3467   -9.1710 C   0  0  0  0  0  0  0  0  0  0  0  0
  -19.5418  -38.9133   -8.2277 C   0  0  0  0  0  0  0  0  0  0  0  0
  -20.0656  -39.5393   -7.1251 C   0  0  0  0  0  0  0  0  0  0  0  0
  -21.1513  -38.9712   -6.4840 C   0  0  0  0  0  0  0  0  0  0  0  0
  -21.6946  -37.7741   -6.9464 C   0  0  0  0  0  0  0  0  0  0  0  0
  -21.2066  -37.1018   -8.0406 C   0  0  0  0  0  0  0  0  0  0  0  0
  -20.1380  -37.7001   -8.6502 C   0  0  0  0  0  0  0  0  0  0  0  0
  -21.8379  -39.4549   -5.3713 O   0  0  0  0  0  0  0  0  0  0  0  0
  -22.5755  -40.6644   -5.1987 C   0  0  0  0  0  0  0  0  0  0  0  0
  -22.9184  -41.3549   -6.4831 C   0  0  0  0  0  0  0  0  0  0  0  0
  -22.4257  -42.7806   -6.4435 C   0  0  0  0  0  0  0  0  0  0  0  0
  -22.4639  -43.3592   -7.8467 C   0  0  0  0  0  0  0  0  0  0  0  0
  -21.3242  -44.2148   -8.1011 N   0  0  0  0  0  0  0  0  0  0  0  0
  -16.8232  -39.1200   -7.2676 C   0  0  2  0  0  0  0  0  0  0  0  0
  -17.6011  -38.0076   -6.9795 O   0  0  0  0  0  0  0  0  0  0  0  0
  -15.3913  -38.8269   -7.0261 C   0  0  0  0  0  0  0  0  0  0  0  0
  -14.4062  -39.7106   -7.4898 N   0  0  0  0  0  0  0  0  0  0  0  0
  -13.7488  -39.5326   -8.7230 C   0  0  0  0  0  0  0  0  0  0  0  0
  -14.1216  -40.4559   -9.8088 C   0  0  0  0  0  0  0  0  0  0  0  0
  -13.7059  -40.5465  -11.1084 C   0  0  0  0  0  0  0  0  0  0  0  0
  -14.3630  -41.5921  -11.7148 C   0  0  0  0  0  0  0  0  0  0  0  0
  -14.2428  -42.0676  -13.0998 C   0  0  0  0  0  0  0  0  0  0  0  0
  -13.4974  -41.0815  -13.9791 C   0  0  0  0  0  0  0  0  0  0  0  0
  -13.1265  -39.8674  -13.1638 C   0  0  0  0  0  0  0  0  0  0  0  0
  -12.1914  -41.7071  -14.4812 C   0  0  0  0  0  0  0  0  0  0  0  0
  -14.2875  -40.6819  -15.2046 C   0  0  0  0  0  0  0  0  0  0  0  0
  -15.1507  -42.1005  -10.7725 O   0  0  0  0  0  0  0  0  0  0  0  0
  -15.0195  -41.4475   -9.6574 N   0  0  0  0  0  0  0  0  0  0  0  0
  1  2  1  0
  2  3  1  0
  3  4  1  0
  4  5  2  0
  5  6  1  0
  6  7  2  0
  7  8  1  0
  8  9  2  0
  8 10  1  0
 10 11  2  0
 10 12  1  0
 12 13  1  0
 13 14  1  1
 14 15  1  0
 15 16  2  0
 16 17  1  0
 17 18  2  0
 18 19  1  0
 19 20  2  0
 17 21  1  0
 21 22  1  0
 22 23  1  0
 23 24  1  0
 24 25  1  0
 25 26  1  0
 13 27  1  0
 27 28  1  6
 27 29  1  0
 29 30  1  0
 30 31  1  0
 31 32  1  0
 32 33  1  0
 33 34  2  0
 34 35  1  0
 35 36  1  0
 36 37  1  0
 36 38  1  0
 36 39  1  0
 34 40  1  0
 40 41  1  0
  9  4  1  0
 20 15  1  0
 26  6  1  0
 41 32  2  0
M  END
$$$$
