
     RDKit          3D

 41 44  0  0  0  0  0  0  0  0999 V2000
  -18.2576  -47.9088  -11.7592 C   0  0  0  0  0  0  0  0  0  0  0  0
  -19.2822  -47.5362  -10.8794 O   0  0  0  0  0  0  0  0  0  0  0  0
  -18.7726  -47.5666   -9.5832 C   0  0  0  0  0  0  0  0  0  0  0  0
  -19.1214  -46.2535   -8.9801 C   0  0  0  0  0  0  0  0  0  0  0  0
  -20.0479  -46.1351   -7.9783 C   0  0  0  0  0  0  0  0  0  0  0  0
  -20.4047  -44.8944   -7.3863 C   0  0  0  0  0  0  0  0  0  0  0  0
  -19.8004  -43.7406   -7.8290 C   0  0  0  0  0  0  0  0  0  0  0  0
  -18.8576  -43.8027   -8.8351 C   0  0  0  0  0  0  0  0  0  0  0  0
  -18.5485  -45.0815   -9.3837 C   0  0  0  0  0  0  0  0  0  0  0  0
  -18.0533  -42.7626   -9.4790 C   0  0  0  0  0  0  0  0  0  0  0  0
  -17.7323  -42.9631  -10.7676 O   0  0  0  0  0  0  0  0  0  0  0  0
  -17.4930  -41.5349   -9.0718 N   0  0  0  0  0  0  0  0  0  0  0  0
  -18.1349  -40.2670   -8.7707 C   0  0  1  0  0  0  0  0  0  0  0  0
  -19.6079  -40.2418   -8.8145 C   0  0  0  0  0  0  0  0  0  0  0  0
  -20.4057  -39.7671   -7.6467 C   0  0  0  0  0  0  0  0  0  0  0  0
  -20.4991  -40.2618   -6.3706 C   0  0  0  0  0  0  0  0  0  0  0  0
  -21.4160  -39.7019   -5.4997 C   0  0  0  0  0  0  0  0  0  0  0  0
  -22.2224  -38.6427   -5.9120 C   0  0  0  0  0  0  0  0  0  0  0  0
  -22.1665  -38.1044   -7.1746 C   0  0  0  0  0  0  0  0  0  0  0  0
  -21.2528  -38.6908   -8.0069 C   0  0  0  0  0  0  0  0  0  0  0  0
  -21.6795  -40.0696   -4.1811 O   0  0  0  0  0  0  0  0  0  0  0  0
  -22.1696  -41.2996   -3.6486 C   0  0  0  0  0  0  0  0  0  0  0  0
  -22.7778  -42.2058   -4.6748 C   0  0  0  0  0  0  0  0  0  0  0  0
  -22.1123  -43.5590   -4.6193 C   0  0  0  0  0  0  0  0  0  0  0  0
  -22.4809  -44.3459   -5.8642 C   0  0  0  0  0  0  0  0  0  0  0  0
  -21.3626  -45.1251   -6.3523 N   0  0  0  0  0  0  0  0  0  0  0  0
  -17.5228  -39.5810   -7.5484 C   0  0  2  0  0  0  0  0  0  0  0  0
  -18.2557  -38.4434   -7.2414 O   0  0  0  0  0  0  0  0  0  0  0  0
  -16.0958  -39.2385   -7.7507 C   0  0  0  0  0  0  0  0  0  0  0  0
  -15.2664  -40.0952   -8.4887 N   0  0  0  0  0  0  0  0  0  0  0  0
  -14.1062  -39.6436   -9.1481 C   0  0  0  0  0  0  0  0  0  0  0  0
  -14.2991  -38.6425  -10.2116 C   0  0  0  0  0  0  0  0  0  0  0  0
  -14.1061  -37.2889  -10.2321 C   0  0  0  0  0  0  0  0  0  0  0  0
  -14.4341  -36.8106  -11.4798 C   0  0  0  0  0  0  0  0  0  0  0  0
  -14.3874  -35.4264  -11.9698 C   0  0  0  0  0  0  0  0  0  0  0  0
  -13.2994  -35.2246  -13.0074 C   0  0  0  0  0  0  0  0  0  0  0  0
  -12.9500  -36.5543  -13.6289 C   0  0  0  0  0  0  0  0  0  0  0  0
  -13.8077  -34.3171  -14.1331 C   0  0  0  0  0  0  0  0  0  0  0  0
  -12.0668  -34.5607  -12.4366 C   0  0  0  0  0  0  0  0  0  0  0  0
  -14.8127  -37.8798  -12.1730 O   0  0  0  0  0  0  0  0  0  0  0  0
  -14.7387  -38.9533  -11.4455 N   0  0  0  0  0  0  0  0  0  0  0  0
  1  2  1  0
  2  3  1  0
  3  4  1  0
  4  5  2  0
  5  6  1  0
  6  7  2  0
  7  8  1  0
  8  9  2  0
  8 10  1  0
 10 11  2  0
 10 12  1  0
 12 13  1  0
 13 14  1  1
 14 15  1  0
 15 16  2  0
 16 17  1  0
 17 18  2  0
 18 19  1  0
 19 20  2  0
 17 21  1  0
 21 22  1  0
 22 23  1  0
 23 24  1  0
 24 25  1  0
 25 26  1  0
 13 27  1  0
 27 28  1  6
 27 29  1  0
 29 30  1  0
 30 31  1  0
 31 32  1  0
 32 33  1  0
 33 34  2  0
 34 35  1  0
 35 36  1  0
 36 37  1  0
 36 38  1  0
 36 39  1  0
 34 40  1  0
 40 41  1  0
  9  4  1  0
 20 15  1  0
 26  6  1  0
 41 32  2  0
M  END
$$$$
