
     RDKit          3D

 41 44  0  0  0  0  0  0  0  0999 V2000
  -18.1442  -48.4081  -10.7697 C   0  0  0  0  0  0  0  0  0  0  0  0
  -19.2498  -47.6163  -10.4330 O   0  0  0  0  0  0  0  0  0  0  0  0
  -19.2096  -46.4623  -11.2123 C   0  0  0  0  0  0  0  0  0  0  0  0
  -19.4223  -45.3310  -10.2717 C   0  0  0  0  0  0  0  0  0  0  0  0
  -20.4634  -45.3094   -9.3819 C   0  0  0  0  0  0  0  0  0  0  0  0
  -20.6944  -44.2411   -8.4751 C   0  0  0  0  0  0  0  0  0  0  0  0
  -19.8402  -43.1629   -8.4759 C   0  0  0  0  0  0  0  0  0  0  0  0
  -18.7731  -43.1339   -9.3506 C   0  0  0  0  0  0  0  0  0  0  0  0
  -18.6018  -44.2401  -10.2332 C   0  0  0  0  0  0  0  0  0  0  0  0
  -17.7115  -42.1470   -9.5566 C   0  0  0  0  0  0  0  0  0  0  0  0
  -17.2273  -42.0372  -10.8045 O   0  0  0  0  0  0  0  0  0  0  0  0
  -17.0233  -41.2310   -8.7353 N   0  0  0  0  0  0  0  0  0  0  0  0
  -17.4806  -39.9951   -8.1241 C   0  0  1  0  0  0  0  0  0  0  0  0
  -18.9017  -39.6499   -8.3073 C   0  0  0  0  0  0  0  0  0  0  0  0
  -19.7836  -39.3690   -7.1374 C   0  0  0  0  0  0  0  0  0  0  0  0
  -20.1625  -40.1737   -6.0929 C   0  0  0  0  0  0  0  0  0  0  0  0
  -21.0983  -39.7039   -5.1896 C   0  0  0  0  0  0  0  0  0  0  0  0
  -21.6368  -38.4267   -5.3341 C   0  0  0  0  0  0  0  0  0  0  0  0
  -21.2892  -37.5770   -6.3562 C   0  0  0  0  0  0  0  0  0  0  0  0
  -20.3671  -38.0819   -7.2315 C   0  0  0  0  0  0  0  0  0  0  0  0
  -21.6277  -40.3661   -4.0830 O   0  0  0  0  0  0  0  0  0  0  0  0
  -22.3982  -41.5650   -4.0092 C   0  0  0  0  0  0  0  0  0  0  0  0
  -22.9793  -41.9949   -5.3213 C   0  0  0  0  0  0  0  0  0  0  0  0
  -22.5707  -43.4166   -5.6193 C   0  0  0  0  0  0  0  0  0  0  0  0
  -22.8637  -43.7231   -7.0771 C   0  0  0  0  0  0  0  0  0  0  0  0
  -21.8304  -44.5488   -7.6658 N   0  0  0  0  0  0  0  0  0  0  0  0
  -16.9643  -39.8277   -6.6942 C   0  0  2  0  0  0  0  0  0  0  0  0
  -17.1237  -38.5078   -6.2967 O   0  0  0  0  0  0  0  0  0  0  0  0
  -15.5492  -40.2431   -6.5542 C   0  0  0  0  0  0  0  0  0  0  0  0
  -14.8097  -40.6086   -7.6882 N   0  0  0  0  0  0  0  0  0  0  0  0
  -13.9399  -39.7161   -8.3452 C   0  0  0  0  0  0  0  0  0  0  0  0
  -14.5473  -38.8140   -9.3390 C   0  0  0  0  0  0  0  0  0  0  0  0
  -15.8352  -38.3888   -9.5140 C   0  0  0  0  0  0  0  0  0  0  0  0
  -15.8820  -37.5427  -10.5978 C   0  0  0  0  0  0  0  0  0  0  0  0
  -17.0447  -36.8453  -11.1639 C   0  0  0  0  0  0  0  0  0  0  0  0
  -17.5088  -37.4727  -12.4648 C   0  0  0  0  0  0  0  0  0  0  0  0
  -16.8846  -36.7364  -13.6243 C   0  0  0  0  0  0  0  0  0  0  0  0
  -17.0367  -38.9286  -12.5446 C   0  0  0  0  0  0  0  0  0  0  0  0
  -19.0149  -37.4962  -12.5946 C   0  0  0  0  0  0  0  0  0  0  0  0
  -14.6314  -37.4803  -11.0439 O   0  0  0  0  0  0  0  0  0  0  0  0
  -13.8441  -38.2166  -10.3192 N   0  0  0  0  0  0  0  0  0  0  0  0
  1  2  1  0
  2  3  1  0
  3  4  1  0
  4  5  2  0
  5  6  1  0
  6  7  2  0
  7  8  1  0
  8  9  2  0
  8 10  1  0
 10 11  2  0
 10 12  1  0
 12 13  1  0
 13 14  1  1
 14 15  1  0
 15 16  2  0
 16 17  1  0
 17 18  2  0
 18 19  1  0
 19 20  2  0
 17 21  1  0
 21 22  1  0
 22 23  1  0
 23 24  1  0
 24 25  1  0
 25 26  1  0
 13 27  1  0
 27 28  1  6
 27 29  1  0
 29 30  1  0
 30 31  1  0
 31 32  1  0
 32 33  1  0
 33 34  2  0
 34 35  1  0
 35 36  1  0
 36 37  1  0
 36 38  1  0
 36 39  1  0
 34 40  1  0
 40 41  1  0
  9  4  1  0
 20 15  1  0
 26  6  1  0
 41 32  2  0
M  END
$$$$
