
 OpenBabel10272211583D

 59 62  0  0  1  0  0  0  0  0999 V2000
    2.9385   10.6395    0.5511 C   0  0  0  0  0  0  0  0  0  0  0  0
    2.6417   11.5074   -0.4422 N   0  0  0  0  0  0  0  0  0  0  0  0
    2.3882   11.0192   -1.6841 C   0  0  0  0  0  0  0  0  0  0  0  0
    2.3672    9.6242   -1.8611 C   0  0  0  0  0  0  0  0  0  0  0  0
    2.6033    8.8574   -0.7333 C   0  0  0  0  0  0  0  0  0  0  0  0
    2.9031    9.3056    0.4927 N   0  0  0  0  0  0  0  0  0  0  0  0
    2.3791    7.5643   -1.1162 N   0  0  0  0  0  0  0  0  0  0  0  0
    2.1037    7.5906   -2.4620 C   0  0  0  0  0  0  0  0  0  0  0  0
    2.0549    8.8203   -2.9355 N   0  0  0  0  0  0  0  0  0  0  0  0
    2.5164    6.3716   -0.3041 C   0  0  1  0  0  0  0  0  0  0  0  0
    2.5964    6.5463    1.2158 C   0  0  1  0  0  0  0  0  0  0  0  0
    2.2103    5.1624    1.6980 C   0  0  1  0  0  0  0  0  0  0  0  0
    1.1748    4.7097    0.6775 C   0  0  2  0  0  0  0  0  0  0  0  0
    1.3729    5.5045   -0.5174 O   0  0  0  0  0  0  0  0  0  0  0  0
   -0.2586    4.7899    1.1997 C   0  0  0  0  0  0  0  0  0  0  0  0
   -0.7502    6.1122    1.3929 O   0  0  0  0  0  0  0  0  0  0  0  0
   -2.3455    6.1737    1.6068 P   0  0  3  0  0  0  0  0  0  0  0  0
   -2.9664    4.9202    2.1420 O   0  0  0  0  0  0  0  0  0  0  0  0
   -2.4871    7.3701    2.6573 O   0  0  0  0  0  0  0  0  0  0  0  0
   -2.9768    6.7473    0.2899 O   0  0  0  0  0  0  0  0  0  0  0  0
   -2.7595    6.3133   -1.2135 P   0  0  3  0  0  0  0  0  0  0  0  0
   -1.8702    5.1351   -1.4348 O   0  0  0  0  0  0  0  0  0  0  0  0
   -4.2460    5.9991   -1.7248 O   0  0  0  0  0  0  0  0  0  0  0  0
   -2.3193    7.6253   -2.0194 O   0  0  0  0  0  0  0  0  0  0  0  0
   -3.0565    8.8386   -1.9340 C   0  0  0  0  0  0  0  0  0  0  0  0
   -2.4869    9.7964   -0.8874 C   0  0  2  0  0  0  0  0  0  0  0  0
   -0.9835   10.0487   -0.9851 C   0  0  2  0  0  0  0  0  0  0  0  0
   -0.4844    9.9848    0.4564 C   0  0  2  0  0  0  0  0  0  0  0  0
   -1.7671    9.8912    1.2810 C   0  0  2  0  0  0  0  0  0  0  0  0
   -2.7261    9.2911    0.4302 O   0  0  0  0  0  0  0  0  0  0  0  0
   -2.1953   11.2008    1.6437 O   0  0  0  0  0  0  0  0  0  0  0  0
    0.1799   11.1795    0.8768 O   0  0  0  0  0  0  0  0  0  0  0  0
   -0.7183   11.3377   -1.5494 O   0  0  0  0  0  0  0  0  0  0  0  0
    3.3864    4.3278    1.6595 O   0  0  0  0  0  0  0  0  0  0  0  0
    3.8955    6.8865    1.6925 O   0  0  0  0  0  0  0  0  0  0  0  0
    1.9815   11.9203   -2.6681 N   0  0  0  0  0  0  0  0  0  0  0  0
    3.1089   11.0697    1.5346 H   0  0  0  0  0  0  0  0  0  0  0  0
    1.9354    6.6904   -3.0419 H   0  0  0  0  0  0  0  0  0  0  0  0
    3.4092    5.8594   -0.6863 H   0  0  0  0  0  0  0  0  0  0  0  0
    1.8587    7.2719    1.5781 H   0  0  0  0  0  0  0  0  0  0  0  0
    1.8588    5.1583    2.7339 H   0  0  0  0  0  0  0  0  0  0  0  0
    1.3554    3.6640    0.4006 H   0  0  0  0  0  0  0  0  0  0  0  0
   -0.3293    4.2648    2.1592 H   0  0  0  0  0  0  0  0  0  0  0  0
   -0.9150    4.2699    0.5017 H   0  0  0  0  0  0  0  0  0  0  0  0
   -2.3959    7.1082    3.5886 H   0  0  0  0  0  0  0  0  0  0  0  0
   -4.4170    5.0433   -1.6336 H   0  0  0  0  0  0  0  0  0  0  0  0
   -4.1069    8.6226   -1.7212 H   0  0  0  0  0  0  0  0  0  0  0  0
   -3.0030    9.3180   -2.9182 H   0  0  0  0  0  0  0  0  0  0  0  0
   -3.0284   10.7462   -0.9680 H   0  0  0  0  0  0  0  0  0  0  0  0
   -0.4822    9.2992   -1.6042 H   0  0  0  0  0  0  0  0  0  0  0  0
    0.1233    9.0912    0.6202 H   0  0  0  0  0  0  0  0  0  0  0  0
   -1.5841    9.3367    2.1995 H   0  0  0  0  0  0  0  0  0  0  0  0
   -1.3706   11.7282    1.5963 H   0  0  0  0  0  0  0  0  0  0  0  0
    0.7714   11.4387    0.1402 H   0  0  0  0  0  0  0  0  0  0  0  0
   -0.9939   11.9943   -0.8810 H   0  0  0  0  0  0  0  0  0  0  0  0
    3.5009    3.9662    0.7613 H   0  0  0  0  0  0  0  0  0  0  0  0
    4.3526    6.0437    1.8942 H   0  0  0  0  0  0  0  0  0  0  0  0
    1.4734   12.6850   -2.2368 H   0  0  0  0  0  0  0  0  0  0  0  0
    1.4381   11.4408   -3.3832 H   0  0  0  0  0  0  0  0  0  0  0  0
  1  2  1  0  0  0  0
  1  6  2  0  0  0  0
  1 37  1  0  0  0  0
  2  3  2  0  0  0  0
  3  4  1  0  0  0  0
  3 36  1  0  0  0  0
  4  5  2  0  0  0  0
  4  9  1  0  0  0  0
  5  6  1  0  0  0  0
  5  7  1  0  0  0  0
  7  8  1  0  0  0  0
  7 10  1  0  0  0  0
  8  9  2  0  0  0  0
  8 38  1  0  0  0  0
 10 11  1  0  0  0  0
 10 14  1  0  0  0  0
 10 39  1  6  0  0  0
 11 12  1  0  0  0  0
 11 35  1  0  0  0  0
 11 40  1  1  0  0  0
 12 13  1  0  0  0  0
 12 34  1  0  0  0  0
 12 41  1  1  0  0  0
 13 14  1  0  0  0  0
 13 15  1  0  0  0  0
 13 42  1  6  0  0  0
 15 16  1  0  0  0  0
 15 43  1  0  0  0  0
 15 44  1  0  0  0  0
 16 17  1  0  0  0  0
 17 18  2  0  0  0  0
 17 19  1  0  0  0  0
 17 20  1  0  0  0  0
 19 45  1  0  0  0  0
 20 21  1  0  0  0  0
 21 22  2  0  0  0  0
 21 23  1  0  0  0  0
 21 24  1  0  0  0  0
 23 46  1  0  0  0  0
 24 25  1  0  0  0  0
 25 26  1  0  0  0  0
 25 47  1  0  0  0  0
 25 48  1  0  0  0  0
 26 27  1  0  0  0  0
 26 30  1  0  0  0  0
 26 49  1  6  0  0  0
 27 28  1  0  0  0  0
 27 33  1  0  0  0  0
 27 50  1  6  0  0  0
 28 29  1  0  0  0  0
 28 32  1  0  0  0  0
 28 51  1  1  0  0  0
 29 30  1  0  0  0  0
 29 31  1  0  0  0  0
 29 52  1  1  0  0  0
 31 53  1  0  0  0  0
 32 54  1  0  0  0  0
 33 55  1  0  0  0  0
 34 56  1  0  0  0  0
 35 57  1  0  0  0  0
 36 58  1  0  0  0  0
 36 59  1  0  0  0  0
M  END
$$$$
