
     RDKit          3D

 38 39  0  0  0  0  0  0  0  0999 V2000
   -9.2667  -36.4513  -15.0918 C   0  0  0  0  0  0  0  0  0  0  0  0
  -10.6716  -36.6880  -14.5511 C   0  0  0  0  0  0  0  0  0  0  0  0
  -11.6622  -35.8856  -15.3797 C   0  0  0  0  0  0  0  0  0  0  0  0
  -11.0537  -38.1427  -14.6384 C   0  0  0  0  0  0  0  0  0  0  0  0
  -12.3447  -38.3369  -13.9537 C   0  0  0  0  0  0  0  0  0  0  0  0
  -12.4159  -38.6873  -12.6210 C   0  0  0  0  0  0  0  0  0  0  0  0
  -13.6573  -38.8434  -12.0590 C   0  0  0  0  0  0  0  0  0  0  0  0
  -14.8055  -38.6561  -12.8058 C   0  0  0  0  0  0  0  0  0  0  0  0
  -14.7228  -38.3093  -14.1245 N   0  0  0  0  0  0  0  0  0  0  0  0
  -13.5111  -38.1586  -14.6648 C   0  0  0  0  0  0  0  0  0  0  0  0
  -13.8544  -39.2555  -10.6162 C   0  0  0  0  0  0  0  0  0  0  0  0
  -12.4742  -39.1681   -9.9968 C   0  0  0  0  0  0  0  0  0  0  0  0
  -14.2400  -40.7166  -10.6434 C   0  0  0  0  0  0  0  0  0  0  0  0
  -14.8394  -38.4371   -9.9955 N   0  0  0  0  0  0  0  0  0  0  0  0
  -15.8902  -38.9876   -9.2642 C   0  0  0  0  0  0  0  0  0  0  0  0
  -16.6607  -38.0455   -8.4247 C   0  0  1  0  0  0  0  0  0  0  0  0
  -17.2586  -37.0398   -9.1493 O   0  0  0  0  0  0  0  0  0  0  0  0
  -17.7133  -38.7407   -7.5609 C   0  0  2  0  0  0  0  0  0  0  0  0
  -18.2552  -37.6654   -6.6133 C   0  0  0  0  0  0  0  0  0  0  0  0
  -19.5843  -37.9451   -6.0352 C   0  0  2  0  0  0  0  0  0  0  0  0
  -19.4511  -38.3229   -4.5738 C   0  0  0  0  0  0  0  0  0  0  0  0
  -20.4901  -38.8262   -6.8252 C   0  0  0  0  0  0  0  0  0  0  0  0
  -21.7743  -39.0579   -6.0332 C   0  0  0  0  0  0  0  0  0  0  0  0
  -21.6610  -40.2780   -5.1525 C   0  0  0  0  0  0  0  0  0  0  0  0
  -22.7813  -41.2731   -5.3569 C   0  0  0  0  0  0  0  0  0  0  0  0
  -22.2109  -42.6371   -5.0791 C   0  0  0  0  0  0  0  0  0  0  0  0
  -22.5336  -43.6630   -6.0875 C   0  0  0  0  0  0  0  0  0  0  0  0
  -21.4374  -44.4690   -6.6479 C   0  0  0  0  0  0  0  0  0  0  0  0
  -20.0913  -43.8386   -6.7642 C   0  0  0  0  0  0  0  0  0  0  0  0
  -20.1433  -42.7371   -7.7522 C   0  0  0  0  0  0  0  0  0  0  0  0
  -21.2793  -42.2735   -8.0669 O   0  0  0  0  0  0  0  0  0  0  0  0
  -19.0019  -42.1481   -8.3860 N   0  0  0  0  0  0  0  0  0  0  0  0
  -19.1164  -41.5895   -9.7376 C   0  0  0  0  0  0  0  0  0  0  0  0
  -17.7354  -42.1155   -7.6926 C   0  0  1  0  0  0  0  0  0  0  0  0
  -16.5409  -42.1152   -8.6492 C   0  0  0  0  0  0  0  0  0  0  0  0
  -17.5942  -41.1273   -6.6318 C   0  0  0  0  0  0  0  0  0  0  0  0
  -17.8660  -41.5171   -5.4348 O   0  0  0  0  0  0  0  0  0  0  0  0
  -17.1930  -39.7787   -6.7352 N   0  0  0  0  0  0  0  0  0  0  0  0
  1  2  1  0
  2  3  1  0
  2  4  1  0
  4  5  1  0
  5  6  2  0
  6  7  1  0
  7  8  2  0
  8  9  1  0
  9 10  2  0
  7 11  1  0
 11 12  1  0
 11 13  1  0
 11 14  1  0
 14 15  1  0
 15 16  1  0
 16 17  1  6
 16 18  1  0
 18 19  1  1
 19 20  1  0
 20 21  1  1
 20 22  1  0
 22 23  1  0
 23 24  1  0
 24 25  1  0
 25 26  1  0
 26 27  1  0
 27 28  1  0
 28 29  1  0
 29 30  1  0
 30 31  2  0
 30 32  1  0
 32 33  1  0
 32 34  1  0
 34 35  1  6
 34 36  1  0
 36 37  2  0
 36 38  1  0
 10  5  1  0
 38 18  1  0
M  END
$$$$
