
     RDKit          3D

 38 39  0  0  0  0  0  0  0  0999 V2000
  -22.8529  -38.6311   -2.1586 C   0  0  0  0  0  0  0  0  0  0  0  0
  -21.9266  -39.4731   -3.0275 C   0  0  0  0  0  0  0  0  0  0  0  0
  -20.9421  -40.2088   -2.1324 C   0  0  0  0  0  0  0  0  0  0  0  0
  -22.6989  -40.4961   -3.8193 C   0  0  0  0  0  0  0  0  0  0  0  0
  -21.7638  -41.2219   -4.6979 C   0  0  0  0  0  0  0  0  0  0  0  0
  -21.3398  -40.6965   -5.9012 C   0  0  0  0  0  0  0  0  0  0  0  0
  -20.4647  -41.4349   -6.6565 C   0  0  0  0  0  0  0  0  0  0  0  0
  -20.0202  -42.6710   -6.2259 C   0  0  0  0  0  0  0  0  0  0  0  0
  -20.4468  -43.1812   -5.0327 N   0  0  0  0  0  0  0  0  0  0  0  0
  -21.2982  -42.4568   -4.3025 C   0  0  0  0  0  0  0  0  0  0  0  0
  -19.9581  -40.9715   -8.0051 C   0  0  0  0  0  0  0  0  0  0  0  0
  -20.5459  -39.5864   -8.1844 C   0  0  0  0  0  0  0  0  0  0  0  0
  -20.6091  -41.8693   -9.0320 C   0  0  0  0  0  0  0  0  0  0  0  0
  -18.5366  -41.0260   -8.0478 N   0  0  0  0  0  0  0  0  0  0  0  0
  -17.8094  -40.3515   -9.0266 C   0  0  0  0  0  0  0  0  0  0  0  0
  -16.5964  -39.6448   -8.5629 C   0  0  1  0  0  0  0  0  0  0  0  0
  -15.6773  -40.4799   -7.9698 O   0  0  0  0  0  0  0  0  0  0  0  0
  -15.9114  -38.8457   -9.6720 C   0  0  2  0  0  0  0  0  0  0  0  0
  -16.5374  -37.4478   -9.6297 C   0  0  0  0  0  0  0  0  0  0  0  0
  -15.7314  -36.3763  -10.2470 C   0  0  2  0  0  0  0  0  0  0  0  0
  -16.3392  -35.9601  -11.5711 C   0  0  0  0  0  0  0  0  0  0  0  0
  -14.2549  -36.5763  -10.2759 C   0  0  0  0  0  0  0  0  0  0  0  0
  -13.6089  -35.4081  -11.0163 C   0  0  0  0  0  0  0  0  0  0  0  0
  -13.4894  -35.6955  -12.4930 C   0  0  0  0  0  0  0  0  0  0  0  0
  -12.0858  -35.5205  -13.0278 C   0  0  0  0  0  0  0  0  0  0  0  0
  -11.9248  -36.4962  -14.1615 C   0  0  0  0  0  0  0  0  0  0  0  0
  -10.6817  -37.2881  -14.1282 C   0  0  0  0  0  0  0  0  0  0  0  0
  -10.7742  -38.7501  -14.2671 C   0  0  0  0  0  0  0  0  0  0  0  0
  -11.9957  -39.4286  -13.7470 C   0  0  0  0  0  0  0  0  0  0  0  0
  -12.0459  -39.2978  -12.2730 C   0  0  0  0  0  0  0  0  0  0  0  0
  -11.3260  -38.4083  -11.7299 O   0  0  0  0  0  0  0  0  0  0  0  0
  -12.8506  -40.1035  -11.4041 N   0  0  0  0  0  0  0  0  0  0  0  0
  -12.4019  -40.3860  -10.0363 C   0  0  0  0  0  0  0  0  0  0  0  0
  -14.1007  -40.6447  -11.8838 C   0  0  1  0  0  0  0  0  0  0  0  0
  -14.4848  -41.9492  -11.1818 C   0  0  0  0  0  0  0  0  0  0  0  0
  -15.2211  -39.7190  -11.9815 C   0  0  0  0  0  0  0  0  0  0  0  0
  -15.4076  -39.1511  -13.1223 O   0  0  0  0  0  0  0  0  0  0  0  0
  -16.1473  -39.3522  -10.9826 N   0  0  0  0  0  0  0  0  0  0  0  0
  1  2  1  0
  2  3  1  0
  2  4  1  0
  4  5  1  0
  5  6  2  0
  6  7  1  0
  7  8  2  0
  8  9  1  0
  9 10  2  0
  7 11  1  0
 11 12  1  0
 11 13  1  0
 11 14  1  0
 14 15  1  0
 15 16  1  0
 16 17  1  6
 16 18  1  0
 18 19  1  6
 19 20  1  0
 20 21  1  6
 20 22  1  0
 22 23  1  0
 23 24  1  0
 24 25  1  0
 25 26  1  0
 26 27  1  0
 27 28  1  0
 28 29  1  0
 29 30  1  0
 30 31  2  0
 30 32  1  0
 32 33  1  0
 32 34  1  0
 34 35  1  1
 34 36  1  0
 36 37  2  0
 36 38  1  0
 10  5  1  0
 38 18  1  0
M  END
$$$$
