
     RDKit          3D

 38 39  0  0  0  0  0  0  0  0999 V2000
  -20.9837  -42.7670   -0.8184 C   0  0  0  0  0  0  0  0  0  0  0  0
  -20.8198  -42.7108   -2.3324 C   0  0  0  0  0  0  0  0  0  0  0  0
  -20.8864  -44.1238   -2.8899 C   0  0  0  0  0  0  0  0  0  0  0  0
  -21.9167  -41.8998   -2.9719 C   0  0  0  0  0  0  0  0  0  0  0  0
  -21.6562  -41.8061   -4.4199 C   0  0  0  0  0  0  0  0  0  0  0  0
  -21.1535  -40.6575   -4.9957 C   0  0  0  0  0  0  0  0  0  0  0  0
  -20.9350  -40.6554   -6.3499 C   0  0  0  0  0  0  0  0  0  0  0  0
  -21.2108  -41.7717   -7.1172 C   0  0  0  0  0  0  0  0  0  0  0  0
  -21.7082  -42.9035   -6.5360 N   0  0  0  0  0  0  0  0  0  0  0  0
  -21.9181  -42.8985   -5.2174 C   0  0  0  0  0  0  0  0  0  0  0  0
  -20.4159  -39.4425   -7.0912 C   0  0  0  0  0  0  0  0  0  0  0  0
  -21.4012  -38.3384   -6.7649 C   0  0  0  0  0  0  0  0  0  0  0  0
  -20.5636  -39.7523   -8.5632 C   0  0  0  0  0  0  0  0  0  0  0  0
  -19.0699  -39.1700   -6.7180 N   0  0  0  0  0  0  0  0  0  0  0  0
  -18.2154  -38.4449   -7.5462 C   0  0  0  0  0  0  0  0  0  0  0  0
  -16.8043  -38.8855   -7.5688 C   0  0  1  0  0  0  0  0  0  0  0  0
  -16.6596  -40.2451   -7.4128 O   0  0  0  0  0  0  0  0  0  0  0  0
  -16.0605  -38.4391   -8.8278 C   0  0  2  0  0  0  0  0  0  0  0  0
  -16.5322  -37.0086   -9.1087 C   0  0  0  0  0  0  0  0  0  0  0  0
  -15.6288  -36.1998   -9.9506 C   0  0  2  0  0  0  0  0  0  0  0  0
  -16.2153  -36.0322  -11.3376 C   0  0  0  0  0  0  0  0  0  0  0  0
  -14.1831  -36.5608   -9.9262 C   0  0  0  0  0  0  0  0  0  0  0  0
  -13.4309  -35.6692  -10.9107 C   0  0  0  0  0  0  0  0  0  0  0  0
  -13.3729  -36.2962  -12.2822 C   0  0  0  0  0  0  0  0  0  0  0  0
  -11.9698  -36.4013  -12.8363 C   0  0  0  0  0  0  0  0  0  0  0  0
  -11.9373  -37.6208  -13.7165 C   0  0  0  0  0  0  0  0  0  0  0  0
  -10.7858  -38.5150  -13.4975 C   0  0  0  0  0  0  0  0  0  0  0  0
  -11.0371  -39.9513  -13.2993 C   0  0  0  0  0  0  0  0  0  0  0  0
  -12.3133  -40.3564  -12.6437 C   0  0  0  0  0  0  0  0  0  0  0  0
  -12.3193  -39.8892  -11.2387 C   0  0  0  0  0  0  0  0  0  0  0  0
  -11.4974  -38.9832  -10.9098 O   0  0  0  0  0  0  0  0  0  0  0  0
  -13.1877  -40.3836  -10.2126 N   0  0  0  0  0  0  0  0  0  0  0  0
  -12.7442  -40.3946   -8.8144 C   0  0  0  0  0  0  0  0  0  0  0  0
  -14.4982  -40.8802  -10.5619 C   0  0  1  0  0  0  0  0  0  0  0  0
  -15.0054  -41.9410   -9.5824 C   0  0  0  0  0  0  0  0  0  0  0  0
  -15.5147  -39.8846  -10.8736 C   0  0  0  0  0  0  0  0  0  0  0  0
  -15.6626  -39.5743  -12.1148 O   0  0  0  0  0  0  0  0  0  0  0  0
  -16.3759  -39.2016   -9.9892 N   0  0  0  0  0  0  0  0  0  0  0  0
  1  2  1  0
  2  3  1  0
  2  4  1  0
  4  5  1  0
  5  6  2  0
  6  7  1  0
  7  8  2  0
  8  9  1  0
  9 10  2  0
  7 11  1  0
 11 12  1  0
 11 13  1  0
 11 14  1  0
 14 15  1  0
 15 16  1  0
 16 17  1  6
 16 18  1  0
 18 19  1  6
 19 20  1  0
 20 21  1  6
 20 22  1  0
 22 23  1  0
 23 24  1  0
 24 25  1  0
 25 26  1  0
 26 27  1  0
 27 28  1  0
 28 29  1  0
 29 30  1  0
 30 31  2  0
 30 32  1  0
 32 33  1  0
 32 34  1  0
 34 35  1  1
 34 36  1  0
 36 37  2  0
 36 38  1  0
 10  5  1  0
 38 18  1  0
M  END
$$$$
