
     RDKit          3D

 38 39  0  0  0  0  0  0  0  0999 V2000
  -14.9189  -34.2435  -11.7491 C   0  0  0  0  0  0  0  0  0  0  0  0
  -13.9015  -35.0466  -12.5505 C   0  0  0  0  0  0  0  0  0  0  0  0
  -13.3410  -34.1694  -13.6586 C   0  0  0  0  0  0  0  0  0  0  0  0
  -12.7560  -35.4995  -11.6830 C   0  0  0  0  0  0  0  0  0  0  0  0
  -12.4588  -36.9111  -11.9869 C   0  0  0  0  0  0  0  0  0  0  0  0
  -12.9869  -37.9431  -11.2386 C   0  0  0  0  0  0  0  0  0  0  0  0
  -12.6641  -39.2286  -11.5918 C   0  0  0  0  0  0  0  0  0  0  0  0
  -11.8328  -39.4843  -12.6663 C   0  0  0  0  0  0  0  0  0  0  0  0
  -11.3159  -38.4545  -13.3999 N   0  0  0  0  0  0  0  0  0  0  0  0
  -11.6346  -37.2058  -13.0508 C   0  0  0  0  0  0  0  0  0  0  0  0
  -13.1605  -40.4350  -10.8247 C   0  0  0  0  0  0  0  0  0  0  0  0
  -11.9570  -41.3500  -10.7213 C   0  0  0  0  0  0  0  0  0  0  0  0
  -14.1667  -41.1202  -11.7205 C   0  0  0  0  0  0  0  0  0  0  0  0
  -13.7156  -40.0366   -9.5764 N   0  0  0  0  0  0  0  0  0  0  0  0
  -15.0484  -40.2884   -9.2567 C   0  0  0  0  0  0  0  0  0  0  0  0
  -15.6513  -39.4007   -8.2397 C   0  0  1  0  0  0  0  0  0  0  0  0
  -15.6565  -38.0760   -8.6127 O   0  0  0  0  0  0  0  0  0  0  0  0
  -17.0677  -39.8207   -7.8461 C   0  0  2  0  0  0  0  0  0  0  0  0
  -17.7291  -38.5686   -7.2607 C   0  0  0  0  0  0  0  0  0  0  0  0
  -19.2052  -38.5751   -7.2623 C   0  0  2  0  0  0  0  0  0  0  0  0
  -19.7297  -38.7857   -5.8564 C   0  0  0  0  0  0  0  0  0  0  0  0
  -19.8736  -39.4028   -8.3059 C   0  0  0  0  0  0  0  0  0  0  0  0
  -21.3845  -39.3425   -8.0967 C   0  0  0  0  0  0  0  0  0  0  0  0
  -21.8547  -40.4482   -7.1837 C   0  0  0  0  0  0  0  0  0  0  0  0
  -22.9676  -41.2839   -7.7753 C   0  0  0  0  0  0  0  0  0  0  0  0
  -22.8157  -42.6727   -7.2174 C   0  0  0  0  0  0  0  0  0  0  0  0
  -22.8999  -43.7557   -8.2142 C   0  0  0  0  0  0  0  0  0  0  0  0
  -21.8416  -44.7779   -8.2344 C   0  0  0  0  0  0  0  0  0  0  0  0
  -20.4669  -44.3730   -7.8235 C   0  0  0  0  0  0  0  0  0  0  0  0
  -19.9212  -43.4060   -8.8030 C   0  0  0  0  0  0  0  0  0  0  0  0
  -20.7347  -42.8216   -9.5784 O   0  0  0  0  0  0  0  0  0  0  0  0
  -18.5349  -43.0750   -8.9451 N   0  0  0  0  0  0  0  0  0  0  0  0
  -18.0032  -42.6762  -10.2529 C   0  0  0  0  0  0  0  0  0  0  0  0
  -17.6609  -43.1453   -7.7975 C   0  0  1  0  0  0  0  0  0  0  0  0
  -16.2089  -43.4395   -8.1811 C   0  0  0  0  0  0  0  0  0  0  0  0
  -17.7678  -42.0659   -6.8253 C   0  0  0  0  0  0  0  0  0  0  0  0
  -18.5554  -42.2608   -5.8251 O   0  0  0  0  0  0  0  0  0  0  0  0
  -17.1160  -40.8147   -6.8265 N   0  0  0  0  0  0  0  0  0  0  0  0
  1  2  1  0
  2  3  1  0
  2  4  1  0
  4  5  1  0
  5  6  2  0
  6  7  1  0
  7  8  2  0
  8  9  1  0
  9 10  2  0
  7 11  1  0
 11 12  1  0
 11 13  1  0
 11 14  1  0
 14 15  1  0
 15 16  1  0
 16 17  1  6
 16 18  1  0
 18 19  1  1
 19 20  1  0
 20 21  1  1
 20 22  1  0
 22 23  1  0
 23 24  1  0
 24 25  1  0
 25 26  1  0
 26 27  1  0
 27 28  1  0
 28 29  1  0
 29 30  1  0
 30 31  2  0
 30 32  1  0
 32 33  1  0
 32 34  1  0
 34 35  1  6
 34 36  1  0
 36 37  2  0
 36 38  1  0
 10  5  1  0
 38 18  1  0
M  END
$$$$
