
     RDKit          3D

 38 39  0  0  0  0  0  0  0  0999 V2000
  -11.3162  -33.5554  -14.4116 C   0  0  0  0  0  0  0  0  0  0  0  0
  -12.0618  -34.1678  -13.2322 C   0  0  0  0  0  0  0  0  0  0  0  0
  -12.2829  -33.0963  -12.1764 C   0  0  0  0  0  0  0  0  0  0  0  0
  -13.4072  -34.7002  -13.6522 C   0  0  0  0  0  0  0  0  0  0  0  0
  -13.4340  -36.1566  -13.4251 C   0  0  0  0  0  0  0  0  0  0  0  0
  -13.6047  -36.6935  -12.1656 C   0  0  0  0  0  0  0  0  0  0  0  0
  -13.6228  -38.0594  -12.0421 C   0  0  0  0  0  0  0  0  0  0  0  0
  -13.4737  -38.8762  -13.1473 C   0  0  0  0  0  0  0  0  0  0  0  0
  -13.3054  -38.3334  -14.3895 N   0  0  0  0  0  0  0  0  0  0  0  0
  -13.2892  -37.0031  -14.5024 C   0  0  0  0  0  0  0  0  0  0  0  0
  -13.7727  -38.7565  -10.7072 C   0  0  0  0  0  0  0  0  0  0  0  0
  -12.8313  -38.0183   -9.7772 C   0  0  0  0  0  0  0  0  0  0  0  0
  -13.2157  -40.1491  -10.8934 C   0  0  0  0  0  0  0  0  0  0  0  0
  -15.1356  -38.7585  -10.2976 N   0  0  0  0  0  0  0  0  0  0  0  0
  -15.7145  -39.8729   -9.6935 C   0  0  0  0  0  0  0  0  0  0  0  0
  -17.0829  -40.2145  -10.1370 C   0  0  1  0  0  0  0  0  0  0  0  0
  -17.1404  -41.3812  -10.8644 O   0  0  0  0  0  0  0  0  0  0  0  0
  -18.0825  -40.2887   -8.9825 C   0  0  2  0  0  0  0  0  0  0  0  0
  -18.6297  -38.8680   -8.8092 C   0  0  0  0  0  0  0  0  0  0  0  0
  -19.9289  -38.7722   -8.1151 C   0  0  2  0  0  0  0  0  0  0  0  0
  -19.7353  -38.2308   -6.7132 C   0  0  0  0  0  0  0  0  0  0  0  0
  -20.8294  -39.9562   -8.2057 C   0  0  0  0  0  0  0  0  0  0  0  0
  -22.0784  -39.6968   -7.3674 C   0  0  0  0  0  0  0  0  0  0  0  0
  -21.8949  -40.1784   -5.9491 C   0  0  0  0  0  0  0  0  0  0  0  0
  -22.9866  -41.1173   -5.4871 C   0  0  0  0  0  0  0  0  0  0  0  0
  -22.3613  -42.0619   -4.4972 C   0  0  0  0  0  0  0  0  0  0  0  0
  -22.6815  -43.4854   -4.7087 C   0  0  0  0  0  0  0  0  0  0  0  0
  -21.5773  -44.4573   -4.7486 C   0  0  0  0  0  0  0  0  0  0  0  0
  -20.2580  -43.9994   -5.2707 C   0  0  0  0  0  0  0  0  0  0  0  0
  -20.3796  -43.6760   -6.7105 C   0  0  0  0  0  0  0  0  0  0  0  0
  -21.5405  -43.4912   -7.1825 O   0  0  0  0  0  0  0  0  0  0  0  0
  -19.2802  -43.5540   -7.6204 N   0  0  0  0  0  0  0  0  0  0  0  0
  -19.4578  -43.8843   -9.0386 C   0  0  0  0  0  0  0  0  0  0  0  0
  -17.9937  -43.1138   -7.1336 C   0  0  1  0  0  0  0  0  0  0  0  0
  -16.8317  -43.6580   -7.9677 C   0  0  0  0  0  0  0  0  0  0  0  0
  -17.8519  -41.6923   -6.8494 C   0  0  0  0  0  0  0  0  0  0  0  0
  -18.0711  -41.3176   -5.6369 O   0  0  0  0  0  0  0  0  0  0  0  0
  -17.5005  -40.6504   -7.7333 N   0  0  0  0  0  0  0  0  0  0  0  0
  1  2  1  0
  2  3  1  0
  2  4  1  0
  4  5  1  0
  5  6  2  0
  6  7  1  0
  7  8  2  0
  8  9  1  0
  9 10  2  0
  7 11  1  0
 11 12  1  0
 11 13  1  0
 11 14  1  0
 14 15  1  0
 15 16  1  0
 16 17  1  1
 16 18  1  0
 18 19  1  1
 19 20  1  0
 20 21  1  1
 20 22  1  0
 22 23  1  0
 23 24  1  0
 24 25  1  0
 25 26  1  0
 26 27  1  0
 27 28  1  0
 28 29  1  0
 29 30  1  0
 30 31  2  0
 30 32  1  0
 32 33  1  0
 32 34  1  0
 34 35  1  6
 34 36  1  0
 36 37  2  0
 36 38  1  0
 10  5  1  0
 38 18  1  0
M  END
$$$$
