
     RDKit          3D

 38 39  0  0  0  0  0  0  0  0999 V2000
  -14.7681  -31.9411  -12.8284 C   0  0  0  0  0  0  0  0  0  0  0  0
  -13.4341  -32.4166  -12.2657 C   0  0  0  0  0  0  0  0  0  0  0  0
  -12.7405  -31.2483  -11.5833 C   0  0  0  0  0  0  0  0  0  0  0  0
  -13.6281  -33.5096  -11.2472 C   0  0  0  0  0  0  0  0  0  0  0  0
  -13.4509  -34.8142  -11.9104 C   0  0  0  0  0  0  0  0  0  0  0  0
  -13.7356  -36.0016  -11.2678 C   0  0  0  0  0  0  0  0  0  0  0  0
  -13.5479  -37.1717  -11.9586 C   0  0  0  0  0  0  0  0  0  0  0  0
  -13.0859  -37.1629  -13.2615 C   0  0  0  0  0  0  0  0  0  0  0  0
  -12.8074  -35.9812  -13.8875 N   0  0  0  0  0  0  0  0  0  0  0  0
  -12.9928  -34.8462  -13.2093 C   0  0  0  0  0  0  0  0  0  0  0  0
  -13.7983  -38.5317  -11.3439 C   0  0  0  0  0  0  0  0  0  0  0  0
  -12.4330  -39.0102  -10.8934 C   0  0  0  0  0  0  0  0  0  0  0  0
  -14.2361  -39.4324  -12.4760 C   0  0  0  0  0  0  0  0  0  0  0  0
  -14.7692  -38.4379  -10.3076 N   0  0  0  0  0  0  0  0  0  0  0  0
  -15.0431  -39.5132   -9.4646 C   0  0  0  0  0  0  0  0  0  0  0  0
  -16.1024  -40.4398   -9.9174 C   0  0  1  0  0  0  0  0  0  0  0  0
  -15.8111  -41.7605   -9.6627 O   0  0  0  0  0  0  0  0  0  0  0  0
  -17.4763  -40.1042   -9.3364 C   0  0  2  0  0  0  0  0  0  0  0  0
  -18.1401  -39.1623  -10.3464 C   0  0  0  0  0  0  0  0  0  0  0  0
  -19.6123  -39.0887  -10.2678 C   0  0  2  0  0  0  0  0  0  0  0  0
  -20.0390  -37.7702   -9.6550 C   0  0  0  0  0  0  0  0  0  0  0  0
  -20.3180  -40.2840   -9.7252 C   0  0  0  0  0  0  0  0  0  0  0  0
  -21.8137  -39.9878   -9.6514 C   0  0  0  0  0  0  0  0  0  0  0  0
  -22.1880  -39.3922   -8.3163 C   0  0  0  0  0  0  0  0  0  0  0  0
  -23.3080  -40.1326   -7.6205 C   0  0  0  0  0  0  0  0  0  0  0  0
  -23.0751  -39.9883   -6.1413 C   0  0  0  0  0  0  0  0  0  0  0  0
  -23.1867  -41.2395   -5.3695 C   0  0  0  0  0  0  0  0  0  0  0  0
  -22.0986  -41.5962   -4.4452 C   0  0  0  0  0  0  0  0  0  0  0  0
  -20.7146  -41.1617   -4.7897 C   0  0  0  0  0  0  0  0  0  0  0  0
  -20.2647  -41.8633   -6.0134 C   0  0  0  0  0  0  0  0  0  0  0  0
  -21.1448  -42.4038   -6.7467 O   0  0  0  0  0  0  0  0  0  0  0  0
  -18.9020  -41.9807   -6.4385 N   0  0  0  0  0  0  0  0  0  0  0  0
  -18.4681  -43.1534   -7.2056 C   0  0  0  0  0  0  0  0  0  0  0  0
  -17.9548  -40.9441   -6.1002 C   0  0  1  0  0  0  0  0  0  0  0  0
  -16.5213  -41.4692   -5.9941 C   0  0  0  0  0  0  0  0  0  0  0  0
  -18.0353  -39.7076   -6.8659 C   0  0  0  0  0  0  0  0  0  0  0  0
  -18.7507  -38.7605   -6.3662 O   0  0  0  0  0  0  0  0  0  0  0  0
  -17.4267  -39.3975   -8.1003 N   0  0  0  0  0  0  0  0  0  0  0  0
  1  2  1  0
  2  3  1  0
  2  4  1  0
  4  5  1  0
  5  6  2  0
  6  7  1  0
  7  8  2  0
  8  9  1  0
  9 10  2  0
  7 11  1  0
 11 12  1  0
 11 13  1  0
 11 14  1  0
 14 15  1  0
 15 16  1  0
 16 17  1  1
 16 18  1  0
 18 19  1  6
 19 20  1  0
 20 21  1  1
 20 22  1  0
 22 23  1  0
 23 24  1  0
 24 25  1  0
 25 26  1  0
 26 27  1  0
 27 28  1  0
 28 29  1  0
 29 30  1  0
 30 31  2  0
 30 32  1  0
 32 33  1  0
 32 34  1  0
 34 35  1  6
 34 36  1  0
 36 37  2  0
 36 38  1  0
 10  5  1  0
 38 18  1  0
M  END
$$$$
