
     RDKit          3D

 38 39  0  0  0  0  0  0  0  0999 V2000
  -24.6875  -42.2207   -7.4460 C   0  0  0  0  0  0  0  0  0  0  0  0
  -24.4840  -42.6793   -6.0071 C   0  0  0  0  0  0  0  0  0  0  0  0
  -25.3371  -43.9125   -5.7556 C   0  0  0  0  0  0  0  0  0  0  0  0
  -23.0448  -43.0407   -5.7463 C   0  0  0  0  0  0  0  0  0  0  0  0
  -22.2690  -41.8006   -5.5631 C   0  0  0  0  0  0  0  0  0  0  0  0
  -21.5113  -41.2595   -6.5813 C   0  0  0  0  0  0  0  0  0  0  0  0
  -20.8234  -40.0999   -6.3292 C   0  0  0  0  0  0  0  0  0  0  0  0
  -20.8860  -39.4901   -5.0902 C   0  0  0  0  0  0  0  0  0  0  0  0
  -21.6396  -40.0350   -4.0895 N   0  0  0  0  0  0  0  0  0  0  0  0
  -22.3069  -41.1635   -4.3422 C   0  0  0  0  0  0  0  0  0  0  0  0
  -19.9377  -39.4353   -7.3608 C   0  0  0  0  0  0  0  0  0  0  0  0
  -20.6175  -38.1148   -7.6615 C   0  0  0  0  0  0  0  0  0  0  0  0
  -20.0349  -40.2821   -8.6090 C   0  0  0  0  0  0  0  0  0  0  0  0
  -18.6053  -39.3228   -6.8738 N   0  0  0  0  0  0  0  0  0  0  0  0
  -17.5227  -39.8382   -7.5841 C   0  0  0  0  0  0  0  0  0  0  0  0
  -16.2547  -39.0863   -7.4712 C   0  0  1  0  0  0  0  0  0  0  0  0
  -15.2667  -39.7869   -6.8179 O   0  0  0  0  0  0  0  0  0  0  0  0
  -15.7245  -38.6054   -8.8222 C   0  0  2  0  0  0  0  0  0  0  0  0
  -16.3812  -37.2433   -9.0698 C   0  0  0  0  0  0  0  0  0  0  0  0
  -15.6821  -36.3715  -10.0343 C   0  0  2  0  0  0  0  0  0  0  0  0
  -16.4493  -36.3133  -11.3397 C   0  0  0  0  0  0  0  0  0  0  0  0
  -14.2135  -36.5757  -10.1846 C   0  0  0  0  0  0  0  0  0  0  0  0
  -13.6902  -35.6423  -11.2732 C   0  0  0  0  0  0  0  0  0  0  0  0
  -13.7327  -36.3048  -12.6285 C   0  0  0  0  0  0  0  0  0  0  0  0
  -12.4052  -36.2785  -13.3523 C   0  0  0  0  0  0  0  0  0  0  0  0
  -12.3475  -37.5163  -14.2054 C   0  0  0  0  0  0  0  0  0  0  0  0
  -11.0868  -38.2751  -14.1152 C   0  0  0  0  0  0  0  0  0  0  0  0
  -11.1528  -39.7226  -13.8587 C   0  0  0  0  0  0  0  0  0  0  0  0
  -12.2868  -40.2392  -13.0401 C   0  0  0  0  0  0  0  0  0  0  0  0
  -12.1714  -39.7288  -11.6550 C   0  0  0  0  0  0  0  0  0  0  0  0
  -11.4196  -38.7301  -11.4499 O   0  0  0  0  0  0  0  0  0  0  0  0
  -12.8478  -40.2783  -10.5184 N   0  0  0  0  0  0  0  0  0  0  0  0
  -12.2374  -40.1957   -9.1871 C   0  0  0  0  0  0  0  0  0  0  0  0
  -14.1288  -40.9229  -10.6904 C   0  0  1  0  0  0  0  0  0  0  0  0
  -14.3926  -41.9984   -9.6342 C   0  0  0  0  0  0  0  0  0  0  0  0
  -15.2789  -40.0519  -10.8915 C   0  0  0  0  0  0  0  0  0  0  0  0
  -15.6111  -39.8005  -12.1101 O   0  0  0  0  0  0  0  0  0  0  0  0
  -16.0946  -39.4353   -9.9195 N   0  0  0  0  0  0  0  0  0  0  0  0
  1  2  1  0
  2  3  1  0
  2  4  1  0
  4  5  1  0
  5  6  2  0
  6  7  1  0
  7  8  2  0
  8  9  1  0
  9 10  2  0
  7 11  1  0
 11 12  1  0
 11 13  1  0
 11 14  1  0
 14 15  1  0
 15 16  1  0
 16 17  1  6
 16 18  1  0
 18 19  1  6
 19 20  1  0
 20 21  1  6
 20 22  1  0
 22 23  1  0
 23 24  1  0
 24 25  1  0
 25 26  1  0
 26 27  1  0
 27 28  1  0
 28 29  1  0
 29 30  1  0
 30 31  2  0
 30 32  1  0
 32 33  1  0
 32 34  1  0
 34 35  1  1
 34 36  1  0
 36 37  2  0
 36 38  1  0
 10  5  1  0
 38 18  1  0
M  END
$$$$
