
     RDKit          3D

 38 39  0  0  0  0  0  0  0  0999 V2000
   -9.9430  -34.8825  -12.1832 C   0  0  0  0  0  0  0  0  0  0  0  0
  -10.7001  -36.1473  -11.7968 C   0  0  0  0  0  0  0  0  0  0  0  0
  -11.4545  -35.8958  -10.5009 C   0  0  0  0  0  0  0  0  0  0  0  0
  -11.6993  -36.5324  -12.8566 C   0  0  0  0  0  0  0  0  0  0  0  0
  -11.9671  -37.9785  -12.7542 C   0  0  0  0  0  0  0  0  0  0  0  0
  -12.7377  -38.5055  -11.7382 C   0  0  0  0  0  0  0  0  0  0  0  0
  -12.9424  -39.8616  -11.7189 C   0  0  0  0  0  0  0  0  0  0  0  0
  -12.3922  -40.6785  -12.6889 C   0  0  0  0  0  0  0  0  0  0  0  0
  -11.6309  -40.1455  -13.6902 N   0  0  0  0  0  0  0  0  0  0  0  0
  -11.4362  -38.8247  -13.7029 C   0  0  0  0  0  0  0  0  0  0  0  0
  -13.7440  -40.5509  -10.6361 C   0  0  0  0  0  0  0  0  0  0  0  0
  -13.1616  -40.0353   -9.3357 C   0  0  0  0  0  0  0  0  0  0  0  0
  -13.4011  -42.0201  -10.7275 C   0  0  0  0  0  0  0  0  0  0  0  0
  -15.1338  -40.2978  -10.8089 N   0  0  0  0  0  0  0  0  0  0  0  0
  -15.9834  -40.1160   -9.7194 C   0  0  0  0  0  0  0  0  0  0  0  0
  -17.0959  -39.1622   -9.9155 C   0  0  1  0  0  0  0  0  0  0  0  0
  -17.6142  -39.1904  -11.1900 O   0  0  0  0  0  0  0  0  0  0  0  0
  -18.2279  -39.3507   -8.9052 C   0  0  2  0  0  0  0  0  0  0  0  0
  -18.7002  -37.9404   -8.5365 C   0  0  0  0  0  0  0  0  0  0  0  0
  -20.0638  -37.8575   -7.9771 C   0  0  2  0  0  0  0  0  0  0  0  0
  -20.0035  -37.5841   -6.4880 C   0  0  0  0  0  0  0  0  0  0  0  0
  -21.0206  -38.9288   -8.3745 C   0  0  0  0  0  0  0  0  0  0  0  0
  -22.3411  -38.7143   -7.6393 C   0  0  0  0  0  0  0  0  0  0  0  0
  -22.3578  -39.4470   -6.3201 C   0  0  0  0  0  0  0  0  0  0  0  0
  -23.5539  -40.3569   -6.1529 C   0  0  0  0  0  0  0  0  0  0  0  0
  -23.1115  -41.5070   -5.2899 C   0  0  0  0  0  0  0  0  0  0  0  0
  -23.4942  -42.8409   -5.7877 C   0  0  0  0  0  0  0  0  0  0  0  0
  -22.4570  -43.8801   -5.8862 C   0  0  0  0  0  0  0  0  0  0  0  0
  -21.0588  -43.4508   -6.1752 C   0  0  0  0  0  0  0  0  0  0  0  0
  -20.9884  -42.8750   -7.5374 C   0  0  0  0  0  0  0  0  0  0  0  0
  -22.0710  -42.5153   -8.0878 O   0  0  0  0  0  0  0  0  0  0  0  0
  -19.7834  -42.6902   -8.2895 N   0  0  0  0  0  0  0  0  0  0  0  0
  -19.8125  -42.7550   -9.7547 C   0  0  0  0  0  0  0  0  0  0  0  0
  -18.5382  -42.4496   -7.5985 C   0  0  1  0  0  0  0  0  0  0  0  0
  -17.3226  -42.9369   -8.3902 C   0  0  0  0  0  0  0  0  0  0  0  0
  -18.3410  -41.1153   -7.0487 C   0  0  0  0  0  0  0  0  0  0  0  0
  -18.6779  -40.9383   -5.8184 O   0  0  0  0  0  0  0  0  0  0  0  0
  -17.8220  -39.9696   -7.6878 N   0  0  0  0  0  0  0  0  0  0  0  0
  1  2  1  0
  2  3  1  0
  2  4  1  0
  4  5  1  0
  5  6  2  0
  6  7  1  0
  7  8  2  0
  8  9  1  0
  9 10  2  0
  7 11  1  0
 11 12  1  0
 11 13  1  0
 11 14  1  0
 14 15  1  0
 15 16  1  0
 16 17  1  6
 16 18  1  0
 18 19  1  1
 19 20  1  0
 20 21  1  1
 20 22  1  0
 22 23  1  0
 23 24  1  0
 24 25  1  0
 25 26  1  0
 26 27  1  0
 27 28  1  0
 28 29  1  0
 29 30  1  0
 30 31  2  0
 30 32  1  0
 32 33  1  0
 32 34  1  0
 34 35  1  6
 34 36  1  0
 36 37  2  0
 36 38  1  0
 10  5  1  0
 38 18  1  0
M  END
$$$$
