
     RDKit          3D

 38 39  0  0  0  0  0  0  0  0999 V2000
  -16.3737  -33.8145  -12.3111 C   0  0  0  0  0  0  0  0  0  0  0  0
  -15.2943  -34.6627  -11.6497 C   0  0  0  0  0  0  0  0  0  0  0  0
  -15.7903  -35.1199  -10.2870 C   0  0  0  0  0  0  0  0  0  0  0  0
  -14.9794  -35.8858  -12.4712 C   0  0  0  0  0  0  0  0  0  0  0  0
  -13.8719  -36.6172  -11.8294 C   0  0  0  0  0  0  0  0  0  0  0  0
  -14.0699  -37.8262  -11.1948 C   0  0  0  0  0  0  0  0  0  0  0  0
  -12.9845  -38.4439  -10.6273 C   0  0  0  0  0  0  0  0  0  0  0  0
  -11.7275  -37.8718  -10.6881 C   0  0  0  0  0  0  0  0  0  0  0  0
  -11.5435  -36.6743  -11.3192 N   0  0  0  0  0  0  0  0  0  0  0  0
  -12.6043  -36.0790  -11.8696 C   0  0  0  0  0  0  0  0  0  0  0  0
  -13.0899  -39.7558   -9.8804 C   0  0  0  0  0  0  0  0  0  0  0  0
  -12.9118  -39.3862   -8.4217 C   0  0  0  0  0  0  0  0  0  0  0  0
  -11.8827  -40.5702  -10.2853 C   0  0  0  0  0  0  0  0  0  0  0  0
  -14.3194  -40.4043  -10.1854 N   0  0  0  0  0  0  0  0  0  0  0  0
  -15.3809  -40.4178   -9.2826 C   0  0  0  0  0  0  0  0  0  0  0  0
  -16.7248  -40.6241   -9.8634 C   0  0  1  0  0  0  0  0  0  0  0  0
  -16.9007  -41.8852  -10.3854 O   0  0  0  0  0  0  0  0  0  0  0  0
  -17.8532  -40.3235   -8.8765 C   0  0  2  0  0  0  0  0  0  0  0  0
  -18.0918  -38.8122   -8.9597 C   0  0  0  0  0  0  0  0  0  0  0  0
  -19.4149  -38.3553   -8.4909 C   0  0  2  0  0  0  0  0  0  0  0  0
  -19.2847  -37.6613   -7.1502 C   0  0  0  0  0  0  0  0  0  0  0  0
  -20.5350  -39.3345   -8.5782 C   0  0  0  0  0  0  0  0  0  0  0  0
  -21.7916  -38.7077   -7.9796 C   0  0  0  0  0  0  0  0  0  0  0  0
  -21.8982  -38.9998   -6.5029 C   0  0  0  0  0  0  0  0  0  0  0  0
  -23.2189  -39.6210   -6.1069 C   0  0  0  0  0  0  0  0  0  0  0  0
  -22.9461  -40.5139   -4.9273 C   0  0  0  0  0  0  0  0  0  0  0  0
  -23.5423  -41.8594   -5.0151 C   0  0  0  0  0  0  0  0  0  0  0  0
  -22.6828  -43.0280   -4.7684 C   0  0  0  0  0  0  0  0  0  0  0  0
  -21.2402  -42.9273   -5.1312 C   0  0  0  0  0  0  0  0  0  0  0  0
  -21.1058  -42.8040   -6.6005 C   0  0  0  0  0  0  0  0  0  0  0  0
  -22.1289  -42.4622   -7.2647 O   0  0  0  0  0  0  0  0  0  0  0  0
  -19.9011  -43.0420   -7.3377 N   0  0  0  0  0  0  0  0  0  0  0  0
  -19.9673  -43.5372   -8.7170 C   0  0  0  0  0  0  0  0  0  0  0  0
  -18.6209  -42.8017   -6.7139 C   0  0  1  0  0  0  0  0  0  0  0  0
  -17.5116  -43.6860   -7.2880 C   0  0  0  0  0  0  0  0  0  0  0  0
  -18.2068  -41.4114   -6.5820 C   0  0  0  0  0  0  0  0  0  0  0  0
  -18.4888  -40.8242   -5.4710 O   0  0  0  0  0  0  0  0  0  0  0  0
  -17.5267  -40.6047   -7.5185 N   0  0  0  0  0  0  0  0  0  0  0  0
  1  2  1  0
  2  3  1  0
  2  4  1  0
  4  5  1  0
  5  6  2  0
  6  7  1  0
  7  8  2  0
  8  9  1  0
  9 10  2  0
  7 11  1  0
 11 12  1  0
 11 13  1  0
 11 14  1  0
 14 15  1  0
 15 16  1  0
 16 17  1  1
 16 18  1  0
 18 19  1  1
 19 20  1  0
 20 21  1  1
 20 22  1  0
 22 23  1  0
 23 24  1  0
 24 25  1  0
 25 26  1  0
 26 27  1  0
 27 28  1  0
 28 29  1  0
 29 30  1  0
 30 31  2  0
 30 32  1  0
 32 33  1  0
 32 34  1  0
 34 35  1  6
 34 36  1  0
 36 37  2  0
 36 38  1  0
 10  5  1  0
 38 18  1  0
M  END
$$$$
