
     RDKit          3D

 38 39  0  0  0  0  0  0  0  0999 V2000
  -15.4932  -43.0009  -16.1266 C   0  0  0  0  0  0  0  0  0  0  0  0
  -14.5330  -42.8464  -14.9534 C   0  0  0  0  0  0  0  0  0  0  0  0
  -13.1318  -42.6009  -15.4900 C   0  0  0  0  0  0  0  0  0  0  0  0
  -14.9158  -41.6777  -14.0831 C   0  0  0  0  0  0  0  0  0  0  0  0
  -14.5838  -41.9988  -12.6831 C   0  0  0  0  0  0  0  0  0  0  0  0
  -13.9463  -41.0929  -11.8605 C   0  0  0  0  0  0  0  0  0  0  0  0
  -13.6784  -41.4695  -10.5690 C   0  0  0  0  0  0  0  0  0  0  0  0
  -14.0357  -42.7213  -10.1038 C   0  0  0  0  0  0  0  0  0  0  0  0
  -14.6666  -43.6100  -10.9274 N   0  0  0  0  0  0  0  0  0  0  0  0
  -14.9246  -43.2365  -12.1831 C   0  0  0  0  0  0  0  0  0  0  0  0
  -12.9572  -40.5695   -9.5891 C   0  0  0  0  0  0  0  0  0  0  0  0
  -11.8207  -39.9617  -10.3860 C   0  0  0  0  0  0  0  0  0  0  0  0
  -12.3393  -41.4816   -8.5543 C   0  0  0  0  0  0  0  0  0  0  0  0
  -13.8600  -39.6261   -9.0232 N   0  0  0  0  0  0  0  0  0  0  0  0
  -14.8817  -40.0200   -8.1613 C   0  0  0  0  0  0  0  0  0  0  0  0
  -15.7568  -38.9410   -7.6556 C   0  0  1  0  0  0  0  0  0  0  0  0
  -15.5580  -37.7388   -8.2953 O   0  0  0  0  0  0  0  0  0  0  0  0
  -17.2413  -39.3029   -7.7095 C   0  0  2  0  0  0  0  0  0  0  0  0
  -18.0001  -37.9737   -7.6361 C   0  0  0  0  0  0  0  0  0  0  0  0
  -19.3832  -38.0072   -8.1509 C   0  0  2  0  0  0  0  0  0  0  0  0
  -20.3709  -37.9527   -7.0032 C   0  0  0  0  0  0  0  0  0  0  0  0
  -19.6907  -39.0323   -9.1880 C   0  0  0  0  0  0  0  0  0  0  0  0
  -21.1758  -38.9602   -9.5339 C   0  0  0  0  0  0  0  0  0  0  0  0
  -21.9876  -39.8778   -8.6528 C   0  0  0  0  0  0  0  0  0  0  0  0
  -22.8683  -40.8318   -9.4281 C   0  0  0  0  0  0  0  0  0  0  0  0
  -22.9888  -42.0842   -8.6035 C   0  0  0  0  0  0  0  0  0  0  0  0
  -22.7781  -43.3402   -9.3462 C   0  0  0  0  0  0  0  0  0  0  0  0
  -21.8310  -44.3279   -8.8051 C   0  0  0  0  0  0  0  0  0  0  0  0
  -20.6642  -43.8265   -8.0240 C   0  0  0  0  0  0  0  0  0  0  0  0
  -19.7657  -43.0565   -8.9138 C   0  0  0  0  0  0  0  0  0  0  0  0
  -20.2307  -42.6471  -10.0187 O   0  0  0  0  0  0  0  0  0  0  0  0
  -18.4008  -42.7340   -8.6229 N   0  0  0  0  0  0  0  0  0  0  0  0
  -17.4307  -42.5849   -9.7132 C   0  0  0  0  0  0  0  0  0  0  0  0
  -17.9817  -42.5662   -7.2510 C   0  0  1  0  0  0  0  0  0  0  0  0
  -16.5034  -42.9024   -7.0423 C   0  0  0  0  0  0  0  0  0  0  0  0
  -18.3632  -41.3219   -6.5968 C   0  0  0  0  0  0  0  0  0  0  0  0
  -19.4566  -41.3349   -5.9164 O   0  0  0  0  0  0  0  0  0  0  0  0
  -17.6889  -40.0827   -6.6043 N   0  0  0  0  0  0  0  0  0  0  0  0
  1  2  1  0
  2  3  1  0
  2  4  1  0
  4  5  1  0
  5  6  2  0
  6  7  1  0
  7  8  2  0
  8  9  1  0
  9 10  2  0
  7 11  1  0
 11 12  1  0
 11 13  1  0
 11 14  1  0
 14 15  1  0
 15 16  1  0
 16 17  1  6
 16 18  1  0
 18 19  1  1
 19 20  1  0
 20 21  1  1
 20 22  1  0
 22 23  1  0
 23 24  1  0
 24 25  1  0
 25 26  1  0
 26 27  1  0
 27 28  1  0
 28 29  1  0
 29 30  1  0
 30 31  2  0
 30 32  1  0
 32 33  1  0
 32 34  1  0
 34 35  1  6
 34 36  1  0
 36 37  2  0
 36 38  1  0
 10  5  1  0
 38 18  1  0
M  END
$$$$
