
     RDKit          3D

 38 39  0  0  0  0  0  0  0  0999 V2000
  -23.0379  -40.9551   -5.1750 C   0  0  0  0  0  0  0  0  0  0  0  0
  -22.8986  -39.4415   -5.0677 C   0  0  0  0  0  0  0  0  0  0  0  0
  -23.3508  -38.9999   -3.6848 C   0  0  0  0  0  0  0  0  0  0  0  0
  -21.4678  -39.0088   -5.2560 C   0  0  0  0  0  0  0  0  0  0  0  0
  -21.0344  -39.3789   -6.6156 C   0  0  0  0  0  0  0  0  0  0  0  0
  -20.5203  -40.6272   -6.9007 C   0  0  0  0  0  0  0  0  0  0  0  0
  -20.1453  -40.8921   -8.1932 C   0  0  0  0  0  0  0  0  0  0  0  0
  -20.2774  -39.9360   -9.1830 C   0  0  0  0  0  0  0  0  0  0  0  0
  -20.7877  -38.7035   -8.8889 N   0  0  0  0  0  0  0  0  0  0  0  0
  -21.1511  -38.4528   -7.6288 C   0  0  0  0  0  0  0  0  0  0  0  0
  -19.5417  -42.2147   -8.6134 C   0  0  0  0  0  0  0  0  0  0  0  0
  -19.3983  -42.1140  -10.1185 C   0  0  0  0  0  0  0  0  0  0  0  0
  -20.5916  -43.2655   -8.3341 C   0  0  0  0  0  0  0  0  0  0  0  0
  -18.3257  -42.4511   -7.9130 N   0  0  0  0  0  0  0  0  0  0  0  0
  -17.2939  -41.5145   -7.9053 C   0  0  0  0  0  0  0  0  0  0  0  0
  -17.7042  -40.0958   -7.9741 C   0  0  1  0  0  0  0  0  0  0  0  0
  -17.5914  -39.4410   -6.7690 O   0  0  0  0  0  0  0  0  0  0  0  0
  -16.9532  -39.3094   -9.0489 C   0  0  2  0  0  0  0  0  0  0  0  0
  -17.7726  -38.0368   -9.2872 C   0  0  0  0  0  0  0  0  0  0  0  0
  -17.0323  -36.9140   -9.8958 C   0  0  2  0  0  0  0  0  0  0  0  0
  -17.4442  -36.7382  -11.3433 C   0  0  0  0  0  0  0  0  0  0  0  0
  -15.5617  -36.8697   -9.6578 C   0  0  0  0  0  0  0  0  0  0  0  0
  -14.9688  -35.6909  -10.4252 C   0  0  0  0  0  0  0  0  0  0  0  0
  -14.5437  -36.1006  -11.8140 C   0  0  0  0  0  0  0  0  0  0  0  0
  -13.1070  -35.7508  -12.1306 C   0  0  0  0  0  0  0  0  0  0  0  0
  -12.6037  -36.7948  -13.0897 C   0  0  0  0  0  0  0  0  0  0  0  0
  -11.2856  -37.3636  -12.7538 C   0  0  0  0  0  0  0  0  0  0  0  0
  -11.1383  -38.8273  -12.7192 C   0  0  0  0  0  0  0  0  0  0  0  0
  -12.3222  -39.6425  -12.3233 C   0  0  0  0  0  0  0  0  0  0  0  0
  -12.6568  -39.3753  -10.9059 C   0  0  0  0  0  0  0  0  0  0  0  0
  -12.1839  -38.3295  -10.3701 O   0  0  0  0  0  0  0  0  0  0  0  0
  -13.4799  -40.2118  -10.0848 N   0  0  0  0  0  0  0  0  0  0  0  0
  -13.2500  -40.2784   -8.6375 C   0  0  0  0  0  0  0  0  0  0  0  0
  -14.5306  -40.9969  -10.6893 C   0  0  1  0  0  0  0  0  0  0  0  0
  -14.8421  -42.2702   -9.8994 C   0  0  0  0  0  0  0  0  0  0  0  0
  -15.7370  -40.2831  -11.0851 C   0  0  0  0  0  0  0  0  0  0  0  0
  -15.7944  -39.8706  -12.3038 O   0  0  0  0  0  0  0  0  0  0  0  0
  -16.8720  -39.9762  -10.3054 N   0  0  0  0  0  0  0  0  0  0  0  0
  1  2  1  0
  2  3  1  0
  2  4  1  0
  4  5  1  0
  5  6  2  0
  6  7  1  0
  7  8  2  0
  8  9  1  0
  9 10  2  0
  7 11  1  0
 11 12  1  0
 11 13  1  0
 11 14  1  0
 14 15  1  0
 15 16  1  0
 16 17  1  1
 16 18  1  0
 18 19  1  6
 19 20  1  0
 20 21  1  6
 20 22  1  0
 22 23  1  0
 23 24  1  0
 24 25  1  0
 25 26  1  0
 26 27  1  0
 27 28  1  0
 28 29  1  0
 29 30  1  0
 30 31  2  0
 30 32  1  0
 32 33  1  0
 32 34  1  0
 34 35  1  1
 34 36  1  0
 36 37  2  0
 36 38  1  0
 10  5  1  0
 38 18  1  0
M  END
$$$$
