
     RDKit          3D

 38 39  0  0  0  0  0  0  0  0999 V2000
  -25.1831  -40.7908   -3.9504 C   0  0  0  0  0  0  0  0  0  0  0  0
  -23.6666  -40.8956   -4.0564 C   0  0  0  0  0  0  0  0  0  0  0  0
  -23.1559  -41.8122   -2.9560 C   0  0  0  0  0  0  0  0  0  0  0  0
  -23.2494  -41.4744   -5.3833 C   0  0  0  0  0  0  0  0  0  0  0  0
  -21.8509  -41.0921   -5.6501 C   0  0  0  0  0  0  0  0  0  0  0  0
  -21.5303  -40.0487   -6.4942 C   0  0  0  0  0  0  0  0  0  0  0  0
  -20.2040  -39.7549   -6.6841 C   0  0  0  0  0  0  0  0  0  0  0  0
  -19.2155  -40.4832   -6.0490 C   0  0  0  0  0  0  0  0  0  0  0  0
  -19.5448  -41.5141   -5.2154 N   0  0  0  0  0  0  0  0  0  0  0  0
  -20.8377  -41.7942   -5.0348 C   0  0  0  0  0  0  0  0  0  0  0  0
  -19.7364  -38.6533   -7.6103 C   0  0  0  0  0  0  0  0  0  0  0  0
  -20.6246  -37.4698   -7.2837 C   0  0  0  0  0  0  0  0  0  0  0  0
  -20.0870  -39.1017   -9.0104 C   0  0  0  0  0  0  0  0  0  0  0  0
  -18.3432  -38.4182   -7.4398 N   0  0  0  0  0  0  0  0  0  0  0  0
  -17.3995  -39.4130   -7.6881 C   0  0  0  0  0  0  0  0  0  0  0  0
  -15.9865  -38.9784   -7.7035 C   0  0  1  0  0  0  0  0  0  0  0  0
  -15.1282  -39.9095   -7.1647 O   0  0  0  0  0  0  0  0  0  0  0  0
  -15.4979  -38.5884   -9.0988 C   0  0  2  0  0  0  0  0  0  0  0  0
  -15.5838  -37.0598   -9.1613 C   0  0  0  0  0  0  0  0  0  0  0  0
  -14.7335  -36.4212  -10.1851 C   0  0  2  0  0  0  0  0  0  0  0  0
  -15.5839  -35.9232  -11.3361 C   0  0  0  0  0  0  0  0  0  0  0  0
  -13.5037  -37.1573  -10.5935 C   0  0  0  0  0  0  0  0  0  0  0  0
  -12.8052  -36.3803  -11.7063 C   0  0  0  0  0  0  0  0  0  0  0  0
  -13.2926  -36.8159  -13.0665 C   0  0  0  0  0  0  0  0  0  0  0  0
  -12.1770  -37.2211  -14.0035 C   0  0  0  0  0  0  0  0  0  0  0  0
  -12.7346  -38.2793  -14.9158 C   0  0  0  0  0  0  0  0  0  0  0  0
  -11.8818  -39.4705  -15.0804 C   0  0  0  0  0  0  0  0  0  0  0  0
  -12.4841  -40.7996  -14.8905 C   0  0  0  0  0  0  0  0  0  0  0  0
  -13.6069  -40.9287  -13.9181 C   0  0  0  0  0  0  0  0  0  0  0  0
  -13.1099  -40.6639  -12.5487 C   0  0  0  0  0  0  0  0  0  0  0  0
  -12.0019  -40.0629  -12.4239 O   0  0  0  0  0  0  0  0  0  0  0  0
  -13.7877  -41.0359  -11.3430 N   0  0  0  0  0  0  0  0  0  0  0  0
  -13.0198  -41.3475  -10.1325 C   0  0  0  0  0  0  0  0  0  0  0  0
  -15.2299  -41.1124  -11.3270 C   0  0  1  0  0  0  0  0  0  0  0  0
  -15.7542  -42.1160  -10.2974 C   0  0  0  0  0  0  0  0  0  0  0  0
  -15.9527  -39.8486  -11.2847 C   0  0  0  0  0  0  0  0  0  0  0  0
  -16.3198  -39.3512  -12.4146 O   0  0  0  0  0  0  0  0  0  0  0  0
  -16.3141  -39.0804  -10.1579 N   0  0  0  0  0  0  0  0  0  0  0  0
  1  2  1  0
  2  3  1  0
  2  4  1  0
  4  5  1  0
  5  6  2  0
  6  7  1  0
  7  8  2  0
  8  9  1  0
  9 10  2  0
  7 11  1  0
 11 12  1  0
 11 13  1  0
 11 14  1  0
 14 15  1  0
 15 16  1  0
 16 17  1  6
 16 18  1  0
 18 19  1  1
 19 20  1  0
 20 21  1  6
 20 22  1  0
 22 23  1  0
 23 24  1  0
 24 25  1  0
 25 26  1  0
 26 27  1  0
 27 28  1  0
 28 29  1  0
 29 30  1  0
 30 31  2  0
 30 32  1  0
 32 33  1  0
 32 34  1  0
 34 35  1  1
 34 36  1  0
 36 37  2  0
 36 38  1  0
 10  5  1  0
 38 18  1  0
M  END
$$$$
