
     RDKit          3D

 38 39  0  0  0  0  0  0  0  0999 V2000
  -11.3804  -44.3121   -9.6550 C   0  0  0  0  0  0  0  0  0  0  0  0
  -11.5708  -42.8700  -10.1089 C   0  0  0  0  0  0  0  0  0  0  0  0
  -10.9771  -42.7064  -11.4990 C   0  0  0  0  0  0  0  0  0  0  0  0
  -13.0311  -42.5051  -10.1742 C   0  0  0  0  0  0  0  0  0  0  0  0
  -13.1953  -41.3644  -11.0936 C   0  0  0  0  0  0  0  0  0  0  0  0
  -13.5342  -40.1066  -10.6389 C   0  0  0  0  0  0  0  0  0  0  0  0
  -13.6622  -39.0988  -11.5604 C   0  0  0  0  0  0  0  0  0  0  0  0
  -13.4584  -39.3354  -12.9071 C   0  0  0  0  0  0  0  0  0  0  0  0
  -13.1232  -40.5849  -13.3457 N   0  0  0  0  0  0  0  0  0  0  0  0
  -12.9999  -41.5610  -12.4431 C   0  0  0  0  0  0  0  0  0  0  0  0
  -14.0595  -37.6892  -11.1789 C   0  0  0  0  0  0  0  0  0  0  0  0
  -14.3973  -37.0133  -12.4924 C   0  0  0  0  0  0  0  0  0  0  0  0
  -12.8096  -37.0282  -10.6449 C   0  0  0  0  0  0  0  0  0  0  0  0
  -15.1196  -37.7112  -10.2297 N   0  0  0  0  0  0  0  0  0  0  0  0
  -15.1264  -38.6090   -9.1639 C   0  0  0  0  0  0  0  0  0  0  0  0
  -15.6785  -38.1006   -7.8901 C   0  0  1  0  0  0  0  0  0  0  0  0
  -15.6574  -36.7275   -7.8011 O   0  0  0  0  0  0  0  0  0  0  0  0
  -17.0952  -38.6036   -7.6115 C   0  0  2  0  0  0  0  0  0  0  0  0
  -17.8930  -37.3782   -7.1535 C   0  0  0  0  0  0  0  0  0  0  0  0
  -19.3581  -37.4902   -7.2938 C   0  0  2  0  0  0  0  0  0  0  0  0
  -20.0018  -37.6776   -5.9350 C   0  0  0  0  0  0  0  0  0  0  0  0
  -19.8646  -38.4074   -8.3537 C   0  0  0  0  0  0  0  0  0  0  0  0
  -21.3893  -38.4463   -8.2911 C   0  0  0  0  0  0  0  0  0  0  0  0
  -21.8711  -39.5429   -7.3730 C   0  0  0  0  0  0  0  0  0  0  0  0
  -22.8625  -40.4804   -8.0249 C   0  0  0  0  0  0  0  0  0  0  0  0
  -22.6729  -41.8297   -7.3873 C   0  0  0  0  0  0  0  0  0  0  0  0
  -22.5868  -42.9575   -8.3329 C   0  0  0  0  0  0  0  0  0  0  0  0
  -21.4654  -43.9015   -8.2029 C   0  0  0  0  0  0  0  0  0  0  0  0
  -20.1675  -43.3821   -7.6848 C   0  0  0  0  0  0  0  0  0  0  0  0
  -19.5950  -42.4212   -8.6549 C   0  0  0  0  0  0  0  0  0  0  0  0
  -20.3664  -41.9301   -9.5314 O   0  0  0  0  0  0  0  0  0  0  0  0
  -18.2268  -41.9984   -8.6820 N   0  0  0  0  0  0  0  0  0  0  0  0
  -17.5982  -41.6188   -9.9519 C   0  0  0  0  0  0  0  0  0  0  0  0
  -17.4660  -41.9570   -7.4550 C   0  0  1  0  0  0  0  0  0  0  0  0
  -15.9671  -42.1628   -7.6851 C   0  0  0  0  0  0  0  0  0  0  0  0
  -17.7393  -40.8475   -6.5517 C   0  0  0  0  0  0  0  0  0  0  0  0
  -18.6057  -41.0554   -5.6218 O   0  0  0  0  0  0  0  0  0  0  0  0
  -17.1759  -39.5541   -6.5532 N   0  0  0  0  0  0  0  0  0  0  0  0
  1  2  1  0
  2  3  1  0
  2  4  1  0
  4  5  1  0
  5  6  2  0
  6  7  1  0
  7  8  2  0
  8  9  1  0
  9 10  2  0
  7 11  1  0
 11 12  1  0
 11 13  1  0
 11 14  1  0
 14 15  1  0
 15 16  1  0
 16 17  1  6
 16 18  1  0
 18 19  1  1
 19 20  1  0
 20 21  1  1
 20 22  1  0
 22 23  1  0
 23 24  1  0
 24 25  1  0
 25 26  1  0
 26 27  1  0
 27 28  1  0
 28 29  1  0
 29 30  1  0
 30 31  2  0
 30 32  1  0
 32 33  1  0
 32 34  1  0
 34 35  1  6
 34 36  1  0
 36 37  2  0
 36 38  1  0
 10  5  1  0
 38 18  1  0
M  END
$$$$
