
     RDKit          3D

 38 39  0  0  0  0  0  0  0  0999 V2000
   -9.6439  -38.7562  -14.0142 C   0  0  0  0  0  0  0  0  0  0  0  0
  -10.3184  -37.5798  -14.7094 C   0  0  0  0  0  0  0  0  0  0  0  0
   -9.8391  -37.5161  -16.1509 C   0  0  0  0  0  0  0  0  0  0  0  0
  -11.8169  -37.7349  -14.7175 C   0  0  0  0  0  0  0  0  0  0  0  0
  -12.3605  -37.1653  -13.4711 C   0  0  0  0  0  0  0  0  0  0  0  0
  -12.5537  -37.9357  -12.3429 C   0  0  0  0  0  0  0  0  0  0  0  0
  -13.0592  -37.3264  -11.2228 C   0  0  0  0  0  0  0  0  0  0  0  0
  -13.3675  -35.9788  -11.2232 C   0  0  0  0  0  0  0  0  0  0  0  0
  -13.1719  -35.2259  -12.3462 N   0  0  0  0  0  0  0  0  0  0  0  0
  -12.6791  -35.8255  -13.4326 C   0  0  0  0  0  0  0  0  0  0  0  0
  -13.3402  -38.0791   -9.9403 C   0  0  0  0  0  0  0  0  0  0  0  0
  -13.7707  -37.0138   -8.9525 C   0  0  0  0  0  0  0  0  0  0  0  0
  -12.0095  -38.6164   -9.4660 C   0  0  0  0  0  0  0  0  0  0  0  0
  -14.2998  -39.1055  -10.1663 N   0  0  0  0  0  0  0  0  0  0  0  0
  -15.4083  -39.2637   -9.3367 C   0  0  0  0  0  0  0  0  0  0  0  0
  -16.7088  -38.8488   -9.9045 C   0  0  1  0  0  0  0  0  0  0  0  0
  -17.0227  -39.5044  -11.0731 O   0  0  0  0  0  0  0  0  0  0  0  0
  -17.8654  -38.9966   -8.9156 C   0  0  2  0  0  0  0  0  0  0  0  0
  -18.4942  -37.6046   -8.7943 C   0  0  0  0  0  0  0  0  0  0  0  0
  -19.8854  -37.5811   -8.3016 C   0  0  2  0  0  0  0  0  0  0  0  0
  -19.9274  -37.0733   -6.8746 C   0  0  0  0  0  0  0  0  0  0  0  0
  -20.7094  -38.7971   -8.5535 C   0  0  0  0  0  0  0  0  0  0  0  0
  -22.0798  -38.6123   -7.9071 C   0  0  0  0  0  0  0  0  0  0  0  0
  -22.0892  -39.1273   -6.4886 C   0  0  0  0  0  0  0  0  0  0  0  0
  -23.1953  -40.1222   -6.2176 C   0  0  0  0  0  0  0  0  0  0  0  0
  -22.6839  -41.0694   -5.1666 C   0  0  0  0  0  0  0  0  0  0  0  0
  -22.9060  -42.4978   -5.4562 C   0  0  0  0  0  0  0  0  0  0  0  0
  -21.7666  -43.4231   -5.3515 C   0  0  0  0  0  0  0  0  0  0  0  0
  -20.4056  -42.8977   -5.6587 C   0  0  0  0  0  0  0  0  0  0  0  0
  -20.3249  -42.5378   -7.0926 C   0  0  0  0  0  0  0  0  0  0  0  0
  -21.4092  -42.3860   -7.7297 O   0  0  0  0  0  0  0  0  0  0  0  0
  -19.1083  -42.3454   -7.8237 N   0  0  0  0  0  0  0  0  0  0  0  0
  -19.0574  -42.6412   -9.2596 C   0  0  0  0  0  0  0  0  0  0  0  0
  -17.9295  -41.8684   -7.1390 C   0  0  1  0  0  0  0  0  0  0  0  0
  -16.6332  -42.3411   -7.8009 C   0  0  0  0  0  0  0  0  0  0  0  0
  -17.8944  -40.4511   -6.8045 C   0  0  0  0  0  0  0  0  0  0  0  0
  -18.3085  -40.1209   -5.6306 O   0  0  0  0  0  0  0  0  0  0  0  0
  -17.4611  -39.3708   -7.6016 N   0  0  0  0  0  0  0  0  0  0  0  0
  1  2  1  0
  2  3  1  0
  2  4  1  0
  4  5  1  0
  5  6  2  0
  6  7  1  0
  7  8  2  0
  8  9  1  0
  9 10  2  0
  7 11  1  0
 11 12  1  0
 11 13  1  0
 11 14  1  0
 14 15  1  0
 15 16  1  0
 16 17  1  6
 16 18  1  0
 18 19  1  1
 19 20  1  0
 20 21  1  1
 20 22  1  0
 22 23  1  0
 23 24  1  0
 24 25  1  0
 25 26  1  0
 26 27  1  0
 27 28  1  0
 28 29  1  0
 29 30  1  0
 30 31  2  0
 30 32  1  0
 32 33  1  0
 32 34  1  0
 34 35  1  6
 34 36  1  0
 36 37  2  0
 36 38  1  0
 10  5  1  0
 38 18  1  0
M  END
$$$$
