
     RDKit          3D

 38 39  0  0  0  0  0  0  0  0999 V2000
  -14.5576  -39.3943  -16.1672 C   0  0  0  0  0  0  0  0  0  0  0  0
  -13.5717  -39.4879  -15.0090 C   0  0  0  0  0  0  0  0  0  0  0  0
  -12.4510  -40.4424  -15.3893 C   0  0  0  0  0  0  0  0  0  0  0  0
  -12.9624  -38.1453  -14.6992 C   0  0  0  0  0  0  0  0  0  0  0  0
  -13.2327  -37.8149  -13.2881 C   0  0  0  0  0  0  0  0  0  0  0  0
  -12.7826  -38.6115  -12.2554 C   0  0  0  0  0  0  0  0  0  0  0  0
  -13.0732  -38.2296  -10.9704 C   0  0  0  0  0  0  0  0  0  0  0  0
  -13.7972  -37.0798  -10.7160 C   0  0  0  0  0  0  0  0  0  0  0  0
  -14.2377  -36.2988  -11.7466 N   0  0  0  0  0  0  0  0  0  0  0  0
  -13.9508  -36.6764  -12.9947 C   0  0  0  0  0  0  0  0  0  0  0  0
  -12.6570  -39.0420   -9.7633 C   0  0  0  0  0  0  0  0  0  0  0  0
  -12.5009  -38.0273   -8.6489 C   0  0  0  0  0  0  0  0  0  0  0  0
  -11.2794  -39.5815  -10.0723 C   0  0  0  0  0  0  0  0  0  0  0  0
  -13.6061  -40.0704   -9.5048 N   0  0  0  0  0  0  0  0  0  0  0  0
  -14.9442  -39.7801   -9.2452 C   0  0  0  0  0  0  0  0  0  0  0  0
  -15.3218  -39.6785   -7.8194 C   0  0  1  0  0  0  0  0  0  0  0  0
  -14.8116  -38.5588   -7.2031 O   0  0  0  0  0  0  0  0  0  0  0  0
  -16.8337  -39.7328   -7.5978 C   0  0  2  0  0  0  0  0  0  0  0  0
  -17.2319  -38.3465   -7.0806 C   0  0  0  0  0  0  0  0  0  0  0  0
  -18.6545  -37.9927   -7.2543 C   0  0  2  0  0  0  0  0  0  0  0  0
  -19.3733  -38.0428   -5.9213 C   0  0  0  0  0  0  0  0  0  0  0  0
  -19.3798  -38.6516   -8.3771 C   0  0  0  0  0  0  0  0  0  0  0  0
  -20.8438  -38.2205   -8.3448 C   0  0  0  0  0  0  0  0  0  0  0  0
  -21.6723  -39.1609   -7.5042 C   0  0  0  0  0  0  0  0  0  0  0  0
  -22.8797  -39.7106   -8.2300 C   0  0  0  0  0  0  0  0  0  0  0  0
  -23.1375  -41.0839   -7.6724 C   0  0  0  0  0  0  0  0  0  0  0  0
  -23.3682  -42.1319   -8.6833 C   0  0  0  0  0  0  0  0  0  0  0  0
  -22.5969  -43.3817   -8.5906 C   0  0  0  0  0  0  0  0  0  0  0  0
  -21.2218  -43.3169   -8.0182 C   0  0  0  0  0  0  0  0  0  0  0  0
  -20.3469  -42.5306   -8.9174 C   0  0  0  0  0  0  0  0  0  0  0  0
  -20.8977  -41.7799   -9.7763 O   0  0  0  0  0  0  0  0  0  0  0  0
  -18.9149  -42.5507   -8.8937 N   0  0  0  0  0  0  0  0  0  0  0  0
  -18.1545  -42.3180  -10.1264 C   0  0  0  0  0  0  0  0  0  0  0  0
  -18.2231  -42.8107   -7.6528 C   0  0  1  0  0  0  0  0  0  0  0  0
  -16.8529  -43.4574   -7.8677 C   0  0  0  0  0  0  0  0  0  0  0  0
  -18.1744  -41.7199   -6.6887 C   0  0  0  0  0  0  0  0  0  0  0  0
  -19.0958  -41.6982   -5.7891 O   0  0  0  0  0  0  0  0  0  0  0  0
  -17.2409  -40.6658   -6.6011 N   0  0  0  0  0  0  0  0  0  0  0  0
  1  2  1  0
  2  3  1  0
  2  4  1  0
  4  5  1  0
  5  6  2  0
  6  7  1  0
  7  8  2  0
  8  9  1  0
  9 10  2  0
  7 11  1  0
 11 12  1  0
 11 13  1  0
 11 14  1  0
 14 15  1  0
 15 16  1  0
 16 17  1  6
 16 18  1  0
 18 19  1  1
 19 20  1  0
 20 21  1  1
 20 22  1  0
 22 23  1  0
 23 24  1  0
 24 25  1  0
 25 26  1  0
 26 27  1  0
 27 28  1  0
 28 29  1  0
 29 30  1  0
 30 31  2  0
 30 32  1  0
 32 33  1  0
 32 34  1  0
 34 35  1  6
 34 36  1  0
 36 37  2  0
 36 38  1  0
 10  5  1  0
 38 18  1  0
M  END
$$$$
