
     RDKit          3D

 38 39  0  0  0  0  0  0  0  0999 V2000
  -17.6363  -33.7814  -11.7995 C   0  0  0  0  0  0  0  0  0  0  0  0
  -16.7514  -34.8931  -11.2490 C   0  0  0  0  0  0  0  0  0  0  0  0
  -17.6274  -36.0680  -10.8441 C   0  0  0  0  0  0  0  0  0  0  0  0
  -15.7681  -35.3734  -12.2846 C   0  0  0  0  0  0  0  0  0  0  0  0
  -14.5278  -35.7898  -11.6053 C   0  0  0  0  0  0  0  0  0  0  0  0
  -14.2580  -37.1149  -11.3315 C   0  0  0  0  0  0  0  0  0  0  0  0
  -13.0782  -37.4176  -10.7007 C   0  0  0  0  0  0  0  0  0  0  0  0
  -12.1842  -36.4239  -10.3481 C   0  0  0  0  0  0  0  0  0  0  0  0
  -12.4619  -35.1152  -10.6243 N   0  0  0  0  0  0  0  0  0  0  0  0
  -13.6120  -34.8280  -11.2388 C   0  0  0  0  0  0  0  0  0  0  0  0
  -12.6930  -38.8319  -10.3243 C   0  0  0  0  0  0  0  0  0  0  0  0
  -12.0116  -38.7020   -8.9771 C   0  0  0  0  0  0  0  0  0  0  0  0
  -11.6387  -39.2610  -11.3186 C   0  0  0  0  0  0  0  0  0  0  0  0
  -13.8371  -39.6782  -10.3348 N   0  0  0  0  0  0  0  0  0  0  0  0
  -14.5450  -39.9629   -9.1687 C   0  0  0  0  0  0  0  0  0  0  0  0
  -15.6453  -40.9416   -9.2995 C   0  0  1  0  0  0  0  0  0  0  0  0
  -15.3262  -42.1841   -8.8012 O   0  0  0  0  0  0  0  0  0  0  0  0
  -16.9495  -40.4612   -8.6623 C   0  0  2  0  0  0  0  0  0  0  0  0
  -17.0665  -38.9748   -9.0159 C   0  0  0  0  0  0  0  0  0  0  0  0
  -18.4304  -38.4146   -8.9451 C   0  0  2  0  0  0  0  0  0  0  0  0
  -18.5690  -37.5258   -7.7257 C   0  0  0  0  0  0  0  0  0  0  0  0
  -19.5598  -39.3642   -9.1542 C   0  0  0  0  0  0  0  0  0  0  0  0
  -20.8783  -38.6180   -8.9673 C   0  0  0  0  0  0  0  0  0  0  0  0
  -21.3406  -38.6755   -7.5319 C   0  0  0  0  0  0  0  0  0  0  0  0
  -22.7535  -39.1913   -7.3756 C   0  0  0  0  0  0  0  0  0  0  0  0
  -22.8168  -39.8985   -6.0494 C   0  0  0  0  0  0  0  0  0  0  0  0
  -23.4605  -41.2244   -6.0820 C   0  0  0  0  0  0  0  0  0  0  0  0
  -22.7567  -42.3643   -5.4732 C   0  0  0  0  0  0  0  0  0  0  0  0
  -21.2659  -42.3606   -5.4939 C   0  0  0  0  0  0  0  0  0  0  0  0
  -20.7891  -42.4695   -6.8914 C   0  0  0  0  0  0  0  0  0  0  0  0
  -21.6078  -42.2063   -7.8214 O   0  0  0  0  0  0  0  0  0  0  0  0
  -19.4644  -42.8517   -7.2796 N   0  0  0  0  0  0  0  0  0  0  0  0
  -19.2422  -43.5520   -8.5493 C   0  0  0  0  0  0  0  0  0  0  0  0
  -18.3498  -42.5534   -6.4109 C   0  0  1  0  0  0  0  0  0  0  0  0
  -17.1963  -43.5461   -6.5722 C   0  0  0  0  0  0  0  0  0  0  0  0
  -17.8902  -41.1714   -6.3856 C   0  0  0  0  0  0  0  0  0  0  0  0
  -18.3829  -40.4121   -5.4695 O   0  0  0  0  0  0  0  0  0  0  0  0
  -16.9631  -40.5381   -7.2397 N   0  0  0  0  0  0  0  0  0  0  0  0
  1  2  1  0
  2  3  1  0
  2  4  1  0
  4  5  1  0
  5  6  2  0
  6  7  1  0
  7  8  2  0
  8  9  1  0
  9 10  2  0
  7 11  1  0
 11 12  1  0
 11 13  1  0
 11 14  1  0
 14 15  1  0
 15 16  1  0
 16 17  1  1
 16 18  1  0
 18 19  1  1
 19 20  1  0
 20 21  1  1
 20 22  1  0
 22 23  1  0
 23 24  1  0
 24 25  1  0
 25 26  1  0
 26 27  1  0
 27 28  1  0
 28 29  1  0
 29 30  1  0
 30 31  2  0
 30 32  1  0
 32 33  1  0
 32 34  1  0
 34 35  1  6
 34 36  1  0
 36 37  2  0
 36 38  1  0
 10  5  1  0
 38 18  1  0
M  END
$$$$
