
     RDKit          3D

 43 47  0  0  0  0  0  0  0  0999 V2000
   -9.9316  -38.9407   -8.6127 C   0  0  0  0  0  0  0  0  0  0  0  0
   -9.9012  -37.5234   -9.1161 C   0  0  0  0  0  0  0  0  0  0  0  0
   -8.5608  -37.1361   -9.7148 C   0  0  0  0  0  0  0  0  0  0  0  0
  -11.0362  -37.2435  -10.0323 C   0  0  0  0  0  0  0  0  0  0  0  0
  -12.2352  -37.9113   -9.8658 C   0  0  0  0  0  0  0  0  0  0  0  0
  -13.3138  -37.6576  -10.6900 C   0  0  0  0  0  0  0  0  0  0  0  0
  -13.1427  -36.7141  -11.6852 C   0  0  0  0  0  0  0  0  0  0  0  0
  -11.9435  -36.0271  -11.8754 C   0  0  0  0  0  0  0  0  0  0  0  0
  -10.8940  -36.3073  -11.0320 C   0  0  0  0  0  0  0  0  0  0  0  0
  -14.1823  -36.4059  -12.5566 O   0  0  0  0  0  0  0  0  0  0  0  0
  -15.5153  -36.7561  -12.2977 C   0  0  0  0  0  0  0  0  0  0  0  0
  -15.8808  -37.8628  -13.2887 C   0  0  0  0  0  0  0  0  0  0  0  0
  -16.3899  -35.5675  -12.6015 C   0  0  0  0  0  0  0  0  0  0  0  0
  -15.6915  -37.2486  -10.8741 C   0  0  0  0  0  0  0  0  0  0  0  0
  -14.5928  -38.2958  -10.5765 C   0  0  2  0  0  0  0  0  0  0  0  0
  -14.9590  -39.0489   -9.4464 N   0  0  0  0  0  0  0  0  0  0  0  0
  -16.0959  -39.8757   -9.4949 C   0  0  0  0  0  0  0  0  0  0  0  0
  -17.4343  -39.3546   -9.2701 C   0  0  1  0  0  0  0  0  0  0  0  0
  -18.2509  -39.7317  -10.3757 O   0  0  0  0  0  0  0  0  0  0  0  0
  -18.2327  -39.5969   -8.0565 C   0  0  2  0  0  0  0  0  0  0  0  0
  -19.1342  -38.4536   -7.6461 C   0  0  0  0  0  0  0  0  0  0  0  0
  -20.5385  -38.8764   -7.2990 C   0  0  0  0  0  0  0  0  0  0  0  0
  -21.5576  -39.3195   -8.0972 C   0  0  0  0  0  0  0  0  0  0  0  0
  -22.7491  -39.6678   -7.4843 C   0  0  0  0  0  0  0  0  0  0  0  0
  -22.8858  -39.5570   -6.0777 C   0  0  0  0  0  0  0  0  0  0  0  0
  -21.8842  -39.1172   -5.2595 C   0  0  0  0  0  0  0  0  0  0  0  0
  -20.7182  -38.7821   -5.8965 C   0  0  0  0  0  0  0  0  0  0  0  0
  -23.9184  -40.1364   -8.0342 O   0  0  0  0  0  0  0  0  0  0  0  0
  -24.3650  -41.0747   -8.9267 C   0  0  0  0  0  0  0  0  0  0  0  0
  -25.0655  -42.2203   -8.2473 C   0  0  0  0  0  0  0  0  0  0  0  0
  -24.1279  -42.9997   -7.4061 C   0  0  0  0  0  0  0  0  0  0  0  0
  -23.1461  -43.8050   -8.2185 C   0  0  0  0  0  0  0  0  0  0  0  0
  -22.0194  -44.0834   -7.5294 O   0  0  0  0  0  0  0  0  0  0  0  0
  -21.0033  -43.5323   -6.8051 C   0  0  0  0  0  0  0  0  0  0  0  0
  -19.9441  -42.7089   -7.2122 C   0  0  0  0  0  0  0  0  0  0  0  0
  -19.0533  -42.2967   -6.2645 C   0  0  0  0  0  0  0  0  0  0  0  0
  -19.2628  -42.7367   -4.9240 C   0  0  0  0  0  0  0  0  0  0  0  0
  -20.2933  -43.5409   -4.5164 C   0  0  0  0  0  0  0  0  0  0  0  0
  -20.4700  -43.9453   -3.0955 C   0  0  0  0  0  0  0  0  0  0  0  0
  -21.1217  -43.9044   -5.4831 N   0  0  0  0  0  0  0  0  0  0  0  0
  -17.8476  -41.4584   -6.3347 C   0  0  0  0  0  0  0  0  0  0  0  0
  -16.7780  -41.9266   -5.7241 O   0  0  0  0  0  0  0  0  0  0  0  0
  -17.5669  -40.2059   -6.9341 N   0  0  0  0  0  0  0  0  0  0  0  0
  1  2  1  0
  2  3  1  0
  2  4  1  0
  4  5  2  0
  5  6  1  0
  6  7  2  0
  7  8  1  0
  8  9  2  0
  7 10  1  0
 10 11  1  0
 11 12  1  0
 11 13  1  0
 11 14  1  0
 14 15  1  0
 15 16  1  1
 16 17  1  0
 17 18  1  0
 18 19  1  6
 18 20  1  0
 20 21  1  1
 21 22  1  0
 22 23  2  0
 23 24  1  0
 24 25  2  0
 25 26  1  0
 26 27  2  0
 24 28  1  0
 28 29  1  0
 29 30  1  0
 30 31  1  0
 31 32  1  0
 32 33  1  0
 33 34  1  0
 34 35  2  0
 35 36  1  0
 36 37  2  0
 37 38  1  0
 38 39  1  0
 38 40  2  0
 36 41  1  0
 41 42  2  0
 41 43  1  0
  9  4  1  0
 15  6  1  0
 27 22  1  0
 40 34  1  0
 43 20  1  0
M  END
$$$$
