
     RDKit          3D

 43 47  0  0  0  0  0  0  0  0999 V2000
  -19.5577  -36.3655  -11.3143 C   0  0  0  0  0  0  0  0  0  0  0  0
  -18.8856  -37.1848  -12.3822 C   0  0  0  0  0  0  0  0  0  0  0  0
  -19.3715  -36.8482  -13.7807 C   0  0  0  0  0  0  0  0  0  0  0  0
  -17.4061  -37.1293  -12.2648 C   0  0  0  0  0  0  0  0  0  0  0  0
  -16.7086  -38.2409  -11.8298 C   0  0  0  0  0  0  0  0  0  0  0  0
  -15.3314  -38.2250  -11.7294 C   0  0  0  0  0  0  0  0  0  0  0  0
  -14.6841  -37.0548  -12.0779 C   0  0  0  0  0  0  0  0  0  0  0  0
  -15.3639  -35.9190  -12.5184 C   0  0  0  0  0  0  0  0  0  0  0  0
  -16.7351  -35.9765  -12.6065 C   0  0  0  0  0  0  0  0  0  0  0  0
  -13.2984  -36.9607  -12.0007 O   0  0  0  0  0  0  0  0  0  0  0  0
  -12.4684  -38.0863  -11.8969 C   0  0  0  0  0  0  0  0  0  0  0  0
  -11.8965  -38.0829  -10.4779 C   0  0  0  0  0  0  0  0  0  0  0  0
  -11.3149  -37.9199  -12.8517 C   0  0  0  0  0  0  0  0  0  0  0  0
  -13.2400  -39.3677  -12.1476 C   0  0  0  0  0  0  0  0  0  0  0  0
  -14.5336  -39.3366  -11.3003 C   0  0  2  0  0  0  0  0  0  0  0  0
  -15.0545  -40.6388  -11.1949 N   0  0  0  0  0  0  0  0  0  0  0  0
  -15.5667  -41.0901   -9.9650 C   0  0  0  0  0  0  0  0  0  0  0  0
  -16.9600  -41.4742   -9.8079 C   0  0  1  0  0  0  0  0  0  0  0  0
  -17.0008  -42.7853   -9.2505 O   0  0  0  0  0  0  0  0  0  0  0  0
  -17.9698  -40.6801   -9.0879 C   0  0  2  0  0  0  0  0  0  0  0  0
  -19.0015  -40.0095   -9.9678 C   0  0  0  0  0  0  0  0  0  0  0  0
  -20.4194  -40.1786   -9.4856 C   0  0  0  0  0  0  0  0  0  0  0  0
  -21.2294  -41.2812   -9.4722 C   0  0  0  0  0  0  0  0  0  0  0  0
  -22.4969  -41.1409   -8.9332 C   0  0  0  0  0  0  0  0  0  0  0  0
  -22.9194  -39.8877   -8.4228 C   0  0  0  0  0  0  0  0  0  0  0  0
  -22.1303  -38.7727   -8.4252 C   0  0  0  0  0  0  0  0  0  0  0  0
  -20.8821  -38.9450   -8.9637 C   0  0  0  0  0  0  0  0  0  0  0  0
  -23.5021  -42.0679   -8.7936 O   0  0  0  0  0  0  0  0  0  0  0  0
  -23.7042  -43.3502   -8.3561 C   0  0  0  0  0  0  0  0  0  0  0  0
  -24.4575  -43.3967   -7.0542 C   0  0  0  0  0  0  0  0  0  0  0  0
  -23.6633  -42.8044   -5.9531 C   0  0  0  0  0  0  0  0  0  0  0  0
  -22.4925  -43.6640   -5.5498 C   0  0  0  0  0  0  0  0  0  0  0  0
  -21.5126  -42.9484   -4.9588 O   0  0  0  0  0  0  0  0  0  0  0  0
  -20.6969  -41.8643   -5.1017 C   0  0  0  0  0  0  0  0  0  0  0  0
  -19.6283  -41.6450   -5.9823 C   0  0  0  0  0  0  0  0  0  0  0  0
  -18.9719  -40.4513   -5.9071 C   0  0  0  0  0  0  0  0  0  0  0  0
  -19.4197  -39.5104   -4.9331 C   0  0  0  0  0  0  0  0  0  0  0  0
  -20.4615  -39.7151   -4.0685 C   0  0  0  0  0  0  0  0  0  0  0  0
  -20.8955  -38.6814   -3.0903 C   0  0  0  0  0  0  0  0  0  0  0  0
  -21.0560  -40.8914   -4.1936 N   0  0  0  0  0  0  0  0  0  0  0  0
  -17.8285  -39.8999   -6.6488 C   0  0  0  0  0  0  0  0  0  0  0  0
  -16.8773  -39.3474   -5.9234 O   0  0  0  0  0  0  0  0  0  0  0  0
  -17.5079  -39.8233   -8.0265 N   0  0  0  0  0  0  0  0  0  0  0  0
  1  2  1  0
  2  3  1  0
  2  4  1  0
  4  5  2  0
  5  6  1  0
  6  7  2  0
  7  8  1  0
  8  9  2  0
  7 10  1  0
 10 11  1  0
 11 12  1  0
 11 13  1  0
 11 14  1  0
 14 15  1  0
 15 16  1  6
 16 17  1  0
 17 18  1  0
 18 19  1  1
 18 20  1  0
 20 21  1  6
 21 22  1  0
 22 23  2  0
 23 24  1  0
 24 25  2  0
 25 26  1  0
 26 27  2  0
 24 28  1  0
 28 29  1  0
 29 30  1  0
 30 31  1  0
 31 32  1  0
 32 33  1  0
 33 34  1  0
 34 35  2  0
 35 36  1  0
 36 37  2  0
 37 38  1  0
 38 39  1  0
 38 40  2  0
 36 41  1  0
 41 42  2  0
 41 43  1  0
  9  4  1  0
 15  6  1  0
 27 22  1  0
 40 34  1  0
 43 20  1  0
M  END
$$$$
