
     RDKit          3D

 43 47  0  0  0  0  0  0  0  0999 V2000
  -14.5852  -32.7950  -10.2607 C   0  0  0  0  0  0  0  0  0  0  0  0
  -13.1890  -33.3533  -10.2137 C   0  0  0  0  0  0  0  0  0  0  0  0
  -12.6085  -33.3793   -8.8110 C   0  0  0  0  0  0  0  0  0  0  0  0
  -13.1041  -34.6730  -10.8896 C   0  0  0  0  0  0  0  0  0  0  0  0
  -13.6369  -35.7935  -10.2797 C   0  0  0  0  0  0  0  0  0  0  0  0
  -13.5900  -37.0300  -10.8928 C   0  0  0  0  0  0  0  0  0  0  0  0
  -12.9879  -37.0990  -12.1348 C   0  0  0  0  0  0  0  0  0  0  0  0
  -12.4418  -35.9843  -12.7714 C   0  0  0  0  0  0  0  0  0  0  0  0
  -12.5107  -34.7708  -12.1282 C   0  0  0  0  0  0  0  0  0  0  0  0
  -12.8999  -38.3098  -12.8140 O   0  0  0  0  0  0  0  0  0  0  0  0
  -13.6720  -39.4285  -12.4690 C   0  0  0  0  0  0  0  0  0  0  0  0
  -12.7156  -40.4507  -11.8517 C   0  0  0  0  0  0  0  0  0  0  0  0
  -14.2294  -40.0330  -13.7314 C   0  0  0  0  0  0  0  0  0  0  0  0
  -14.7610  -39.0649  -11.4780 C   0  0  0  0  0  0  0  0  0  0  0  0
  -14.1291  -38.2360  -10.3351 C   0  0  2  0  0  0  0  0  0  0  0  0
  -14.9965  -38.2295   -9.2279 N   0  0  0  0  0  0  0  0  0  0  0  0
  -16.0355  -39.1742   -9.1475 C   0  0  0  0  0  0  0  0  0  0  0  0
  -17.4061  -38.7855   -8.8580 C   0  0  1  0  0  0  0  0  0  0  0  0
  -18.2119  -39.1206   -9.9848 O   0  0  0  0  0  0  0  0  0  0  0  0
  -18.1592  -39.2043   -7.6637 C   0  0  2  0  0  0  0  0  0  0  0  0
  -19.1755  -38.2011   -7.1649 C   0  0  0  0  0  0  0  0  0  0  0  0
  -20.5211  -38.8005   -6.8465 C   0  0  0  0  0  0  0  0  0  0  0  0
  -21.4947  -39.2917   -7.6727 C   0  0  0  0  0  0  0  0  0  0  0  0
  -22.6339  -39.8139   -7.0841 C   0  0  0  0  0  0  0  0  0  0  0  0
  -22.7657  -39.8246   -5.6728 C   0  0  0  0  0  0  0  0  0  0  0  0
  -21.8089  -39.3400   -4.8267 C   0  0  0  0  0  0  0  0  0  0  0  0
  -20.6939  -38.8319   -5.4402 C   0  0  0  0  0  0  0  0  0  0  0  0
  -23.7511  -40.3656   -7.6643 O   0  0  0  0  0  0  0  0  0  0  0  0
  -24.1027  -41.2777   -8.6239 C   0  0  0  0  0  0  0  0  0  0  0  0
  -24.6658  -42.5411   -8.0310 C   0  0  0  0  0  0  0  0  0  0  0  0
  -23.6390  -43.2736   -7.2544 C   0  0  0  0  0  0  0  0  0  0  0  0
  -22.5845  -43.9029   -8.1286 C   0  0  0  0  0  0  0  0  0  0  0  0
  -21.4263  -44.1066   -7.4662 O   0  0  0  0  0  0  0  0  0  0  0  0
  -20.4683  -43.5031   -6.7054 C   0  0  0  0  0  0  0  0  0  0  0  0
  -19.5102  -42.5401   -7.0523 C   0  0  0  0  0  0  0  0  0  0  0  0
  -18.6590  -42.1048   -6.0789 C   0  0  0  0  0  0  0  0  0  0  0  0
  -18.8037  -42.6644   -4.7750 C   0  0  0  0  0  0  0  0  0  0  0  0
  -19.7353  -43.6053   -4.4263 C   0  0  0  0  0  0  0  0  0  0  0  0
  -19.8504  -44.1320   -3.0396 C   0  0  0  0  0  0  0  0  0  0  0  0
  -20.5301  -43.9840   -5.4151 N   0  0  0  0  0  0  0  0  0  0  0  0
  -17.5531  -41.1361   -6.0892 C   0  0  0  0  0  0  0  0  0  0  0  0
  -16.4317  -41.5284   -5.5193 O   0  0  0  0  0  0  0  0  0  0  0  0
  -17.4179  -39.8190   -6.5928 N   0  0  0  0  0  0  0  0  0  0  0  0
  1  2  1  0
  2  3  1  0
  2  4  1  0
  4  5  2  0
  5  6  1  0
  6  7  2  0
  7  8  1  0
  8  9  2  0
  7 10  1  0
 10 11  1  0
 11 12  1  0
 11 13  1  0
 11 14  1  0
 14 15  1  0
 15 16  1  1
 16 17  1  0
 17 18  1  0
 18 19  1  6
 18 20  1  0
 20 21  1  1
 21 22  1  0
 22 23  2  0
 23 24  1  0
 24 25  2  0
 25 26  1  0
 26 27  2  0
 24 28  1  0
 28 29  1  0
 29 30  1  0
 30 31  1  0
 31 32  1  0
 32 33  1  0
 33 34  1  0
 34 35  2  0
 35 36  1  0
 36 37  2  0
 37 38  1  0
 38 39  1  0
 38 40  2  0
 36 41  1  0
 41 42  2  0
 41 43  1  0
  9  4  1  0
 15  6  1  0
 27 22  1  0
 40 34  1  0
 43 20  1  0
M  END
$$$$
