
     RDKit          3D

 43 47  0  0  0  0  0  0  0  0999 V2000
  -11.5485  -34.7908  -11.3101 C   0  0  0  0  0  0  0  0  0  0  0  0
  -13.0088  -34.9354  -10.9787 C   0  0  0  0  0  0  0  0  0  0  0  0
  -13.8698  -33.8577  -11.6132 C   0  0  0  0  0  0  0  0  0  0  0  0
  -13.5035  -36.3049  -11.2713 C   0  0  0  0  0  0  0  0  0  0  0  0
  -13.6578  -37.2149  -10.2420 C   0  0  0  0  0  0  0  0  0  0  0  0
  -14.1341  -38.4888  -10.4811 C   0  0  0  0  0  0  0  0  0  0  0  0
  -14.4455  -38.8140  -11.7877 C   0  0  0  0  0  0  0  0  0  0  0  0
  -14.2980  -37.9153  -12.8445 C   0  0  0  0  0  0  0  0  0  0  0  0
  -13.8225  -36.6558  -12.5640 C   0  0  0  0  0  0  0  0  0  0  0  0
  -14.9282  -40.0787  -12.1081 O   0  0  0  0  0  0  0  0  0  0  0  0
  -15.4327  -40.9626  -11.1432 C   0  0  0  0  0  0  0  0  0  0  0  0
  -14.4158  -42.0978  -11.0108 C   0  0  0  0  0  0  0  0  0  0  0  0
  -16.7141  -41.5593  -11.6644 C   0  0  0  0  0  0  0  0  0  0  0  0
  -15.6239  -40.2721   -9.8064 C   0  0  0  0  0  0  0  0  0  0  0  0
  -14.3350  -39.4858   -9.4703 C   0  0  2  0  0  0  0  0  0  0  0  0
  -14.3201  -39.1779   -8.0980 N   0  0  0  0  0  0  0  0  0  0  0  0
  -14.9992  -40.0074   -7.1873 C   0  0  0  0  0  0  0  0  0  0  0  0
  -16.0912  -39.5127   -6.3649 C   0  0  1  0  0  0  0  0  0  0  0  0
  -16.3019  -38.1395   -6.6829 O   0  0  0  0  0  0  0  0  0  0  0  0
  -17.4238  -40.1341   -6.2830 C   0  0  2  0  0  0  0  0  0  0  0  0
  -18.4848  -39.2853   -5.6181 C   0  0  0  0  0  0  0  0  0  0  0  0
  -19.7888  -39.2349   -6.3721 C   0  0  0  0  0  0  0  0  0  0  0  0
  -20.1129  -38.6182   -7.5496 C   0  0  0  0  0  0  0  0  0  0  0  0
  -21.4055  -38.7719   -8.0211 C   0  0  0  0  0  0  0  0  0  0  0  0
  -22.3437  -39.5429   -7.2897 C   0  0  0  0  0  0  0  0  0  0  0  0
  -22.0451  -40.1677   -6.1122 C   0  0  0  0  0  0  0  0  0  0  0  0
  -20.7581  -39.9973   -5.6738 C   0  0  0  0  0  0  0  0  0  0  0  0
  -21.9936  -38.2715   -9.1582 O   0  0  0  0  0  0  0  0  0  0  0  0
  -21.7595  -38.1473  -10.5022 C   0  0  0  0  0  0  0  0  0  0  0  0
  -22.6288  -39.0641  -11.3197 C   0  0  0  0  0  0  0  0  0  0  0  0
  -22.2965  -40.4853  -11.0672 C   0  0  0  0  0  0  0  0  0  0  0  0
  -20.9641  -40.8854  -11.6476 C   0  0  0  0  0  0  0  0  0  0  0  0
  -20.4308  -41.9522  -11.0156 O   0  0  0  0  0  0  0  0  0  0  0  0
  -20.0749  -42.4491   -9.7961 C   0  0  0  0  0  0  0  0  0  0  0  0
  -19.0477  -42.0604   -8.9247 C   0  0  0  0  0  0  0  0  0  0  0  0
  -18.9118  -42.7427   -7.7510 C   0  0  0  0  0  0  0  0  0  0  0  0
  -19.8258  -43.8074   -7.4953 C   0  0  0  0  0  0  0  0  0  0  0  0
  -20.8317  -44.1950   -8.3396 C   0  0  0  0  0  0  0  0  0  0  0  0
  -21.7688  -45.3003   -8.0025 C   0  0  0  0  0  0  0  0  0  0  0  0
  -20.9099  -43.4929   -9.4593 N   0  0  0  0  0  0  0  0  0  0  0  0
  -17.9634  -42.6167   -6.6348 C   0  0  0  0  0  0  0  0  0  0  0  0
  -17.4153  -43.7366   -6.2088 O   0  0  0  0  0  0  0  0  0  0  0  0
  -17.4889  -41.5154   -5.8807 N   0  0  0  0  0  0  0  0  0  0  0  0
  1  2  1  0
  2  3  1  0
  2  4  1  0
  4  5  2  0
  5  6  1  0
  6  7  2  0
  7  8  1  0
  8  9  2  0
  7 10  1  0
 10 11  1  0
 11 12  1  0
 11 13  1  0
 11 14  1  0
 14 15  1  0
 15 16  1  1
 16 17  1  0
 17 18  1  0
 18 19  1  6
 18 20  1  0
 20 21  1  1
 21 22  1  0
 22 23  2  0
 23 24  1  0
 24 25  2  0
 25 26  1  0
 26 27  2  0
 24 28  1  0
 28 29  1  0
 29 30  1  0
 30 31  1  0
 31 32  1  0
 32 33  1  0
 33 34  1  0
 34 35  2  0
 35 36  1  0
 36 37  2  0
 37 38  1  0
 38 39  1  0
 38 40  2  0
 36 41  1  0
 41 42  2  0
 41 43  1  0
  9  4  1  0
 15  6  1  0
 27 22  1  0
 40 34  1  0
 43 20  1  0
M  END
$$$$
