
     RDKit          3D

 43 47  0  0  0  0  0  0  0  0999 V2000
   -9.6749  -37.5504  -12.7299 C   0  0  0  0  0  0  0  0  0  0  0  0
  -10.3942  -37.4968  -11.4098 C   0  0  0  0  0  0  0  0  0  0  0  0
   -9.6225  -36.7377  -10.3451 C   0  0  0  0  0  0  0  0  0  0  0  0
  -11.7864  -37.0032  -11.5646 C   0  0  0  0  0  0  0  0  0  0  0  0
  -12.8140  -37.6147  -10.8708 C   0  0  0  0  0  0  0  0  0  0  0  0
  -14.1152  -37.1652  -10.9799 C   0  0  0  0  0  0  0  0  0  0  0  0
  -14.3449  -36.0850  -11.8107 C   0  0  0  0  0  0  0  0  0  0  0  0
  -13.3265  -35.4508  -12.5226 C   0  0  0  0  0  0  0  0  0  0  0  0
  -12.0441  -35.9277  -12.3849 C   0  0  0  0  0  0  0  0  0  0  0  0
  -15.6294  -35.5765  -11.9742 O   0  0  0  0  0  0  0  0  0  0  0  0
  -16.6811  -35.8820  -11.0983 C   0  0  0  0  0  0  0  0  0  0  0  0
  -17.6448  -36.7888  -11.8659 C   0  0  0  0  0  0  0  0  0  0  0  0
  -17.4177  -34.6087  -10.7727 C   0  0  0  0  0  0  0  0  0  0  0  0
  -16.1773  -36.5872   -9.8536 C   0  0  0  0  0  0  0  0  0  0  0  0
  -15.2338  -37.7340  -10.2861 C   0  0  2  0  0  0  0  0  0  0  0  0
  -15.0759  -38.6367   -9.2190 N   0  0  0  0  0  0  0  0  0  0  0  0
  -15.4188  -39.9900   -9.3908 C   0  0  0  0  0  0  0  0  0  0  0  0
  -16.7791  -40.4053   -9.6915 C   0  0  1  0  0  0  0  0  0  0  0  0
  -16.8043  -41.8284   -9.7668 O   0  0  0  0  0  0  0  0  0  0  0  0
  -17.9659  -40.0047   -8.9170 C   0  0  2  0  0  0  0  0  0  0  0  0
  -18.9603  -39.1482   -9.6690 C   0  0  0  0  0  0  0  0  0  0  0  0
  -20.3921  -39.5911   -9.5103 C   0  0  0  0  0  0  0  0  0  0  0  0
  -21.0452  -40.6862  -10.0063 C   0  0  0  0  0  0  0  0  0  0  0  0
  -22.3770  -40.8497   -9.6648 C   0  0  0  0  0  0  0  0  0  0  0  0
  -23.0206  -39.9001   -8.8320 C   0  0  0  0  0  0  0  0  0  0  0  0
  -22.3911  -38.7990   -8.3249 C   0  0  0  0  0  0  0  0  0  0  0  0
  -21.0743  -38.6671   -8.6801 C   0  0  0  0  0  0  0  0  0  0  0  0
  -23.2607  -41.8422  -10.0156 O   0  0  0  0  0  0  0  0  0  0  0  0
  -23.3445  -43.2078  -10.0821 C   0  0  0  0  0  0  0  0  0  0  0  0
  -24.2401  -43.7771   -9.0151 C   0  0  0  0  0  0  0  0  0  0  0  0
  -23.6729  -43.5568   -7.6646 C   0  0  0  0  0  0  0  0  0  0  0  0
  -22.4579  -44.4076   -7.3958 C   0  0  0  0  0  0  0  0  0  0  0  0
  -21.6612  -43.8752   -6.4452 O   0  0  0  0  0  0  0  0  0  0  0  0
  -20.9842  -42.7504   -6.0744 C   0  0  0  0  0  0  0  0  0  0  0  0
  -19.8533  -42.1460   -6.6413 C   0  0  0  0  0  0  0  0  0  0  0  0
  -19.3743  -41.0101   -6.0569 C   0  0  0  0  0  0  0  0  0  0  0  0
  -20.0589  -40.5189   -4.9061 C   0  0  0  0  0  0  0  0  0  0  0  0
  -21.1633  -41.1018   -4.3446 C   0  0  0  0  0  0  0  0  0  0  0  0
  -21.8471  -40.5249   -3.1559 C   0  0  0  0  0  0  0  0  0  0  0  0
  -21.5777  -42.1988   -4.9592 N   0  0  0  0  0  0  0  0  0  0  0  0
  -18.2308  -40.1405   -6.3695 C   0  0  0  0  0  0  0  0  0  0  0  0
  -17.4576  -39.8102   -5.3550 O   0  0  0  0  0  0  0  0  0  0  0  0
  -17.7555  -39.5507   -7.5666 N   0  0  0  0  0  0  0  0  0  0  0  0
  1  2  1  0
  2  3  1  0
  2  4  1  0
  4  5  2  0
  5  6  1  0
  6  7  2  0
  7  8  1  0
  8  9  2  0
  7 10  1  0
 10 11  1  0
 11 12  1  0
 11 13  1  0
 11 14  1  0
 14 15  1  0
 15 16  1  1
 16 17  1  0
 17 18  1  0
 18 19  1  1
 18 20  1  0
 20 21  1  6
 21 22  1  0
 22 23  2  0
 23 24  1  0
 24 25  2  0
 25 26  1  0
 26 27  2  0
 24 28  1  0
 28 29  1  0
 29 30  1  0
 30 31  1  0
 31 32  1  0
 32 33  1  0
 33 34  1  0
 34 35  2  0
 35 36  1  0
 36 37  2  0
 37 38  1  0
 38 39  1  0
 38 40  2  0
 36 41  1  0
 41 42  2  0
 41 43  1  0
  9  4  1  0
 15  6  1  0
 27 22  1  0
 40 34  1  0
 43 20  1  0
M  END
$$$$
