
     RDKit          3D

 43 47  0  0  0  0  0  0  0  0999 V2000
  -12.5033  -42.6808  -15.5887 C   0  0  0  0  0  0  0  0  0  0  0  0
  -11.8564  -42.3965  -14.2606 C   0  0  0  0  0  0  0  0  0  0  0  0
  -10.4241  -42.8938  -14.1809 C   0  0  0  0  0  0  0  0  0  0  0  0
  -11.9838  -40.9653  -13.8849 C   0  0  0  0  0  0  0  0  0  0  0  0
  -12.7425  -40.6077  -12.7859 C   0  0  0  0  0  0  0  0  0  0  0  0
  -12.8632  -39.2868  -12.4013 C   0  0  0  0  0  0  0  0  0  0  0  0
  -12.1986  -38.3425  -13.1604 C   0  0  0  0  0  0  0  0  0  0  0  0
  -11.4279  -38.6764  -14.2743 C   0  0  0  0  0  0  0  0  0  0  0  0
  -11.3314  -40.0031  -14.6229 C   0  0  0  0  0  0  0  0  0  0  0  0
  -12.2743  -36.9916  -12.8373 O   0  0  0  0  0  0  0  0  0  0  0  0
  -12.7236  -36.5363  -11.5894 C   0  0  0  0  0  0  0  0  0  0  0  0
  -14.0901  -35.8892  -11.8220 C   0  0  0  0  0  0  0  0  0  0  0  0
  -11.7871  -35.4589  -11.1076 C   0  0  0  0  0  0  0  0  0  0  0  0
  -12.8459  -37.6759  -10.5960 C   0  0  0  0  0  0  0  0  0  0  0  0
  -13.6184  -38.8345  -11.2694 C   0  0  2  0  0  0  0  0  0  0  0  0
  -14.0925  -39.7163  -10.2815 N   0  0  0  0  0  0  0  0  0  0  0  0
  -15.3695  -40.2913  -10.4114 C   0  0  0  0  0  0  0  0  0  0  0  0
  -16.5841  -39.5086  -10.2509 C   0  0  1  0  0  0  0  0  0  0  0  0
  -17.5093  -39.9100  -11.2579 O   0  0  0  0  0  0  0  0  0  0  0  0
  -17.3488  -39.3999   -8.9971 C   0  0  2  0  0  0  0  0  0  0  0  0
  -18.0441  -38.0732   -8.7858 C   0  0  0  0  0  0  0  0  0  0  0  0
  -19.4775  -38.1985   -8.3375 C   0  0  0  0  0  0  0  0  0  0  0  0
  -20.5905  -38.6096   -9.0188 C   0  0  0  0  0  0  0  0  0  0  0  0
  -21.7894  -38.6489   -8.3275 C   0  0  0  0  0  0  0  0  0  0  0  0
  -21.8376  -38.2681   -6.9629 C   0  0  0  0  0  0  0  0  0  0  0  0
  -20.7414  -37.8538   -6.2609 C   0  0  0  0  0  0  0  0  0  0  0  0
  -19.5710  -37.8276   -6.9729 C   0  0  0  0  0  0  0  0  0  0  0  0
  -23.0422  -39.0165   -8.7570 O   0  0  0  0  0  0  0  0  0  0  0  0
  -23.6703  -40.0162   -9.4516 C   0  0  0  0  0  0  0  0  0  0  0  0
  -24.5025  -40.8958   -8.5581 C   0  0  0  0  0  0  0  0  0  0  0  0
  -23.6541  -41.6511   -7.6075 C   0  0  0  0  0  0  0  0  0  0  0  0
  -22.8480  -42.7342   -8.2777 C   0  0  0  0  0  0  0  0  0  0  0  0
  -21.7441  -43.0603   -7.5729 O   0  0  0  0  0  0  0  0  0  0  0  0
  -20.6213  -42.5571   -6.9839 C   0  0  0  0  0  0  0  0  0  0  0  0
  -19.4704  -41.9987   -7.5578 C   0  0  0  0  0  0  0  0  0  0  0  0
  -18.4814  -41.5706   -6.7212 C   0  0  0  0  0  0  0  0  0  0  0  0
  -18.6888  -41.7248   -5.3185 C   0  0  0  0  0  0  0  0  0  0  0  0
  -19.8083  -42.2691   -4.7482 C   0  0  0  0  0  0  0  0  0  0  0  0
  -19.9739  -42.3795   -3.2738 C   0  0  0  0  0  0  0  0  0  0  0  0
  -20.7294  -42.6632   -5.6138 N   0  0  0  0  0  0  0  0  0  0  0  0
  -17.1670  -40.9607   -6.9700 C   0  0  0  0  0  0  0  0  0  0  0  0
  -16.1523  -41.4760   -6.3060 O   0  0  0  0  0  0  0  0  0  0  0  0
  -16.7288  -39.8964   -7.7958 N   0  0  0  0  0  0  0  0  0  0  0  0
  1  2  1  0
  2  3  1  0
  2  4  1  0
  4  5  2  0
  5  6  1  0
  6  7  2  0
  7  8  1  0
  8  9  2  0
  7 10  1  0
 10 11  1  0
 11 12  1  0
 11 13  1  0
 11 14  1  0
 14 15  1  0
 15 16  1  1
 16 17  1  0
 17 18  1  0
 18 19  1  6
 18 20  1  0
 20 21  1  1
 21 22  1  0
 22 23  2  0
 23 24  1  0
 24 25  2  0
 25 26  1  0
 26 27  2  0
 24 28  1  0
 28 29  1  0
 29 30  1  0
 30 31  1  0
 31 32  1  0
 32 33  1  0
 33 34  1  0
 34 35  2  0
 35 36  1  0
 36 37  2  0
 37 38  1  0
 38 39  1  0
 38 40  2  0
 36 41  1  0
 41 42  2  0
 41 43  1  0
  9  4  1  0
 15  6  1  0
 27 22  1  0
 40 34  1  0
 43 20  1  0
M  END
$$$$
