
     RDKit          3D

 43 47  0  0  0  0  0  0  0  0999 V2000
  -14.9648  -41.7938   -8.8697 C   0  0  0  0  0  0  0  0  0  0  0  0
  -15.4787  -40.4499   -8.4303 C   0  0  0  0  0  0  0  0  0  0  0  0
  -15.0309  -40.0737   -7.0292 C   0  0  0  0  0  0  0  0  0  0  0  0
  -15.1725  -39.3937   -9.4286 C   0  0  0  0  0  0  0  0  0  0  0  0
  -16.1992  -38.8028  -10.1414 C   0  0  0  0  0  0  0  0  0  0  0  0
  -15.9467  -37.8048  -11.0619 C   0  0  0  0  0  0  0  0  0  0  0  0
  -14.6298  -37.4262  -11.2408 C   0  0  0  0  0  0  0  0  0  0  0  0
  -13.5754  -38.0069  -10.5356 C   0  0  0  0  0  0  0  0  0  0  0  0
  -13.8692  -38.9960   -9.6266 C   0  0  0  0  0  0  0  0  0  0  0  0
  -14.2958  -36.4296  -12.1521 O   0  0  0  0  0  0  0  0  0  0  0  0
  -15.2428  -35.5421  -12.6832 C   0  0  0  0  0  0  0  0  0  0  0  0
  -15.4254  -35.9205  -14.1542 C   0  0  0  0  0  0  0  0  0  0  0  0
  -14.6700  -34.1493  -12.6403 C   0  0  0  0  0  0  0  0  0  0  0  0
  -16.5662  -35.6405  -11.9488 C   0  0  0  0  0  0  0  0  0  0  0  0
  -16.9535  -37.1334  -11.8312 C   0  0  2  0  0  0  0  0  0  0  0  0
  -18.3234  -37.2384  -11.5304 N   0  0  0  0  0  0  0  0  0  0  0  0
  -18.8911  -38.5017  -11.2847 C   0  0  0  0  0  0  0  0  0  0  0  0
  -20.0011  -38.6786  -10.3628 C   0  0  1  0  0  0  0  0  0  0  0  0
  -21.0333  -39.3912  -11.0396 O   0  0  0  0  0  0  0  0  0  0  0  0
  -19.8869  -39.2774   -9.0222 C   0  0  2  0  0  0  0  0  0  0  0  0
  -20.5090  -38.4681   -7.9059 C   0  0  0  0  0  0  0  0  0  0  0  0
  -21.3665  -39.2782   -6.9678 C   0  0  0  0  0  0  0  0  0  0  0  0
  -22.5924  -39.8555   -7.1569 C   0  0  0  0  0  0  0  0  0  0  0  0
  -23.1328  -40.5756   -6.1051 C   0  0  0  0  0  0  0  0  0  0  0  0
  -22.4235  -40.6933   -4.8835 C   0  0  0  0  0  0  0  0  0  0  0  0
  -21.1992  -40.1263   -4.6697 C   0  0  0  0  0  0  0  0  0  0  0  0
  -20.6917  -39.4221   -5.7300 C   0  0  0  0  0  0  0  0  0  0  0  0
  -24.3280  -41.2490   -6.0210 O   0  0  0  0  0  0  0  0  0  0  0  0
  -25.0903  -42.1417   -6.7271 C   0  0  0  0  0  0  0  0  0  0  0  0
  -25.0975  -43.5087   -6.0979 C   0  0  0  0  0  0  0  0  0  0  0  0
  -23.7530  -44.1284   -6.1453 C   0  0  0  0  0  0  0  0  0  0  0  0
  -23.3485  -44.5396   -7.5380 C   0  0  0  0  0  0  0  0  0  0  0  0
  -22.0083  -44.6109   -7.6810 O   0  0  0  0  0  0  0  0  0  0  0  0
  -20.8423  -43.9211   -7.5212 C   0  0  0  0  0  0  0  0  0  0  0  0
  -20.3468  -42.8075   -8.2140 C   0  0  0  0  0  0  0  0  0  0  0  0
  -19.1305  -42.3127   -7.8437 C   0  0  0  0  0  0  0  0  0  0  0  0
  -18.4471  -42.9675   -6.7766 C   0  0  0  0  0  0  0  0  0  0  0  0
  -18.9219  -44.0554   -6.0942 C   0  0  0  0  0  0  0  0  0  0  0  0
  -18.1695  -44.6785   -4.9721 C   0  0  0  0  0  0  0  0  0  0  0  0
  -20.1062  -44.4851   -6.5013 N   0  0  0  0  0  0  0  0  0  0  0  0
  -18.3210  -41.1927   -8.3454 C   0  0  0  0  0  0  0  0  0  0  0  0
  -17.0481  -41.4498   -8.5684 O   0  0  0  0  0  0  0  0  0  0  0  0
  -18.6142  -39.8413   -8.6529 N   0  0  0  0  0  0  0  0  0  0  0  0
  1  2  1  0
  2  3  1  0
  2  4  1  0
  4  5  2  0
  5  6  1  0
  6  7  2  0
  7  8  1  0
  8  9  2  0
  7 10  1  0
 10 11  1  0
 11 12  1  0
 11 13  1  0
 11 14  1  0
 14 15  1  0
 15 16  1  1
 16 17  1  0
 17 18  1  0
 18 19  1  6
 18 20  1  0
 20 21  1  1
 21 22  1  0
 22 23  2  0
 23 24  1  0
 24 25  2  0
 25 26  1  0
 26 27  2  0
 24 28  1  0
 28 29  1  0
 29 30  1  0
 30 31  1  0
 31 32  1  0
 32 33  1  0
 33 34  1  0
 34 35  2  0
 35 36  1  0
 36 37  2  0
 37 38  1  0
 38 39  1  0
 38 40  2  0
 36 41  1  0
 41 42  2  0
 41 43  1  0
  9  4  1  0
 15  6  1  0
 27 22  1  0
 40 34  1  0
 43 20  1  0
M  END
$$$$
