
     RDKit          3D

 43 47  0  0  0  0  0  0  0  0999 V2000
  -18.8066  -34.4084  -11.1938 C   0  0  0  0  0  0  0  0  0  0  0  0
  -17.4204  -34.0612  -11.6640 C   0  0  0  0  0  0  0  0  0  0  0  0
  -16.7625  -32.9820  -10.8228 C   0  0  0  0  0  0  0  0  0  0  0  0
  -16.5707  -35.2713  -11.8037 C   0  0  0  0  0  0  0  0  0  0  0  0
  -16.2495  -36.0189  -10.6859 C   0  0  0  0  0  0  0  0  0  0  0  0
  -15.4776  -37.1594  -10.7879 C   0  0  0  0  0  0  0  0  0  0  0  0
  -15.0398  -37.5177  -12.0487 C   0  0  0  0  0  0  0  0  0  0  0  0
  -15.3485  -36.7806  -13.1922 C   0  0  0  0  0  0  0  0  0  0  0  0
  -16.1214  -35.6523  -13.0483 C   0  0  0  0  0  0  0  0  0  0  0  0
  -14.2560  -38.6522  -12.2315 O   0  0  0  0  0  0  0  0  0  0  0  0
  -14.1381  -39.6551  -11.2584 C   0  0  0  0  0  0  0  0  0  0  0  0
  -12.7183  -39.5599  -10.6969 C   0  0  0  0  0  0  0  0  0  0  0  0
  -14.2704  -40.9953  -11.9339 C   0  0  0  0  0  0  0  0  0  0  0  0
  -15.1542  -39.4703  -10.1476 C   0  0  0  0  0  0  0  0  0  0  0  0
  -15.1113  -37.9958   -9.6823 C   0  0  2  0  0  0  0  0  0  0  0  0
  -15.7248  -37.8858   -8.4214 N   0  0  0  0  0  0  0  0  0  0  0  0
  -15.3936  -38.7948   -7.4004 C   0  0  0  0  0  0  0  0  0  0  0  0
  -15.8230  -40.1832   -7.4393 C   0  0  1  0  0  0  0  0  0  0  0  0
  -15.5519  -40.7694   -6.1688 O   0  0  0  0  0  0  0  0  0  0  0  0
  -17.1708  -40.6306   -7.8292 C   0  0  2  0  0  0  0  0  0  0  0  0
  -17.2030  -41.7598   -8.8353 C   0  0  0  0  0  0  0  0  0  0  0  0
  -18.1581  -42.8697   -8.4784 C   0  0  0  0  0  0  0  0  0  0  0  0
  -18.0907  -43.8207   -7.4972 C   0  0  0  0  0  0  0  0  0  0  0  0
  -19.1476  -44.7085   -7.3889 C   0  0  0  0  0  0  0  0  0  0  0  0
  -20.2482  -44.6177   -8.2777 C   0  0  0  0  0  0  0  0  0  0  0  0
  -20.3388  -43.6783   -9.2653 C   0  0  0  0  0  0  0  0  0  0  0  0
  -19.2781  -42.8145   -9.3449 C   0  0  0  0  0  0  0  0  0  0  0  0
  -19.3393  -45.7465   -6.5086 O   0  0  0  0  0  0  0  0  0  0  0  0
  -19.2642  -46.0241   -5.1693 C   0  0  0  0  0  0  0  0  0  0  0  0
  -20.6229  -46.1889   -4.5437 C   0  0  0  0  0  0  0  0  0  0  0  0
  -21.3813  -44.9167   -4.5647 C   0  0  0  0  0  0  0  0  0  0  0  0
  -20.8305  -43.8928   -3.6052 C   0  0  0  0  0  0  0  0  0  0  0  0
  -21.1479  -42.6315   -3.9659 O   0  0  0  0  0  0  0  0  0  0  0  0
  -21.1021  -41.7309   -4.9895 C   0  0  0  0  0  0  0  0  0  0  0  0
  -20.0068  -41.0805   -5.5750 C   0  0  0  0  0  0  0  0  0  0  0  0
  -20.2505  -40.2121   -6.5986 C   0  0  0  0  0  0  0  0  0  0  0  0
  -21.6068  -40.0257   -6.9990 C   0  0  0  0  0  0  0  0  0  0  0  0
  -22.6832  -40.6553   -6.4336 C   0  0  0  0  0  0  0  0  0  0  0  0
  -24.0738  -40.4352   -6.9146 C   0  0  0  0  0  0  0  0  0  0  0  0
  -22.3787  -41.4846   -5.4475 N   0  0  0  0  0  0  0  0  0  0  0  0
  -19.3657  -39.3695   -7.4163 C   0  0  0  0  0  0  0  0  0  0  0  0
  -19.7377  -38.1150   -7.5709 O   0  0  0  0  0  0  0  0  0  0  0  0
  -18.1534  -39.6149   -8.1068 N   0  0  0  0  0  0  0  0  0  0  0  0
  1  2  1  0
  2  3  1  0
  2  4  1  0
  4  5  2  0
  5  6  1  0
  6  7  2  0
  7  8  1  0
  8  9  2  0
  7 10  1  0
 10 11  1  0
 11 12  1  0
 11 13  1  0
 11 14  1  0
 14 15  1  0
 15 16  1  1
 16 17  1  0
 17 18  1  0
 18 19  1  1
 18 20  1  0
 20 21  1  6
 21 22  1  0
 22 23  2  0
 23 24  1  0
 24 25  2  0
 25 26  1  0
 26 27  2  0
 24 28  1  0
 28 29  1  0
 29 30  1  0
 30 31  1  0
 31 32  1  0
 32 33  1  0
 33 34  1  0
 34 35  2  0
 35 36  1  0
 36 37  2  0
 37 38  1  0
 38 39  1  0
 38 40  2  0
 36 41  1  0
 41 42  2  0
 41 43  1  0
  9  4  1  0
 15  6  1  0
 27 22  1  0
 40 34  1  0
 43 20  1  0
M  END
$$$$
