
     RDKit          3D

 43 47  0  0  0  0  0  0  0  0999 V2000
  -21.3674  -37.8154  -10.5403 C   0  0  0  0  0  0  0  0  0  0  0  0
  -21.9051  -37.3561   -9.2125 C   0  0  0  0  0  0  0  0  0  0  0  0
  -23.2463  -36.6539   -9.3274 C   0  0  0  0  0  0  0  0  0  0  0  0
  -21.9233  -38.4592   -8.2181 C   0  0  0  0  0  0  0  0  0  0  0  0
  -20.8784  -38.5957   -7.3232 C   0  0  0  0  0  0  0  0  0  0  0  0
  -20.8775  -39.5997   -6.3750 C   0  0  0  0  0  0  0  0  0  0  0  0
  -21.9593  -40.4594   -6.3614 C   0  0  0  0  0  0  0  0  0  0  0  0
  -23.0256  -40.3445   -7.2536 C   0  0  0  0  0  0  0  0  0  0  0  0
  -22.9893  -39.3299   -8.1812 C   0  0  0  0  0  0  0  0  0  0  0  0
  -22.0290  -41.4971   -5.4376 O   0  0  0  0  0  0  0  0  0  0  0  0
  -21.2220  -41.5451   -4.2916 C   0  0  0  0  0  0  0  0  0  0  0  0
  -20.2147  -42.6759   -4.5089 C   0  0  0  0  0  0  0  0  0  0  0  0
  -22.0836  -41.9243   -3.1153 C   0  0  0  0  0  0  0  0  0  0  0  0
  -20.4959  -40.2320   -4.0708 C   0  0  0  0  0  0  0  0  0  0  0  0
  -19.8413  -39.8017   -5.4046 C   0  0  2  0  0  0  0  0  0  0  0  0
  -18.8523  -38.8348   -5.1491 N   0  0  0  0  0  0  0  0  0  0  0  0
  -17.5049  -39.2237   -5.0412 C   0  0  0  0  0  0  0  0  0  0  0  0
  -16.5652  -39.0493   -6.1367 C   0  0  1  0  0  0  0  0  0  0  0  0
  -15.3488  -39.7058   -5.7892 O   0  0  0  0  0  0  0  0  0  0  0  0
  -16.8440  -39.3970   -7.5403 C   0  0  2  0  0  0  0  0  0  0  0  0
  -17.6308  -38.3602   -8.3112 C   0  0  0  0  0  0  0  0  0  0  0  0
  -17.0635  -38.0496   -9.6724 C   0  0  0  0  0  0  0  0  0  0  0  0
  -15.9292  -37.3739  -10.0310 C   0  0  0  0  0  0  0  0  0  0  0  0
  -15.6443  -37.2673  -11.3817 C   0  0  0  0  0  0  0  0  0  0  0  0
  -16.5148  -37.8433  -12.3409 C   0  0  0  0  0  0  0  0  0  0  0  0
  -17.6528  -38.5219  -12.0087 C   0  0  0  0  0  0  0  0  0  0  0  0
  -17.9053  -38.6108  -10.6649 C   0  0  0  0  0  0  0  0  0  0  0  0
  -14.5890  -36.6540  -12.0136 O   0  0  0  0  0  0  0  0  0  0  0  0
  -13.2232  -36.5699  -11.9499 C   0  0  0  0  0  0  0  0  0  0  0  0
  -12.5535  -37.2927  -13.0874 C   0  0  0  0  0  0  0  0  0  0  0  0
  -12.7881  -38.7531  -13.0076 C   0  0  0  0  0  0  0  0  0  0  0  0
  -12.0378  -39.4038  -11.8736 C   0  0  0  0  0  0  0  0  0  0  0  0
  -12.6127  -40.5585  -11.4764 O   0  0  0  0  0  0  0  0  0  0  0  0
  -13.7817  -41.1234  -11.0576 C   0  0  0  0  0  0  0  0  0  0  0  0
  -14.4941  -40.9498   -9.8627 C   0  0  0  0  0  0  0  0  0  0  0  0
  -15.6521  -41.6527   -9.7003 C   0  0  0  0  0  0  0  0  0  0  0  0
  -16.0546  -42.5184  -10.7600 C   0  0  0  0  0  0  0  0  0  0  0  0
  -15.3660  -42.6953  -11.9301 C   0  0  0  0  0  0  0  0  0  0  0  0
  -15.8531  -43.5967  -13.0089 C   0  0  0  0  0  0  0  0  0  0  0  0
  -14.2530  -41.9845  -12.0253 N   0  0  0  0  0  0  0  0  0  0  0  0
  -16.6235  -41.7227   -8.5989 C   0  0  0  0  0  0  0  0  0  0  0  0
  -16.9935  -42.9312   -8.2264 O   0  0  0  0  0  0  0  0  0  0  0  0
  -17.2810  -40.7410   -7.8175 N   0  0  0  0  0  0  0  0  0  0  0  0
  1  2  1  0
  2  3  1  0
  2  4  1  0
  4  5  2  0
  5  6  1  0
  6  7  2  0
  7  8  1  0
  8  9  2  0
  7 10  1  0
 10 11  1  0
 11 12  1  0
 11 13  1  0
 11 14  1  0
 14 15  1  0
 15 16  1  1
 16 17  1  0
 17 18  1  0
 18 19  1  1
 18 20  1  0
 20 21  1  1
 21 22  1  0
 22 23  2  0
 23 24  1  0
 24 25  2  0
 25 26  1  0
 26 27  2  0
 24 28  1  0
 28 29  1  0
 29 30  1  0
 30 31  1  0
 31 32  1  0
 32 33  1  0
 33 34  1  0
 34 35  2  0
 35 36  1  0
 36 37  2  0
 37 38  1  0
 38 39  1  0
 38 40  2  0
 36 41  1  0
 41 42  2  0
 41 43  1  0
  9  4  1  0
 15  6  1  0
 27 22  1  0
 40 34  1  0
 43 20  1  0
M  END
$$$$
