
     RDKit          3D

 43 47  0  0  0  0  0  0  0  0999 V2000
  -11.8525  -33.6815  -10.9761 C   0  0  0  0  0  0  0  0  0  0  0  0
  -13.0367  -34.1388  -11.7834 C   0  0  0  0  0  0  0  0  0  0  0  0
  -13.1228  -33.4663  -13.1418 C   0  0  0  0  0  0  0  0  0  0  0  0
  -13.0967  -35.6199  -11.8765 C   0  0  0  0  0  0  0  0  0  0  0  0
  -13.8036  -36.3403  -10.9317 C   0  0  0  0  0  0  0  0  0  0  0  0
  -13.8931  -37.7165  -11.0038 C   0  0  0  0  0  0  0  0  0  0  0  0
  -13.2462  -38.3394  -12.0542 C   0  0  0  0  0  0  0  0  0  0  0  0
  -12.5255  -37.6364  -13.0199 C   0  0  0  0  0  0  0  0  0  0  0  0
  -12.4624  -36.2668  -12.9134 C   0  0  0  0  0  0  0  0  0  0  0  0
  -13.2884  -39.7229  -12.1928 O   0  0  0  0  0  0  0  0  0  0  0  0
  -14.2191  -40.5231  -11.5145 C   0  0  0  0  0  0  0  0  0  0  0  0
  -13.4393  -41.3052  -10.4558 C   0  0  0  0  0  0  0  0  0  0  0  0
  -14.7906  -41.5215  -12.4872 C   0  0  0  0  0  0  0  0  0  0  0  0
  -15.2964  -39.6822  -10.8567 C   0  0  0  0  0  0  0  0  0  0  0  0
  -14.6153  -38.5350  -10.0740 C   0  0  2  0  0  0  0  0  0  0  0  0
  -15.5266  -37.9955   -9.1484 N   0  0  0  0  0  0  0  0  0  0  0  0
  -15.5008  -38.4252   -7.8093 C   0  0  0  0  0  0  0  0  0  0  0  0
  -16.0017  -39.7308   -7.4120 C   0  0  1  0  0  0  0  0  0  0  0  0
  -16.1341  -39.7445   -5.9930 O   0  0  0  0  0  0  0  0  0  0  0  0
  -17.2185  -40.3595   -7.9534 C   0  0  2  0  0  0  0  0  0  0  0  0
  -17.1680  -41.8680   -8.0531 C   0  0  0  0  0  0  0  0  0  0  0  0
  -18.3991  -42.5575   -7.5236 C   0  0  0  0  0  0  0  0  0  0  0  0
  -18.8498  -42.7133   -6.2412 C   0  0  0  0  0  0  0  0  0  0  0  0
  -20.0492  -43.3804   -6.0581 C   0  0  0  0  0  0  0  0  0  0  0  0
  -20.7649  -43.8788   -7.1755 C   0  0  0  0  0  0  0  0  0  0  0  0
  -20.3362  -43.7367   -8.4647 C   0  0  0  0  0  0  0  0  0  0  0  0
  -19.1475  -43.0710   -8.6119 C   0  0  0  0  0  0  0  0  0  0  0  0
  -20.7257  -43.6737   -4.8982 O   0  0  0  0  0  0  0  0  0  0  0  0
  -21.1403  -43.0773   -3.7367 C   0  0  0  0  0  0  0  0  0  0  0  0
  -22.6297  -42.8645   -3.7048 C   0  0  0  0  0  0  0  0  0  0  0  0
  -23.0545  -41.8885   -4.7349 C   0  0  0  0  0  0  0  0  0  0  0  0
  -22.6331  -40.4778   -4.4116 C   0  0  0  0  0  0  0  0  0  0  0  0
  -22.5449  -39.7051   -5.5147 O   0  0  0  0  0  0  0  0  0  0  0  0
  -21.9868  -39.6119   -6.7560 C   0  0  0  0  0  0  0  0  0  0  0  0
  -20.6507  -39.4223   -7.1362 C   0  0  0  0  0  0  0  0  0  0  0  0
  -20.3671  -39.3626   -8.4694 C   0  0  0  0  0  0  0  0  0  0  0  0
  -21.4541  -39.4950   -9.3834 C   0  0  0  0  0  0  0  0  0  0  0  0
  -22.7618  -39.6798   -9.0225 C   0  0  0  0  0  0  0  0  0  0  0  0
  -23.8479  -39.8355  -10.0274 C   0  0  0  0  0  0  0  0  0  0  0  0
  -22.9692  -39.7298   -7.7158 N   0  0  0  0  0  0  0  0  0  0  0  0
  -19.1112  -39.1674   -9.2083 C   0  0  0  0  0  0  0  0  0  0  0  0
  -19.1403  -38.2763  -10.1785 O   0  0  0  0  0  0  0  0  0  0  0  0
  -17.8234  -39.7492   -9.1091 N   0  0  0  0  0  0  0  0  0  0  0  0
  1  2  1  0
  2  3  1  0
  2  4  1  0
  4  5  2  0
  5  6  1  0
  6  7  2  0
  7  8  1  0
  8  9  2  0
  7 10  1  0
 10 11  1  0
 11 12  1  0
 11 13  1  0
 11 14  1  0
 14 15  1  0
 15 16  1  6
 16 17  1  0
 17 18  1  0
 18 19  1  1
 18 20  1  0
 20 21  1  6
 21 22  1  0
 22 23  2  0
 23 24  1  0
 24 25  2  0
 25 26  1  0
 26 27  2  0
 24 28  1  0
 28 29  1  0
 29 30  1  0
 30 31  1  0
 31 32  1  0
 32 33  1  0
 33 34  1  0
 34 35  2  0
 35 36  1  0
 36 37  2  0
 37 38  1  0
 38 39  1  0
 38 40  2  0
 36 41  1  0
 41 42  2  0
 41 43  1  0
  9  4  1  0
 15  6  1  0
 27 22  1  0
 40 34  1  0
 43 20  1  0
M  END
$$$$
