
     RDKit          3D

 43 47  0  0  0  0  0  0  0  0999 V2000
  -18.5392  -37.9682  -12.5033 C   0  0  0  0  0  0  0  0  0  0  0  0
  -18.2680  -36.7835  -11.6166 C   0  0  0  0  0  0  0  0  0  0  0  0
  -18.8264  -36.9527  -10.2149 C   0  0  0  0  0  0  0  0  0  0  0  0
  -16.8283  -36.4186  -11.6157 C   0  0  0  0  0  0  0  0  0  0  0  0
  -15.9568  -37.0600  -10.7552 C   0  0  0  0  0  0  0  0  0  0  0  0
  -14.6099  -36.7554  -10.7458 C   0  0  0  0  0  0  0  0  0  0  0  0
  -14.1736  -35.7847  -11.6272 C   0  0  0  0  0  0  0  0  0  0  0  0
  -15.0318  -35.1218  -12.5048 C   0  0  0  0  0  0  0  0  0  0  0  0
  -16.3657  -35.4556  -12.4844 C   0  0  0  0  0  0  0  0  0  0  0  0
  -12.8316  -35.4214  -11.6748 O   0  0  0  0  0  0  0  0  0  0  0  0
  -11.8154  -36.2044  -11.1083 C   0  0  0  0  0  0  0  0  0  0  0  0
  -11.3052  -35.4447   -9.8823 C   0  0  0  0  0  0  0  0  0  0  0  0
  -10.6777  -36.2963  -12.0916 C   0  0  0  0  0  0  0  0  0  0  0  0
  -12.3322  -37.5707  -10.7002 C   0  0  0  0  0  0  0  0  0  0  0  0
  -13.6397  -37.3818   -9.8957 C   0  0  2  0  0  0  0  0  0  0  0  0
  -13.9192  -38.5571   -9.1755 N   0  0  0  0  0  0  0  0  0  0  0  0
  -14.7704  -38.5066   -8.0569 C   0  0  0  0  0  0  0  0  0  0  0  0
  -15.6075  -39.6330   -7.6774 C   0  0  1  0  0  0  0  0  0  0  0  0
  -15.6581  -39.6912   -6.2543 O   0  0  0  0  0  0  0  0  0  0  0  0
  -16.9831  -39.8506   -8.1559 C   0  0  2  0  0  0  0  0  0  0  0  0
  -17.1718  -41.0760   -9.0226 C   0  0  0  0  0  0  0  0  0  0  0  0
  -18.3661  -41.9141   -8.6450 C   0  0  0  0  0  0  0  0  0  0  0  0
  -18.5819  -42.7179   -7.5591 C   0  0  0  0  0  0  0  0  0  0  0  0
  -19.8081  -43.3536   -7.4635 C   0  0  0  0  0  0  0  0  0  0  0  0
  -20.7883  -43.1658   -8.4701 C   0  0  0  0  0  0  0  0  0  0  0  0
  -20.5971  -42.3695   -9.5635 C   0  0  0  0  0  0  0  0  0  0  0  0
  -19.3747  -41.7538   -9.6276 C   0  0  0  0  0  0  0  0  0  0  0  0
  -20.2863  -44.2038   -6.4951 O   0  0  0  0  0  0  0  0  0  0  0  0
  -20.3810  -44.3072   -5.1325 C   0  0  0  0  0  0  0  0  0  0  0  0
  -21.7901  -44.1111   -4.6420 C   0  0  0  0  0  0  0  0  0  0  0  0
  -22.2575  -42.7278   -4.8911 C   0  0  0  0  0  0  0  0  0  0  0  0
  -21.5823  -41.7145   -4.0025 C   0  0  0  0  0  0  0  0  0  0  0  0
  -21.5948  -40.4758   -4.5383 O   0  0  0  0  0  0  0  0  0  0  0  0
  -21.2761  -39.7492   -5.6480 C   0  0  0  0  0  0  0  0  0  0  0  0
  -20.0239  -39.4160   -6.1833 C   0  0  0  0  0  0  0  0  0  0  0  0
  -19.9940  -38.6629   -7.3205 C   0  0  0  0  0  0  0  0  0  0  0  0
  -21.2427  -38.2651   -7.8834 C   0  0  0  0  0  0  0  0  0  0  0  0
  -22.4705  -38.5846   -7.3683 C   0  0  0  0  0  0  0  0  0  0  0  0
  -23.7390  -38.1582   -8.0184 C   0  0  0  0  0  0  0  0  0  0  0  0
  -22.4299  -39.3171   -6.2661 N   0  0  0  0  0  0  0  0  0  0  0  0
  -18.8872  -38.1324   -8.1298 C   0  0  0  0  0  0  0  0  0  0  0  0
  -18.9711  -36.8616   -8.4673 O   0  0  0  0  0  0  0  0  0  0  0  0
  -17.7023  -38.7062   -8.6529 N   0  0  0  0  0  0  0  0  0  0  0  0
  1  2  1  0
  2  3  1  0
  2  4  1  0
  4  5  2  0
  5  6  1  0
  6  7  2  0
  7  8  1  0
  8  9  2  0
  7 10  1  0
 10 11  1  0
 11 12  1  0
 11 13  1  0
 11 14  1  0
 14 15  1  0
 15 16  1  6
 16 17  1  0
 17 18  1  0
 18 19  1  1
 18 20  1  0
 20 21  1  6
 21 22  1  0
 22 23  2  0
 23 24  1  0
 24 25  2  0
 25 26  1  0
 26 27  2  0
 24 28  1  0
 28 29  1  0
 29 30  1  0
 30 31  1  0
 31 32  1  0
 32 33  1  0
 33 34  1  0
 34 35  2  0
 35 36  1  0
 36 37  2  0
 37 38  1  0
 38 39  1  0
 38 40  2  0
 36 41  1  0
 41 42  2  0
 41 43  1  0
  9  4  1  0
 15  6  1  0
 27 22  1  0
 40 34  1  0
 43 20  1  0
M  END
$$$$
