
     RDKit          3D

 43 47  0  0  0  0  0  0  0  0999 V2000
  -17.9566  -44.4429   -8.3287 C   0  0  0  0  0  0  0  0  0  0  0  0
  -17.5959  -44.0298   -9.7295 C   0  0  0  0  0  0  0  0  0  0  0  0
  -18.4233  -42.8610  -10.2340 C   0  0  0  0  0  0  0  0  0  0  0  0
  -16.1360  -43.7977   -9.8730 C   0  0  0  0  0  0  0  0  0  0  0  0
  -15.5843  -42.6037   -9.4471 C   0  0  0  0  0  0  0  0  0  0  0  0
  -14.2276  -42.3675   -9.5499 C   0  0  0  0  0  0  0  0  0  0  0  0
  -13.4495  -43.3702  -10.0968 C   0  0  0  0  0  0  0  0  0  0  0  0
  -13.9810  -44.5833  -10.5351 C   0  0  0  0  0  0  0  0  0  0  0  0
  -15.3365  -44.7800  -10.4133 C   0  0  0  0  0  0  0  0  0  0  0  0
  -12.0753  -43.2056  -10.2357 O   0  0  0  0  0  0  0  0  0  0  0  0
  -11.3609  -42.2064   -9.5590 C   0  0  0  0  0  0  0  0  0  0  0  0
  -10.9334  -41.1809  -10.6107 C   0  0  0  0  0  0  0  0  0  0  0  0
  -10.1089  -42.8180   -8.9860 C   0  0  0  0  0  0  0  0  0  0  0  0
  -12.2129  -41.5413   -8.4949 C   0  0  0  0  0  0  0  0  0  0  0  0
  -13.5760  -41.1643   -9.1211 C   0  0  2  0  0  0  0  0  0  0  0  0
  -14.2164  -40.2121   -8.3078 N   0  0  0  0  0  0  0  0  0  0  0  0
  -14.6457  -38.9931   -8.8630 C   0  0  0  0  0  0  0  0  0  0  0  0
  -15.8446  -38.3164   -8.3958 C   0  0  1  0  0  0  0  0  0  0  0  0
  -16.1405  -37.2573   -9.3025 O   0  0  0  0  0  0  0  0  0  0  0  0
  -17.1223  -38.9872   -8.1022 C   0  0  2  0  0  0  0  0  0  0  0  0
  -18.0864  -38.1837   -7.2578 C   0  0  0  0  0  0  0  0  0  0  0  0
  -19.4989  -38.1751   -7.7833 C   0  0  0  0  0  0  0  0  0  0  0  0
  -20.0363  -37.5609   -8.8814 C   0  0  0  0  0  0  0  0  0  0  0  0
  -21.3834  -37.7583   -9.1333 C   0  0  0  0  0  0  0  0  0  0  0  0
  -22.1588  -38.5694   -8.2672 C   0  0  0  0  0  0  0  0  0  0  0  0
  -21.6463  -39.1926   -7.1649 C   0  0  0  0  0  0  0  0  0  0  0  0
  -20.3109  -38.9786   -6.9445 C   0  0  0  0  0  0  0  0  0  0  0  0
  -22.1701  -37.2704  -10.1493 O   0  0  0  0  0  0  0  0  0  0  0  0
  -22.1681  -37.1264  -11.5116 C   0  0  0  0  0  0  0  0  0  0  0  0
  -23.1290  -38.0678  -12.1862 C   0  0  0  0  0  0  0  0  0  0  0  0
  -22.7098  -39.4778  -12.0129 C   0  0  0  0  0  0  0  0  0  0  0  0
  -21.4797  -39.8236  -12.8127 C   0  0  0  0  0  0  0  0  0  0  0  0
  -20.8116  -40.8753  -12.2938 O   0  0  0  0  0  0  0  0  0  0  0  0
  -20.2399  -41.3689  -11.1579 C   0  0  0  0  0  0  0  0  0  0  0  0
  -19.0959  -40.9500  -10.4641 C   0  0  0  0  0  0  0  0  0  0  0  0
  -18.7424  -41.6365   -9.3394 C   0  0  0  0  0  0  0  0  0  0  0  0
  -19.5631  -42.7363   -8.9504 C   0  0  0  0  0  0  0  0  0  0  0  0
  -20.6815  -43.1537   -9.6209 C   0  0  0  0  0  0  0  0  0  0  0  0
  -21.5100  -44.2955   -9.1484 C   0  0  0  0  0  0  0  0  0  0  0  0
  -20.9700  -42.4456  -10.7018 N   0  0  0  0  0  0  0  0  0  0  0  0
  -17.6259  -41.4850   -8.3949 C   0  0  0  0  0  0  0  0  0  0  0  0
  -16.9756  -42.5875   -8.0823 O   0  0  0  0  0  0  0  0  0  0  0  0
  -17.0710  -40.3733   -7.7145 N   0  0  0  0  0  0  0  0  0  0  0  0
  1  2  1  0
  2  3  1  0
  2  4  1  0
  4  5  2  0
  5  6  1  0
  6  7  2  0
  7  8  1  0
  8  9  2  0
  7 10  1  0
 10 11  1  0
 11 12  1  0
 11 13  1  0
 11 14  1  0
 14 15  1  0
 15 16  1  1
 16 17  1  0
 17 18  1  0
 18 19  1  6
 18 20  1  0
 20 21  1  1
 21 22  1  0
 22 23  2  0
 23 24  1  0
 24 25  2  0
 25 26  1  0
 26 27  2  0
 24 28  1  0
 28 29  1  0
 29 30  1  0
 30 31  1  0
 31 32  1  0
 32 33  1  0
 33 34  1  0
 34 35  2  0
 35 36  1  0
 36 37  2  0
 37 38  1  0
 38 39  1  0
 38 40  2  0
 36 41  1  0
 41 42  2  0
 41 43  1  0
  9  4  1  0
 15  6  1  0
 27 22  1  0
 40 34  1  0
 43 20  1  0
M  END
$$$$
