
     RDKit          3D

 43 47  0  0  0  0  0  0  0  0999 V2000
  -20.6863  -35.2231  -10.8068 C   0  0  0  0  0  0  0  0  0  0  0  0
  -19.9512  -35.8768   -9.6687 C   0  0  0  0  0  0  0  0  0  0  0  0
  -20.5819  -37.1866   -9.2307 C   0  0  0  0  0  0  0  0  0  0  0  0
  -18.5011  -36.0124   -9.9597 C   0  0  0  0  0  0  0  0  0  0  0  0
  -17.9658  -37.2601  -10.2205 C   0  0  0  0  0  0  0  0  0  0  0  0
  -16.6251  -37.4144  -10.5134 C   0  0  0  0  0  0  0  0  0  0  0  0
  -15.8451  -36.2738  -10.5314 C   0  0  0  0  0  0  0  0  0  0  0  0
  -16.3598  -35.0036  -10.2708 C   0  0  0  0  0  0  0  0  0  0  0  0
  -17.7004  -34.8925   -9.9854 C   0  0  0  0  0  0  0  0  0  0  0  0
  -14.4854  -36.3488  -10.8157 O   0  0  0  0  0  0  0  0  0  0  0  0
  -13.8976  -37.4757  -11.4083 C   0  0  0  0  0  0  0  0  0  0  0  0
  -13.0454  -38.1470  -10.3296 C   0  0  0  0  0  0  0  0  0  0  0  0
  -12.9672  -37.0123  -12.4989 C   0  0  0  0  0  0  0  0  0  0  0  0
  -14.9477  -38.4416  -11.9227 C   0  0  0  0  0  0  0  0  0  0  0  0
  -15.9953  -38.6686  -10.8075 C   0  0  2  0  0  0  0  0  0  0  0  0
  -16.7336  -39.8320  -11.0899 N   0  0  0  0  0  0  0  0  0  0  0  0
  -16.7221  -40.9057  -10.1812 C   0  0  0  0  0  0  0  0  0  0  0  0
  -17.8490  -41.8151  -10.0529 C   0  0  1  0  0  0  0  0  0  0  0  0
  -17.3526  -43.0834   -9.6327 O   0  0  0  0  0  0  0  0  0  0  0  0
  -19.0519  -41.5469   -9.2469 C   0  0  2  0  0  0  0  0  0  0  0  0
  -20.2887  -41.1933  -10.0430 C   0  0  0  0  0  0  0  0  0  0  0  0
  -21.5283  -41.9314   -9.6070 C   0  0  0  0  0  0  0  0  0  0  0  0
  -21.8789  -43.2458   -9.7522 C   0  0  0  0  0  0  0  0  0  0  0  0
  -23.0896  -43.6511   -9.2166 C   0  0  0  0  0  0  0  0  0  0  0  0
  -23.9214  -42.7174   -8.5488 C   0  0  0  0  0  0  0  0  0  0  0  0
  -23.5944  -41.4005   -8.3912 C   0  0  0  0  0  0  0  0  0  0  0  0
  -22.3900  -41.0320   -8.9310 C   0  0  0  0  0  0  0  0  0  0  0  0
  -23.6813  -44.8916   -9.2159 O   0  0  0  0  0  0  0  0  0  0  0  0
  -23.3852  -46.2038   -8.9568 C   0  0  0  0  0  0  0  0  0  0  0  0
  -24.0214  -46.6913   -7.6832 C   0  0  0  0  0  0  0  0  0  0  0  0
  -23.4585  -45.9971   -6.5020 C   0  0  0  0  0  0  0  0  0  0  0  0
  -22.0408  -46.4121   -6.2016 C   0  0  0  0  0  0  0  0  0  0  0  0
  -21.3687  -45.4701   -5.5069 O   0  0  0  0  0  0  0  0  0  0  0  0
  -21.0109  -44.1538   -5.4923 C   0  0  0  0  0  0  0  0  0  0  0  0
  -20.1290  -43.4459   -6.3211 C   0  0  0  0  0  0  0  0  0  0  0  0
  -19.9513  -42.1153   -6.0779 C   0  0  0  0  0  0  0  0  0  0  0  0
  -20.6757  -41.5386   -4.9929 C   0  0  0  0  0  0  0  0  0  0  0  0
  -21.5386  -42.2210   -4.1777 C   0  0  0  0  0  0  0  0  0  0  0  0
  -22.2838  -41.5544   -3.0760 C   0  0  0  0  0  0  0  0  0  0  0  0
  -21.6669  -43.5065   -4.4672 N   0  0  0  0  0  0  0  0  0  0  0  0
  -19.1160  -41.0920   -6.7235 C   0  0  0  0  0  0  0  0  0  0  0  0
  -18.4063  -40.3282   -5.9180 O   0  0  0  0  0  0  0  0  0  0  0  0
  -18.8962  -40.7256   -8.0741 N   0  0  0  0  0  0  0  0  0  0  0  0
  1  2  1  0
  2  3  1  0
  2  4  1  0
  4  5  2  0
  5  6  1  0
  6  7  2  0
  7  8  1  0
  8  9  2  0
  7 10  1  0
 10 11  1  0
 11 12  1  0
 11 13  1  0
 11 14  1  0
 14 15  1  0
 15 16  1  6
 16 17  1  0
 17 18  1  0
 18 19  1  1
 18 20  1  0
 20 21  1  6
 21 22  1  0
 22 23  2  0
 23 24  1  0
 24 25  2  0
 25 26  1  0
 26 27  2  0
 24 28  1  0
 28 29  1  0
 29 30  1  0
 30 31  1  0
 31 32  1  0
 32 33  1  0
 33 34  1  0
 34 35  2  0
 35 36  1  0
 36 37  2  0
 37 38  1  0
 38 39  1  0
 38 40  2  0
 36 41  1  0
 41 42  2  0
 41 43  1  0
  9  4  1  0
 15  6  1  0
 27 22  1  0
 40 34  1  0
 43 20  1  0
M  END
$$$$
