
     RDKit          3D

 43 47  0  0  0  0  0  0  0  0999 V2000
  -18.4143  -35.6275  -10.1357 C   0  0  0  0  0  0  0  0  0  0  0  0
  -17.4076  -34.9162  -10.9982 C   0  0  0  0  0  0  0  0  0  0  0  0
  -17.0897  -33.5157  -10.5055 C   0  0  0  0  0  0  0  0  0  0  0  0
  -16.1876  -35.7372  -11.2061 C   0  0  0  0  0  0  0  0  0  0  0  0
  -15.7597  -36.5973  -10.2118 C   0  0  0  0  0  0  0  0  0  0  0  0
  -14.6402  -37.3871  -10.3845 C   0  0  0  0  0  0  0  0  0  0  0  0
  -13.9679  -37.2791  -11.5870 C   0  0  0  0  0  0  0  0  0  0  0  0
  -14.3776  -36.4187  -12.6059 C   0  0  0  0  0  0  0  0  0  0  0  0
  -15.4987  -35.6506  -12.3952 C   0  0  0  0  0  0  0  0  0  0  0  0
  -12.8301  -38.0403  -11.8343 O   0  0  0  0  0  0  0  0  0  0  0  0
  -12.4892  -39.1627  -11.0658 C   0  0  0  0  0  0  0  0  0  0  0  0
  -11.2587  -38.7764  -10.2430 C   0  0  0  0  0  0  0  0  0  0  0  0
  -12.0816  -40.2745  -11.9974 C   0  0  0  0  0  0  0  0  0  0  0  0
  -13.6257  -39.5711  -10.1484 C   0  0  0  0  0  0  0  0  0  0  0  0
  -14.1386  -38.3122   -9.4105 C   0  0  2  0  0  0  0  0  0  0  0  0
  -14.8908  -38.7026   -8.2879 N   0  0  0  0  0  0  0  0  0  0  0  0
  -15.3851  -40.0165   -8.1993 C   0  0  0  0  0  0  0  0  0  0  0  0
  -16.5441  -40.4538   -8.9601 C   0  0  1  0  0  0  0  0  0  0  0  0
  -16.5548  -41.8789   -8.9763 O   0  0  0  0  0  0  0  0  0  0  0  0
  -17.9281  -40.0265   -8.6944 C   0  0  2  0  0  0  0  0  0  0  0  0
  -18.7558  -39.7386   -9.9274 C   0  0  0  0  0  0  0  0  0  0  0  0
  -20.1298  -40.3572   -9.8998 C   0  0  0  0  0  0  0  0  0  0  0  0
  -20.5201  -41.6638  -10.0114 C   0  0  0  0  0  0  0  0  0  0  0  0
  -21.8736  -41.9403   -9.9197 C   0  0  0  0  0  0  0  0  0  0  0  0
  -22.8037  -40.8892   -9.7208 C   0  0  0  0  0  0  0  0  0  0  0  0
  -22.4396  -39.5775   -9.6069 C   0  0  0  0  0  0  0  0  0  0  0  0
  -21.0937  -39.3376   -9.7005 C   0  0  0  0  0  0  0  0  0  0  0  0
  -22.5338  -43.1435   -9.9948 O   0  0  0  0  0  0  0  0  0  0  0  0
  -22.4702  -44.4171   -9.4942 C   0  0  0  0  0  0  0  0  0  0  0  0
  -23.5653  -44.6946   -8.5000 C   0  0  0  0  0  0  0  0  0  0  0  0
  -23.4085  -43.8644   -7.2833 C   0  0  0  0  0  0  0  0  0  0  0  0
  -22.2390  -44.2901   -6.4328 C   0  0  0  0  0  0  0  0  0  0  0  0
  -21.7827  -43.2877   -5.6526 O   0  0  0  0  0  0  0  0  0  0  0  0
  -21.3383  -41.9980   -5.6590 C   0  0  0  0  0  0  0  0  0  0  0  0
  -20.1567  -41.4500   -6.1777 C   0  0  0  0  0  0  0  0  0  0  0  0
  -19.9608  -40.1067   -6.0419 C   0  0  0  0  0  0  0  0  0  0  0  0
  -20.9742  -39.3543   -5.3774 C   0  0  0  0  0  0  0  0  0  0  0  0
  -22.1310  -39.8798   -4.8670 C   0  0  0  0  0  0  0  0  0  0  0  0
  -23.1618  -39.0354   -4.2053 C   0  0  0  0  0  0  0  0  0  0  0  0
  -22.2602  -41.1871   -5.0325 N   0  0  0  0  0  0  0  0  0  0  0  0
  -18.8605  -39.2191   -6.4456 C   0  0  0  0  0  0  0  0  0  0  0  0
  -18.4254  -38.3789   -5.5286 O   0  0  0  0  0  0  0  0  0  0  0  0
  -18.1348  -39.0554   -7.6511 N   0  0  0  0  0  0  0  0  0  0  0  0
  1  2  1  0
  2  3  1  0
  2  4  1  0
  4  5  2  0
  5  6  1  0
  6  7  2  0
  7  8  1  0
  8  9  2  0
  7 10  1  0
 10 11  1  0
 11 12  1  0
 11 13  1  0
 11 14  1  0
 14 15  1  0
 15 16  1  1
 16 17  1  0
 17 18  1  0
 18 19  1  1
 18 20  1  0
 20 21  1  6
 21 22  1  0
 22 23  2  0
 23 24  1  0
 24 25  2  0
 25 26  1  0
 26 27  2  0
 24 28  1  0
 28 29  1  0
 29 30  1  0
 30 31  1  0
 31 32  1  0
 32 33  1  0
 33 34  1  0
 34 35  2  0
 35 36  1  0
 36 37  2  0
 37 38  1  0
 38 39  1  0
 38 40  2  0
 36 41  1  0
 41 42  2  0
 41 43  1  0
  9  4  1  0
 15  6  1  0
 27 22  1  0
 40 34  1  0
 43 20  1  0
M  END
$$$$
