
     RDKit          3D

 43 47  0  0  0  0  0  0  0  0999 V2000
   -9.1392  -41.7313  -11.7292 C   0  0  0  0  0  0  0  0  0  0  0  0
  -10.4133  -41.3544  -11.0238 C   0  0  0  0  0  0  0  0  0  0  0  0
  -10.2589  -41.2926   -9.5146 C   0  0  0  0  0  0  0  0  0  0  0  0
  -11.0044  -40.1138  -11.5869 C   0  0  0  0  0  0  0  0  0  0  0  0
  -12.2582  -39.7011  -11.1755 C   0  0  0  0  0  0  0  0  0  0  0  0
  -12.8248  -38.5417  -11.6670 C   0  0  0  0  0  0  0  0  0  0  0  0
  -12.0893  -37.8169  -12.5855 C   0  0  0  0  0  0  0  0  0  0  0  0
  -10.8231  -38.2115  -13.0181 C   0  0  0  0  0  0  0  0  0  0  0  0
  -10.2933  -39.3713  -12.5029 C   0  0  0  0  0  0  0  0  0  0  0  0
  -12.5940  -36.6395  -13.1277 O   0  0  0  0  0  0  0  0  0  0  0  0
  -13.6787  -35.9515  -12.5648 C   0  0  0  0  0  0  0  0  0  0  0  0
  -14.8592  -36.1315  -13.5210 C   0  0  0  0  0  0  0  0  0  0  0  0
  -13.3455  -34.4827  -12.5261 C   0  0  0  0  0  0  0  0  0  0  0  0
  -14.0278  -36.4964  -11.1931 C   0  0  0  0  0  0  0  0  0  0  0  0
  -14.1114  -38.0383  -11.2832 C   0  0  2  0  0  0  0  0  0  0  0  0
  -14.8101  -38.5343  -10.1678 N   0  0  0  0  0  0  0  0  0  0  0  0
  -15.7970  -39.5212  -10.3425 C   0  0  0  0  0  0  0  0  0  0  0  0
  -17.2124  -39.2276  -10.1876 C   0  0  1  0  0  0  0  0  0  0  0  0
  -17.9531  -40.2174  -10.8968 O   0  0  0  0  0  0  0  0  0  0  0  0
  -17.8908  -39.0422   -8.8937 C   0  0  2  0  0  0  0  0  0  0  0  0
  -18.8107  -37.8436   -8.8206 C   0  0  0  0  0  0  0  0  0  0  0  0
  -20.1571  -38.1421   -8.2128 C   0  0  0  0  0  0  0  0  0  0  0  0
  -21.2168  -38.8550   -8.7033 C   0  0  0  0  0  0  0  0  0  0  0  0
  -22.3325  -38.9867   -7.8941 C   0  0  0  0  0  0  0  0  0  0  0  0
  -22.3540  -38.3915   -6.6078 C   0  0  0  0  0  0  0  0  0  0  0  0
  -21.3097  -37.6749   -6.0957 C   0  0  0  0  0  0  0  0  0  0  0  0
  -20.2209  -37.5645   -6.9202 C   0  0  0  0  0  0  0  0  0  0  0  0
  -23.5192  -39.6390   -8.1296 O   0  0  0  0  0  0  0  0  0  0  0  0
  -23.9924  -40.8386   -8.5916 C   0  0  0  0  0  0  0  0  0  0  0  0
  -24.5733  -41.6848   -7.4911 C   0  0  0  0  0  0  0  0  0  0  0  0
  -23.5291  -42.1026   -6.5273 C   0  0  0  0  0  0  0  0  0  0  0  0
  -22.5808  -43.1246   -7.1005 C   0  0  0  0  0  0  0  0  0  0  0  0
  -21.3867  -43.1235   -6.4713 O   0  0  0  0  0  0  0  0  0  0  0  0
  -20.3416  -42.3355   -6.0870 C   0  0  0  0  0  0  0  0  0  0  0  0
  -19.3641  -41.6890   -6.8565 C   0  0  0  0  0  0  0  0  0  0  0  0
  -18.4177  -40.9549   -6.2033 C   0  0  0  0  0  0  0  0  0  0  0  0
  -18.4894  -40.8997   -4.7798 C   0  0  0  0  0  0  0  0  0  0  0  0
  -19.4392  -41.5275   -4.0193 C   0  0  0  0  0  0  0  0  0  0  0  0
  -19.4732  -41.4102   -2.5365 C   0  0  0  0  0  0  0  0  0  0  0  0
  -20.3277  -42.2217   -4.7133 N   0  0  0  0  0  0  0  0  0  0  0  0
  -17.2664  -40.1736   -6.6783 C   0  0  0  0  0  0  0  0  0  0  0  0
  -16.1262  -40.3788   -6.0506 O   0  0  0  0  0  0  0  0  0  0  0  0
  -17.1016  -39.2066   -7.7003 N   0  0  0  0  0  0  0  0  0  0  0  0
  1  2  1  0
  2  3  1  0
  2  4  1  0
  4  5  2  0
  5  6  1  0
  6  7  2  0
  7  8  1  0
  8  9  2  0
  7 10  1  0
 10 11  1  0
 11 12  1  0
 11 13  1  0
 11 14  1  0
 14 15  1  0
 15 16  1  1
 16 17  1  0
 17 18  1  0
 18 19  1  1
 18 20  1  0
 20 21  1  6
 21 22  1  0
 22 23  2  0
 23 24  1  0
 24 25  2  0
 25 26  1  0
 26 27  2  0
 24 28  1  0
 28 29  1  0
 29 30  1  0
 30 31  1  0
 31 32  1  0
 32 33  1  0
 33 34  1  0
 34 35  2  0
 35 36  1  0
 36 37  2  0
 37 38  1  0
 38 39  1  0
 38 40  2  0
 36 41  1  0
 41 42  2  0
 41 43  1  0
  9  4  1  0
 15  6  1  0
 27 22  1  0
 40 34  1  0
 43 20  1  0
M  END
$$$$
