
     RDKit          3D

 43 47  0  0  0  0  0  0  0  0999 V2000
  -13.3946  -34.0078  -11.1710 C   0  0  0  0  0  0  0  0  0  0  0  0
  -13.7958  -34.9300  -12.2898 C   0  0  0  0  0  0  0  0  0  0  0  0
  -13.3114  -34.4580  -13.6491 C   0  0  0  0  0  0  0  0  0  0  0  0
  -13.4111  -36.3359  -12.0050 C   0  0  0  0  0  0  0  0  0  0  0  0
  -13.8696  -36.9553  -10.8571 C   0  0  0  0  0  0  0  0  0  0  0  0
  -13.5443  -38.2676  -10.5758 C   0  0  0  0  0  0  0  0  0  0  0  0
  -12.7422  -38.9305  -11.4852 C   0  0  0  0  0  0  0  0  0  0  0  0
  -12.2653  -38.3286  -12.6499 C   0  0  0  0  0  0  0  0  0  0  0  0
  -12.6138  -37.0210  -12.8943 C   0  0  0  0  0  0  0  0  0  0  0  0
  -12.3696  -40.2534  -11.2700 O   0  0  0  0  0  0  0  0  0  0  0  0
  -13.0182  -41.0805  -10.3416 C   0  0  0  0  0  0  0  0  0  0  0  0
  -12.0393  -41.2990   -9.1864 C   0  0  0  0  0  0  0  0  0  0  0  0
  -13.2667  -42.4197  -10.9856 C   0  0  0  0  0  0  0  0  0  0  0  0
  -14.2966  -40.4435   -9.8315 C   0  0  0  0  0  0  0  0  0  0  0  0
  -13.9881  -38.9857   -9.4168 C   0  0  2  0  0  0  0  0  0  0  0  0
  -15.0179  -38.5085   -8.5860 N   0  0  0  0  0  0  0  0  0  0  0  0
  -15.1229  -38.9754   -7.2633 C   0  0  0  0  0  0  0  0  0  0  0  0
  -15.8090  -40.2153   -6.9389 C   0  0  1  0  0  0  0  0  0  0  0  0
  -16.0819  -40.2208   -5.5400 O   0  0  0  0  0  0  0  0  0  0  0  0
  -17.0309  -40.6940   -7.6071 C   0  0  2  0  0  0  0  0  0  0  0  0
  -17.2212  -42.1946   -7.5922 C   0  0  0  0  0  0  0  0  0  0  0  0
  -18.6098  -42.6311   -7.2015 C   0  0  0  0  0  0  0  0  0  0  0  0
  -19.2468  -42.5945   -5.9912 C   0  0  0  0  0  0  0  0  0  0  0  0
  -20.5545  -43.0463   -5.9392 C   0  0  0  0  0  0  0  0  0  0  0  0
  -21.1887  -43.5288   -7.1116 C   0  0  0  0  0  0  0  0  0  0  0  0
  -20.5745  -43.5760   -8.3309 C   0  0  0  0  0  0  0  0  0  0  0  0
  -19.2823  -43.1207   -8.3489 C   0  0  0  0  0  0  0  0  0  0  0  0
  -21.4188  -43.1210   -4.8732 O   0  0  0  0  0  0  0  0  0  0  0  0
  -21.8783  -42.3617   -3.8297 C   0  0  0  0  0  0  0  0  0  0  0  0
  -23.3018  -41.9170   -4.0313 C   0  0  0  0  0  0  0  0  0  0  0  0
  -23.4162  -40.9870   -5.1785 C   0  0  0  0  0  0  0  0  0  0  0  0
  -22.8111  -39.6353   -4.8968 C   0  0  0  0  0  0  0  0  0  0  0  0
  -22.4486  -38.9921   -6.0267 O   0  0  0  0  0  0  0  0  0  0  0  0
  -21.7227  -39.1031   -7.1763 C   0  0  0  0  0  0  0  0  0  0  0  0
  -20.3353  -39.1607   -7.3691 C   0  0  0  0  0  0  0  0  0  0  0  0
  -19.8709  -39.2704   -8.6473 C   0  0  0  0  0  0  0  0  0  0  0  0
  -20.8332  -39.3161   -9.6990 C   0  0  0  0  0  0  0  0  0  0  0  0
  -22.1897  -39.2601   -9.5214 C   0  0  0  0  0  0  0  0  0  0  0  0
  -23.1430  -39.3373  -10.6611 C   0  0  0  0  0  0  0  0  0  0  0  0
  -22.5744  -39.1551   -8.2589 N   0  0  0  0  0  0  0  0  0  0  0  0
  -18.5130  -39.3433   -9.2062 C   0  0  0  0  0  0  0  0  0  0  0  0
  -18.2630  -38.5529  -10.2304 O   0  0  0  0  0  0  0  0  0  0  0  0
  -17.3658  -40.1072   -8.8789 N   0  0  0  0  0  0  0  0  0  0  0  0
  1  2  1  0
  2  3  1  0
  2  4  1  0
  4  5  2  0
  5  6  1  0
  6  7  2  0
  7  8  1  0
  8  9  2  0
  7 10  1  0
 10 11  1  0
 11 12  1  0
 11 13  1  0
 11 14  1  0
 14 15  1  0
 15 16  1  6
 16 17  1  0
 17 18  1  0
 18 19  1  1
 18 20  1  0
 20 21  1  6
 21 22  1  0
 22 23  2  0
 23 24  1  0
 24 25  2  0
 25 26  1  0
 26 27  2  0
 24 28  1  0
 28 29  1  0
 29 30  1  0
 30 31  1  0
 31 32  1  0
 32 33  1  0
 33 34  1  0
 34 35  2  0
 35 36  1  0
 36 37  2  0
 37 38  1  0
 38 39  1  0
 38 40  2  0
 36 41  1  0
 41 42  2  0
 41 43  1  0
  9  4  1  0
 15  6  1  0
 27 22  1  0
 40 34  1  0
 43 20  1  0
M  END
$$$$
