
     RDKit          3D

 43 47  0  0  0  0  0  0  0  0999 V2000
  -18.7734  -35.1699  -11.5302 C   0  0  0  0  0  0  0  0  0  0  0  0
  -17.9630  -36.1146  -12.3750 C   0  0  0  0  0  0  0  0  0  0  0  0
  -18.2006  -35.9307  -13.8633 C   0  0  0  0  0  0  0  0  0  0  0  0
  -16.5219  -36.0688  -12.0187 C   0  0  0  0  0  0  0  0  0  0  0  0
  -15.9306  -37.1568  -11.4038 C   0  0  0  0  0  0  0  0  0  0  0  0
  -14.5885  -37.1504  -11.0784 C   0  0  0  0  0  0  0  0  0  0  0  0
  -13.8665  -36.0140  -11.3898 C   0  0  0  0  0  0  0  0  0  0  0  0
  -14.4388  -34.9025  -12.0089 C   0  0  0  0  0  0  0  0  0  0  0  0
  -15.7779  -34.9496  -12.3183 C   0  0  0  0  0  0  0  0  0  0  0  0
  -12.5104  -35.9312  -11.0910 O   0  0  0  0  0  0  0  0  0  0  0  0
  -11.7345  -37.0570  -10.7792 C   0  0  0  0  0  0  0  0  0  0  0  0
  -11.4031  -36.9650   -9.2885 C   0  0  0  0  0  0  0  0  0  0  0  0
  -10.4365  -36.9689  -11.5391 C   0  0  0  0  0  0  0  0  0  0  0  0
  -12.4834  -38.3432  -11.0710 C   0  0  0  0  0  0  0  0  0  0  0  0
  -13.8975  -38.2399  -10.4528 C   0  0  2  0  0  0  0  0  0  0  0  0
  -14.4581  -39.5259  -10.3513 N   0  0  0  0  0  0  0  0  0  0  0  0
  -15.1760  -39.8871   -9.1969 C   0  0  0  0  0  0  0  0  0  0  0  0
  -16.5299  -40.4120   -9.2675 C   0  0  1  0  0  0  0  0  0  0  0  0
  -16.4568  -41.8354   -9.2631 O   0  0  0  0  0  0  0  0  0  0  0  0
  -17.6179  -40.0445   -8.3456 C   0  0  2  0  0  0  0  0  0  0  0  0
  -18.5704  -38.9922   -8.8687 C   0  0  0  0  0  0  0  0  0  0  0  0
  -20.0253  -39.3299   -8.6672 C   0  0  0  0  0  0  0  0  0  0  0  0
  -20.8143  -40.2668   -9.2768 C   0  0  0  0  0  0  0  0  0  0  0  0
  -22.1303  -40.3690   -8.8590 C   0  0  0  0  0  0  0  0  0  0  0  0
  -22.6212  -39.5189   -7.8364 C   0  0  0  0  0  0  0  0  0  0  0  0
  -21.8543  -38.5758   -7.2130 C   0  0  0  0  0  0  0  0  0  0  0  0
  -20.5571  -38.5011   -7.6480 C   0  0  0  0  0  0  0  0  0  0  0  0
  -23.1287  -41.2092   -9.2907 O   0  0  0  0  0  0  0  0  0  0  0  0
  -23.3508  -42.5324   -9.5669 C   0  0  0  0  0  0  0  0  0  0  0  0
  -24.2260  -43.1914   -8.5352 C   0  0  0  0  0  0  0  0  0  0  0  0
  -23.5523  -43.2484   -7.2172 C   0  0  0  0  0  0  0  0  0  0  0  0
  -22.4120  -44.2338   -7.1865 C   0  0  0  0  0  0  0  0  0  0  0  0
  -21.5061  -43.9376   -6.2309 O   0  0  0  0  0  0  0  0  0  0  0  0
  -20.6987  -42.9528   -5.7417 C   0  0  0  0  0  0  0  0  0  0  0  0
  -19.5535  -42.3627   -6.2948 C   0  0  0  0  0  0  0  0  0  0  0  0
  -18.9275  -41.3853   -5.5777 C   0  0  0  0  0  0  0  0  0  0  0  0
  -19.4833  -41.0348   -4.3117 C   0  0  0  0  0  0  0  0  0  0  0  0
  -20.6005  -41.6052   -3.7627 C   0  0  0  0  0  0  0  0  0  0  0  0
  -21.1445  -41.1767   -2.4459 C   0  0  0  0  0  0  0  0  0  0  0  0
  -21.1604  -42.5449   -4.5086 N   0  0  0  0  0  0  0  0  0  0  0  0
  -17.7269  -40.5781   -5.8393 C   0  0  0  0  0  0  0  0  0  0  0  0
  -16.8599  -40.4890   -4.8511 O   0  0  0  0  0  0  0  0  0  0  0  0
  -17.2755  -39.8410   -6.9616 N   0  0  0  0  0  0  0  0  0  0  0  0
  1  2  1  0
  2  3  1  0
  2  4  1  0
  4  5  2  0
  5  6  1  0
  6  7  2  0
  7  8  1  0
  8  9  2  0
  7 10  1  0
 10 11  1  0
 11 12  1  0
 11 13  1  0
 11 14  1  0
 14 15  1  0
 15 16  1  6
 16 17  1  0
 17 18  1  0
 18 19  1  1
 18 20  1  0
 20 21  1  6
 21 22  1  0
 22 23  2  0
 23 24  1  0
 24 25  2  0
 25 26  1  0
 26 27  2  0
 24 28  1  0
 28 29  1  0
 29 30  1  0
 30 31  1  0
 31 32  1  0
 32 33  1  0
 33 34  1  0
 34 35  2  0
 35 36  1  0
 36 37  2  0
 37 38  1  0
 38 39  1  0
 38 40  2  0
 36 41  1  0
 41 42  2  0
 41 43  1  0
  9  4  1  0
 15  6  1  0
 27 22  1  0
 40 34  1  0
 43 20  1  0
M  END
$$$$
