
     RDKit          3D

 43 47  0  0  0  0  0  0  0  0999 V2000
  -12.2853  -34.7738  -12.5989 C   0  0  0  0  0  0  0  0  0  0  0  0
  -11.3274  -35.3017  -11.5660 C   0  0  0  0  0  0  0  0  0  0  0  0
  -11.2362  -34.4167  -10.3357 C   0  0  0  0  0  0  0  0  0  0  0  0
  -11.6137  -36.7192  -11.2277 C   0  0  0  0  0  0  0  0  0  0  0  0
  -12.7972  -37.0495  -10.5939 C   0  0  0  0  0  0  0  0  0  0  0  0
  -13.0992  -38.3610  -10.2845 C   0  0  0  0  0  0  0  0  0  0  0  0
  -12.1706  -39.3238  -10.6314 C   0  0  0  0  0  0  0  0  0  0  0  0
  -10.9687  -39.0174  -11.2701 C   0  0  0  0  0  0  0  0  0  0  0  0
  -10.7067  -37.6995  -11.5626 C   0  0  0  0  0  0  0  0  0  0  0  0
  -12.4022  -40.6664  -10.3505 O   0  0  0  0  0  0  0  0  0  0  0  0
  -13.6720  -41.1622  -10.0211 C   0  0  0  0  0  0  0  0  0  0  0  0
  -13.6298  -41.5310   -8.5369 C   0  0  0  0  0  0  0  0  0  0  0  0
  -13.9064  -42.4315  -10.7979 C   0  0  0  0  0  0  0  0  0  0  0  0
  -14.7523  -40.1279  -10.2733 C   0  0  0  0  0  0  0  0  0  0  0  0
  -14.3075  -38.7880   -9.6412 C   0  0  2  0  0  0  0  0  0  0  0  0
  -15.4237  -37.9436   -9.5024 N   0  0  0  0  0  0  0  0  0  0  0  0
  -16.3399  -38.1610   -8.4576 C   0  0  0  0  0  0  0  0  0  0  0  0
  -17.6656  -38.7062   -8.6999 C   0  0  1  0  0  0  0  0  0  0  0  0
  -17.5351  -39.8229   -9.5758 O   0  0  0  0  0  0  0  0  0  0  0  0
  -18.6096  -39.1089   -7.6438 C   0  0  2  0  0  0  0  0  0  0  0  0
  -19.4993  -38.0007   -7.1255 C   0  0  0  0  0  0  0  0  0  0  0  0
  -20.9523  -38.3849   -7.0134 C   0  0  0  0  0  0  0  0  0  0  0  0
  -21.8911  -38.6089   -7.9832 C   0  0  0  0  0  0  0  0  0  0  0  0
  -23.1604  -38.9818   -7.5750 C   0  0  0  0  0  0  0  0  0  0  0  0
  -23.4541  -39.1166   -6.1948 C   0  0  0  0  0  0  0  0  0  0  0  0
  -22.5351  -38.8982   -5.2079 C   0  0  0  0  0  0  0  0  0  0  0  0
  -21.2889  -38.5323   -5.6447 C   0  0  0  0  0  0  0  0  0  0  0  0
  -24.2782  -39.2655   -8.3228 O   0  0  0  0  0  0  0  0  0  0  0  0
  -24.6608  -39.9966   -9.4163 C   0  0  0  0  0  0  0  0  0  0  0  0
  -25.4871  -41.1966   -9.0394 C   0  0  0  0  0  0  0  0  0  0  0  0
  -24.6901  -42.1747   -8.2635 C   0  0  0  0  0  0  0  0  0  0  0  0
  -23.6587  -42.8844   -9.1031 C   0  0  0  0  0  0  0  0  0  0  0  0
  -22.6334  -43.3560   -8.3627 O   0  0  0  0  0  0  0  0  0  0  0  0
  -21.6840  -43.0125   -7.4454 C   0  0  0  0  0  0  0  0  0  0  0  0
  -20.5481  -42.2015   -7.5781 C   0  0  0  0  0  0  0  0  0  0  0  0
  -19.7554  -42.0262   -6.4817 C   0  0  0  0  0  0  0  0  0  0  0  0
  -20.1388  -42.6849   -5.2760 C   0  0  0  0  0  0  0  0  0  0  0  0
  -21.2454  -43.4791   -5.1362 C   0  0  0  0  0  0  0  0  0  0  0  0
  -21.6041  -44.1194   -3.8420 C   0  0  0  0  0  0  0  0  0  0  0  0
  -21.9719  -43.6073   -6.2356 N   0  0  0  0  0  0  0  0  0  0  0  0
  -18.5125  -41.2707   -6.2670 C   0  0  0  0  0  0  0  0  0  0  0  0
  -17.5435  -41.9108   -5.6446 O   0  0  0  0  0  0  0  0  0  0  0  0
  -18.1071  -39.9524   -6.5902 N   0  0  0  0  0  0  0  0  0  0  0  0
  1  2  1  0
  2  3  1  0
  2  4  1  0
  4  5  2  0
  5  6  1  0
  6  7  2  0
  7  8  1  0
  8  9  2  0
  7 10  1  0
 10 11  1  0
 11 12  1  0
 11 13  1  0
 11 14  1  0
 14 15  1  0
 15 16  1  6
 16 17  1  0
 17 18  1  0
 18 19  1  6
 18 20  1  0
 20 21  1  1
 21 22  1  0
 22 23  2  0
 23 24  1  0
 24 25  2  0
 25 26  1  0
 26 27  2  0
 24 28  1  0
 28 29  1  0
 29 30  1  0
 30 31  1  0
 31 32  1  0
 32 33  1  0
 33 34  1  0
 34 35  2  0
 35 36  1  0
 36 37  2  0
 37 38  1  0
 38 39  1  0
 38 40  2  0
 36 41  1  0
 41 42  2  0
 41 43  1  0
  9  4  1  0
 15  6  1  0
 27 22  1  0
 40 34  1  0
 43 20  1  0
M  END
$$$$
