
     RDKit          3D

 36 38  0  0  0  0  0  0  0  0999 V2000
  -12.2379  -35.5805  -11.1351 C   0  0  0  0  0  0  0  0  0  0  0  0
  -13.1911  -36.0758  -12.2222 C   0  0  0  0  0  0  0  0  0  0  0  0
  -12.5898  -35.7302  -13.5738 C   0  0  0  0  0  0  0  0  0  0  0  0
  -13.3776  -37.5546  -12.1023 C   0  0  0  0  0  0  0  0  0  0  0  0
  -13.4514  -38.2614  -13.2833 C   0  0  0  0  0  0  0  0  0  0  0  0
  -13.6225  -39.6246  -13.2143 C   0  0  0  0  0  0  0  0  0  0  0  0
  -13.7189  -40.2781  -12.0076 C   0  0  0  0  0  0  0  0  0  0  0  0
  -13.6433  -39.5555  -10.8230 C   0  0  0  0  0  0  0  0  0  0  0  0
  -13.7499  -40.2894   -9.5385 C   0  0  0  0  0  0  0  0  0  0  0  0
  -14.5848  -39.6236   -8.5717 N   0  0  0  0  0  0  0  0  0  0  0  0
  -15.9556  -39.5966   -9.0083 C   0  0  0  0  0  0  0  0  0  0  0  0
  -16.7973  -38.7871   -8.0404 C   0  0  1  0  0  0  0  0  0  0  0  0
  -17.5223  -37.7943   -8.6456 O   0  0  0  0  0  0  0  0  0  0  0  0
  -17.7423  -39.7670   -7.3618 C   0  0  2  0  0  0  0  0  0  0  0  0
  -18.5429  -39.0538   -6.2906 C   0  0  0  0  0  0  0  0  0  0  0  0
  -20.0132  -39.2800   -6.3661 C   0  0  2  0  0  0  0  0  0  0  0  0
  -20.6841  -37.9494   -6.6700 C   0  0  0  0  0  0  0  0  0  0  0  0
  -20.5935  -39.8210   -5.0769 C   0  0  0  0  0  0  0  0  0  0  0  0
  -21.9219  -40.5130   -5.2507 C   0  0  0  0  0  0  0  0  0  0  0  0
  -22.2740  -41.6522   -5.7500 C   0  0  0  0  0  0  0  0  0  0  0  0
  -23.5844  -42.3698   -5.9362 C   0  0  0  0  0  0  0  0  0  0  0  0
  -23.2421  -43.8700   -6.1268 C   0  0  0  0  0  0  0  0  0  0  0  0
  -23.5921  -44.3042   -7.5283 C   0  0  0  0  0  0  0  0  0  0  0  0
  -22.6868  -43.7096   -8.5785 C   0  0  0  0  0  0  0  0  0  0  0  0
  -21.4425  -44.3876   -8.7126 N   0  0  0  0  0  0  0  0  0  0  0  0
  -20.1572  -44.1513   -8.1016 C   0  0  0  0  0  0  0  0  0  0  0  0
  -19.3416  -43.0597   -8.0339 C   0  0  0  0  0  0  0  0  0  0  0  0
  -18.1479  -43.1839   -7.3511 C   0  0  0  0  0  0  0  0  0  0  0  0
  -17.8474  -44.4409   -6.7653 C   0  0  0  0  0  0  0  0  0  0  0  0
  -18.6678  -45.5426   -6.8327 C   0  0  0  0  0  0  0  0  0  0  0  0
  -18.2233  -47.0634   -6.0808 Cl  0  0  0  0  0  0  0  0  0  0  0  0
  -19.7815  -45.3444   -7.4966 N   0  0  0  0  0  0  0  0  0  0  0  0
  -17.0549  -42.2400   -7.0939 C   0  0  0  0  0  0  0  0  0  0  0  0
  -15.8088  -42.7339   -7.1392 O   0  0  0  0  0  0  0  0  0  0  0  0
  -16.9828  -40.8732   -6.7940 N   0  0  0  0  0  0  0  0  0  0  0  0
  -13.4719  -38.1928  -10.8989 C   0  0  0  0  0  0  0  0  0  0  0  0
  1  2  1  0
  2  3  1  0
  2  4  1  0
  4  5  2  0
  5  6  1  0
  6  7  2  0
  7  8  1  0
  8  9  1  0
  9 10  1  0
 10 11  1  0
 11 12  1  0
 12 13  1  6
 12 14  1  0
 14 15  1  1
 15 16  1  0
 16 17  1  1
 16 18  1  0
 18 19  1  0
 19 20  2  0
 20 21  1  0
 21 22  1  0
 22 23  1  0
 23 24  1  0
 24 25  1  0
 25 26  1  0
 26 27  2  0
 27 28  1  0
 28 29  2  0
 29 30  1  0
 30 31  1  0
 30 32  2  0
 28 33  1  0
 33 34  2  0
 33 35  1  0
  8 36  2  0
 32 26  1  0
 35 14  1  0
 36  4  1  0
M  END
$$$$
