
     RDKit          3D

 36 38  0  0  0  0  0  0  0  0999 V2000
  -13.6759  -35.4906  -13.7818 C   0  0  0  0  0  0  0  0  0  0  0  0
  -12.4697  -36.3295  -13.3613 C   0  0  0  0  0  0  0  0  0  0  0  0
  -11.7038  -35.5598  -12.2989 C   0  0  0  0  0  0  0  0  0  0  0  0
  -12.9277  -37.6450  -12.8173 C   0  0  0  0  0  0  0  0  0  0  0  0
  -13.2796  -38.6029  -13.7437 C   0  0  0  0  0  0  0  0  0  0  0  0
  -13.7060  -39.8267  -13.2821 C   0  0  0  0  0  0  0  0  0  0  0  0
  -13.7842  -40.1012  -11.9364 C   0  0  0  0  0  0  0  0  0  0  0  0
  -13.4270  -39.1279  -11.0111 C   0  0  0  0  0  0  0  0  0  0  0  0
  -13.5217  -39.4552   -9.5675 C   0  0  0  0  0  0  0  0  0  0  0  0
  -14.4211  -38.5909   -8.8471 N   0  0  0  0  0  0  0  0  0  0  0  0
  -15.7440  -39.1544   -8.7947 C   0  0  0  0  0  0  0  0  0  0  0  0
  -16.3622  -38.9130   -7.4309 C   0  0  1  0  0  0  0  0  0  0  0  0
  -16.9499  -37.6813   -7.3081 O   0  0  0  0  0  0  0  0  0  0  0  0
  -17.4079  -39.9991   -7.2294 C   0  0  2  0  0  0  0  0  0  0  0  0
  -18.2958  -39.6483   -6.0522 C   0  0  0  0  0  0  0  0  0  0  0  0
  -19.7559  -39.7311   -6.3347 C   0  0  2  0  0  0  0  0  0  0  0  0
  -20.3445  -38.3344   -6.2089 C   0  0  0  0  0  0  0  0  0  0  0  0
  -20.4909  -40.6443   -5.3769 C   0  0  0  0  0  0  0  0  0  0  0  0
  -21.8151  -41.1383   -5.9024 C   0  0  0  0  0  0  0  0  0  0  0  0
  -22.1490  -42.0056   -6.8010 C   0  0  0  0  0  0  0  0  0  0  0  0
  -23.4549  -42.5205   -7.3454 C   0  0  0  0  0  0  0  0  0  0  0  0
  -23.1447  -43.8812   -8.0211 C   0  0  0  0  0  0  0  0  0  0  0  0
  -23.3545  -43.7760   -9.5111 C   0  0  0  0  0  0  0  0  0  0  0  0
  -22.3209  -42.9184  -10.1982 C   0  0  0  0  0  0  0  0  0  0  0  0
  -21.0929  -43.5926  -10.4501 N   0  0  0  0  0  0  0  0  0  0  0  0
  -19.8745  -43.6736   -9.6820 C   0  0  0  0  0  0  0  0  0  0  0  0
  -19.0348  -42.7332   -9.1606 C   0  0  0  0  0  0  0  0  0  0  0  0
  -17.9273  -43.1698   -8.4610 C   0  0  0  0  0  0  0  0  0  0  0  0
  -17.7349  -44.5697   -8.3316 C   0  0  0  0  0  0  0  0  0  0  0  0
  -18.5798  -45.5193   -8.8567 C   0  0  0  0  0  0  0  0  0  0  0  0
  -18.2712  -47.2336   -8.6528 Cl  0  0  0  0  0  0  0  0  0  0  0  0
  -19.6073  -45.0256   -9.5055 N   0  0  0  0  0  0  0  0  0  0  0  0
  -16.8376  -42.4527   -7.7902 C   0  0  0  0  0  0  0  0  0  0  0  0
  -15.6113  -42.9858   -7.8944 O   0  0  0  0  0  0  0  0  0  0  0  0
  -16.7524  -41.2838   -7.0223 N   0  0  0  0  0  0  0  0  0  0  0  0
  -13.0013  -37.9065  -11.4792 C   0  0  0  0  0  0  0  0  0  0  0  0
  1  2  1  0
  2  3  1  0
  2  4  1  0
  4  5  2  0
  5  6  1  0
  6  7  2  0
  7  8  1  0
  8  9  1  0
  9 10  1  0
 10 11  1  0
 11 12  1  0
 12 13  1  6
 12 14  1  0
 14 15  1  1
 15 16  1  0
 16 17  1  1
 16 18  1  0
 18 19  1  0
 19 20  2  0
 20 21  1  0
 21 22  1  0
 22 23  1  0
 23 24  1  0
 24 25  1  0
 25 26  1  0
 26 27  2  0
 27 28  1  0
 28 29  2  0
 29 30  1  0
 30 31  1  0
 30 32  2  0
 28 33  1  0
 33 34  2  0
 33 35  1  0
  8 36  2  0
 32 26  1  0
 35 14  1  0
 36  4  1  0
M  END
$$$$
