
     RDKit          3D

 36 38  0  0  0  0  0  0  0  0999 V2000
  -10.8760  -36.3066  -13.0839 C   0  0  0  0  0  0  0  0  0  0  0  0
  -10.4982  -37.5243  -12.2412 C   0  0  0  0  0  0  0  0  0  0  0  0
  -10.0208  -37.0333  -10.8853 C   0  0  0  0  0  0  0  0  0  0  0  0
  -11.6846  -38.4200  -12.0783 C   0  0  0  0  0  0  0  0  0  0  0  0
  -11.5104  -39.7398  -12.4355 C   0  0  0  0  0  0  0  0  0  0  0  0
  -12.5790  -40.5954  -12.2997 C   0  0  0  0  0  0  0  0  0  0  0  0
  -13.7936  -40.1604  -11.8222 C   0  0  0  0  0  0  0  0  0  0  0  0
  -13.9580  -38.8275  -11.4651 C   0  0  0  0  0  0  0  0  0  0  0  0
  -15.2795  -38.3900  -10.9529 C   0  0  0  0  0  0  0  0  0  0  0  0
  -15.3079  -38.2256   -9.5222 N   0  0  0  0  0  0  0  0  0  0  0  0
  -16.1008  -39.2539   -8.9023 C   0  0  0  0  0  0  0  0  0  0  0  0
  -17.1513  -38.6332   -8.0013 C   0  0  1  0  0  0  0  0  0  0  0  0
  -17.9310  -37.7007   -8.6338 O   0  0  0  0  0  0  0  0  0  0  0  0
  -18.0249  -39.7742   -7.5025 C   0  0  2  0  0  0  0  0  0  0  0  0
  -18.6560  -39.3990   -6.1765 C   0  0  0  0  0  0  0  0  0  0  0  0
  -20.1290  -39.6104   -6.1127 C   0  0  2  0  0  0  0  0  0  0  0  0
  -20.7969  -38.2551   -5.9388 C   0  0  0  0  0  0  0  0  0  0  0  0
  -20.5479  -40.4977   -4.9600 C   0  0  0  0  0  0  0  0  0  0  0  0
  -21.9064  -41.1271   -5.1391 C   0  0  0  0  0  0  0  0  0  0  0  0
  -22.3534  -42.0839   -5.8846 C   0  0  0  0  0  0  0  0  0  0  0  0
  -23.6965  -42.7340   -6.0849 C   0  0  0  0  0  0  0  0  0  0  0  0
  -23.4246  -44.1167   -6.7318 C   0  0  0  0  0  0  0  0  0  0  0  0
  -23.9695  -44.1435   -8.1381 C   0  0  0  0  0  0  0  0  0  0  0  0
  -23.1955  -43.2685   -9.0926 C   0  0  0  0  0  0  0  0  0  0  0  0
  -21.9994  -43.8683   -9.5779 N   0  0  0  0  0  0  0  0  0  0  0  0
  -20.6382  -43.7996   -9.1050 C   0  0  0  0  0  0  0  0  0  0  0  0
  -19.7907  -42.7623   -8.8457 C   0  0  0  0  0  0  0  0  0  0  0  0
  -18.5209  -43.0607   -8.3929 C   0  0  0  0  0  0  0  0  0  0  0  0
  -18.1805  -44.4284   -8.2282 C   0  0  0  0  0  0  0  0  0  0  0  0
  -19.0331  -45.4754   -8.4893 C   0  0  0  0  0  0  0  0  0  0  0  0
  -18.5353  -47.1414   -8.2600 Cl  0  0  0  0  0  0  0  0  0  0  0  0
  -20.2191  -45.1105   -8.9144 N   0  0  0  0  0  0  0  0  0  0  0  0
  -17.3774  -42.2155   -8.0323 C   0  0  0  0  0  0  0  0  0  0  0  0
  -16.1627  -42.6636   -8.3821 O   0  0  0  0  0  0  0  0  0  0  0  0
  -17.2279  -40.9873   -7.3748 N   0  0  0  0  0  0  0  0  0  0  0  0
  -12.8855  -37.9772  -11.6031 C   0  0  0  0  0  0  0  0  0  0  0  0
  1  2  1  0
  2  3  1  0
  2  4  1  0
  4  5  2  0
  5  6  1  0
  6  7  2  0
  7  8  1  0
  8  9  1  0
  9 10  1  0
 10 11  1  0
 11 12  1  0
 12 13  1  6
 12 14  1  0
 14 15  1  1
 15 16  1  0
 16 17  1  1
 16 18  1  0
 18 19  1  0
 19 20  2  0
 20 21  1  0
 21 22  1  0
 22 23  1  0
 23 24  1  0
 24 25  1  0
 25 26  1  0
 26 27  2  0
 27 28  1  0
 28 29  2  0
 29 30  1  0
 30 31  1  0
 30 32  2  0
 28 33  1  0
 33 34  2  0
 33 35  1  0
  8 36  2  0
 32 26  1  0
 35 14  1  0
 36  4  1  0
M  END
$$$$
