
     RDKit          3D

 36 38  0  0  0  0  0  0  0  0999 V2000
  -14.1938  -35.1850  -13.2721 C   0  0  0  0  0  0  0  0  0  0  0  0
  -12.8909  -35.9835  -13.2461 C   0  0  0  0  0  0  0  0  0  0  0  0
  -11.8895  -35.2295  -12.3880 C   0  0  0  0  0  0  0  0  0  0  0  0
  -13.1377  -37.3444  -12.6775 C   0  0  0  0  0  0  0  0  0  0  0  0
  -12.8185  -38.4141  -13.4859 C   0  0  0  0  0  0  0  0  0  0  0  0
  -13.0310  -39.6826  -12.9980 C   0  0  0  0  0  0  0  0  0  0  0  0
  -13.5473  -39.8932  -11.7404 C   0  0  0  0  0  0  0  0  0  0  0  0
  -13.8657  -38.8073  -10.9338 C   0  0  0  0  0  0  0  0  0  0  0  0
  -14.4198  -39.0677   -9.5828 C   0  0  0  0  0  0  0  0  0  0  0  0
  -15.7817  -38.6236   -9.4323 N   0  0  0  0  0  0  0  0  0  0  0  0
  -16.5993  -39.6585   -8.8570 C   0  0  0  0  0  0  0  0  0  0  0  0
  -17.1414  -39.2108   -7.5130 C   0  0  1  0  0  0  0  0  0  0  0  0
  -17.7867  -38.0030   -7.5594 O   0  0  0  0  0  0  0  0  0  0  0  0
  -18.1109  -40.2895   -7.0545 C   0  0  2  0  0  0  0  0  0  0  0  0
  -18.9858  -39.7559   -5.9378 C   0  0  0  0  0  0  0  0  0  0  0  0
  -20.4452  -39.9757   -6.1388 C   0  0  2  0  0  0  0  0  0  0  0  0
  -21.1164  -38.6177   -6.2743 C   0  0  0  0  0  0  0  0  0  0  0  0
  -21.0944  -40.7137   -4.9876 C   0  0  0  0  0  0  0  0  0  0  0  0
  -22.3992  -41.3775   -5.3489 C   0  0  0  0  0  0  0  0  0  0  0  0
  -22.7031  -42.4271   -6.0395 C   0  0  0  0  0  0  0  0  0  0  0  0
  -23.9889  -43.1142   -6.4158 C   0  0  0  0  0  0  0  0  0  0  0  0
  -23.6131  -44.5646   -6.8146 C   0  0  0  0  0  0  0  0  0  0  0  0
  -23.8707  -44.7776   -8.2855 C   0  0  0  0  0  0  0  0  0  0  0  0
  -22.9125  -44.0221   -9.1726 C   0  0  0  0  0  0  0  0  0  0  0  0
  -21.6522  -44.6641   -9.3322 N   0  0  0  0  0  0  0  0  0  0  0  0
  -20.4101  -44.5187   -8.6132 C   0  0  0  0  0  0  0  0  0  0  0  0
  -19.6167  -43.4464   -8.3266 C   0  0  0  0  0  0  0  0  0  0  0  0
  -18.4649  -43.6687   -7.5983 C   0  0  0  0  0  0  0  0  0  0  0  0
  -18.1815  -44.9999   -7.1965 C   0  0  0  0  0  0  0  0  0  0  0  0
  -18.9797  -46.0821   -7.4847 C   0  0  0  0  0  0  0  0  0  0  0  0
  -18.5587  -47.6989   -6.9511 Cl  0  0  0  0  0  0  0  0  0  0  0  0
  -20.0539  -45.7892   -8.1780 N   0  0  0  0  0  0  0  0  0  0  0  0
  -17.4039  -42.7703   -7.1304 C   0  0  0  0  0  0  0  0  0  0  0  0
  -16.1500  -43.2443   -7.1740 O   0  0  0  0  0  0  0  0  0  0  0  0
  -17.3707  -41.4664   -6.6186 N   0  0  0  0  0  0  0  0  0  0  0  0
  -13.6505  -37.5416  -11.4276 C   0  0  0  0  0  0  0  0  0  0  0  0
  1  2  1  0
  2  3  1  0
  2  4  1  0
  4  5  2  0
  5  6  1  0
  6  7  2  0
  7  8  1  0
  8  9  1  0
  9 10  1  0
 10 11  1  0
 11 12  1  0
 12 13  1  6
 12 14  1  0
 14 15  1  1
 15 16  1  0
 16 17  1  1
 16 18  1  0
 18 19  1  0
 19 20  2  0
 20 21  1  0
 21 22  1  0
 22 23  1  0
 23 24  1  0
 24 25  1  0
 25 26  1  0
 26 27  2  0
 27 28  1  0
 28 29  2  0
 29 30  1  0
 30 31  1  0
 30 32  2  0
 28 33  1  0
 33 34  2  0
 33 35  1  0
  8 36  2  0
 32 26  1  0
 35 14  1  0
 36  4  1  0
M  END
$$$$
