
     RDKit          3D

 36 38  0  0  0  0  0  0  0  0999 V2000
  -22.7451  -37.8331   -7.6807 C   0  0  0  0  0  0  0  0  0  0  0  0
  -23.6156  -38.3384   -6.5306 C   0  0  0  0  0  0  0  0  0  0  0  0
  -24.9083  -38.8798   -7.1167 C   0  0  0  0  0  0  0  0  0  0  0  0
  -22.8969  -39.4148   -5.7816 C   0  0  0  0  0  0  0  0  0  0  0  0
  -23.6842  -40.3619   -5.1626 C   0  0  0  0  0  0  0  0  0  0  0  0
  -23.0597  -41.3688   -4.4636 C   0  0  0  0  0  0  0  0  0  0  0  0
  -21.6888  -41.4414   -4.3759 C   0  0  0  0  0  0  0  0  0  0  0  0
  -20.9047  -40.4810   -5.0037 C   0  0  0  0  0  0  0  0  0  0  0  0
  -19.4296  -40.5876   -4.8910 C   0  0  0  0  0  0  0  0  0  0  0  0
  -18.7378  -39.4169   -5.3659 N   0  0  0  0  0  0  0  0  0  0  0  0
  -18.1793  -39.6444   -6.6723 C   0  0  0  0  0  0  0  0  0  0  0  0
  -16.6649  -39.5850   -6.6118 C   0  0  1  0  0  0  0  0  0  0  0  0
  -16.1101  -40.5724   -5.8407 O   0  0  0  0  0  0  0  0  0  0  0  0
  -16.1675  -39.7162   -8.0433 C   0  0  2  0  0  0  0  0  0  0  0  0
  -14.8055  -39.0650   -8.1779 C   0  0  0  0  0  0  0  0  0  0  0  0
  -13.7751  -39.9193   -8.8312 C   0  0  2  0  0  0  0  0  0  0  0  0
  -12.6833  -40.2102   -7.8131 C   0  0  0  0  0  0  0  0  0  0  0  0
  -13.1381  -39.2586  -10.0350 C   0  0  0  0  0  0  0  0  0  0  0  0
  -12.4866  -40.2287  -10.9879 C   0  0  0  0  0  0  0  0  0  0  0  0
  -12.9467  -41.0797  -11.8454 C   0  0  0  0  0  0  0  0  0  0  0  0
  -12.3265  -42.0568  -12.8084 C   0  0  0  0  0  0  0  0  0  0  0  0
  -13.4122  -42.3821  -13.8665 C   0  0  0  0  0  0  0  0  0  0  0  0
  -13.8341  -43.8251  -13.7447 C   0  0  0  0  0  0  0  0  0  0  0  0
  -14.6203  -44.1109  -12.4893 C   0  0  0  0  0  0  0  0  0  0  0  0
  -15.9940  -43.7491  -12.5788 N   0  0  0  0  0  0  0  0  0  0  0  0
  -16.6875  -42.5391  -12.2101 C   0  0  0  0  0  0  0  0  0  0  0  0
  -16.7686  -41.8255  -11.0501 C   0  0  0  0  0  0  0  0  0  0  0  0
  -17.5441  -40.6830  -11.0450 C   0  0  0  0  0  0  0  0  0  0  0  0
  -18.2073  -40.3270  -12.2479 C   0  0  0  0  0  0  0  0  0  0  0  0
  -18.1272  -41.0451  -13.4180 C   0  0  0  0  0  0  0  0  0  0  0  0
  -18.9791  -40.5376  -14.8646 Cl  0  0  0  0  0  0  0  0  0  0  0  0
  -17.3720  -42.1148  -13.3424 N   0  0  0  0  0  0  0  0  0  0  0  0
  -17.8541  -39.7050   -9.9966 C   0  0  0  0  0  0  0  0  0  0  0  0
  -19.1069  -39.2269   -9.9697 O   0  0  0  0  0  0  0  0  0  0  0  0
  -17.1268  -39.1100   -8.9573 N   0  0  0  0  0  0  0  0  0  0  0  0
  -21.5354  -39.4770   -5.7013 C   0  0  0  0  0  0  0  0  0  0  0  0
  1  2  1  0
  2  3  1  0
  2  4  1  0
  4  5  2  0
  5  6  1  0
  6  7  2  0
  7  8  1  0
  8  9  1  0
  9 10  1  0
 10 11  1  0
 11 12  1  0
 12 13  1  1
 12 14  1  0
 14 15  1  1
 15 16  1  0
 16 17  1  1
 16 18  1  0
 18 19  1  0
 19 20  2  0
 20 21  1  0
 21 22  1  0
 22 23  1  0
 23 24  1  0
 24 25  1  0
 25 26  1  0
 26 27  2  0
 27 28  1  0
 28 29  2  0
 29 30  1  0
 30 31  1  0
 30 32  2  0
 28 33  1  0
 33 34  2  0
 33 35  1  0
  8 36  2  0
 32 26  1  0
 35 14  1  0
 36  4  1  0
M  END
$$$$
