
     RDKit          3D

 36 38  0  0  0  0  0  0  0  0999 V2000
  -23.1618  -38.2843   -9.8298 C   0  0  0  0  0  0  0  0  0  0  0  0
  -23.1368  -39.0912   -8.5321 C   0  0  0  0  0  0  0  0  0  0  0  0
  -23.8469  -40.4110   -8.7806 C   0  0  0  0  0  0  0  0  0  0  0  0
  -21.7232  -39.3360   -8.1106 C   0  0  0  0  0  0  0  0  0  0  0  0
  -21.1684  -40.5384   -8.4934 C   0  0  0  0  0  0  0  0  0  0  0  0
  -19.8692  -40.8004   -8.1247 C   0  0  0  0  0  0  0  0  0  0  0  0
  -19.1319  -39.8974   -7.3943 C   0  0  0  0  0  0  0  0  0  0  0  0
  -19.7013  -38.6883   -7.0136 C   0  0  0  0  0  0  0  0  0  0  0  0
  -18.8800  -37.7358   -6.2274 C   0  0  0  0  0  0  0  0  0  0  0  0
  -17.6223  -38.2908   -5.7975 N   0  0  0  0  0  0  0  0  0  0  0  0
  -17.0455  -39.1148   -6.8265 C   0  0  0  0  0  0  0  0  0  0  0  0
  -15.6229  -38.6743   -7.1138 C   0  0  1  0  0  0  0  0  0  0  0  0
  -14.6980  -39.2304   -6.2695 O   0  0  0  0  0  0  0  0  0  0  0  0
  -15.3203  -39.0892   -8.5457 C   0  0  2  0  0  0  0  0  0  0  0  0
  -15.4139  -37.8858   -9.4622 C   0  0  0  0  0  0  0  0  0  0  0  0
  -14.2381  -37.6991  -10.3573 C   0  0  2  0  0  0  0  0  0  0  0  0
  -13.5551  -36.3938   -9.9793 C   0  0  0  0  0  0  0  0  0  0  0  0
  -14.6165  -37.6306  -11.8213 C   0  0  0  0  0  0  0  0  0  0  0  0
  -13.4766  -37.9375  -12.7595 C   0  0  0  0  0  0  0  0  0  0  0  0
  -12.8636  -39.0267  -13.0897 C   0  0  0  0  0  0  0  0  0  0  0  0
  -11.7290  -39.3657  -14.0195 C   0  0  0  0  0  0  0  0  0  0  0  0
  -11.8386  -40.8842  -14.3131 C   0  0  0  0  0  0  0  0  0  0  0  0
  -10.6586  -41.6106  -13.7172 C   0  0  0  0  0  0  0  0  0  0  0  0
  -10.6835  -41.6488  -12.2092 C   0  0  0  0  0  0  0  0  0  0  0  0
  -11.5342  -42.6576  -11.6758 N   0  0  0  0  0  0  0  0  0  0  0  0
  -12.9146  -42.6183  -11.2584 C   0  0  0  0  0  0  0  0  0  0  0  0
  -13.6020  -41.8360  -10.3771 C   0  0  0  0  0  0  0  0  0  0  0  0
  -14.9518  -42.0763  -10.2135 C   0  0  0  0  0  0  0  0  0  0  0  0
  -15.5353  -43.1234  -10.9729 C   0  0  0  0  0  0  0  0  0  0  0  0
  -14.8441  -43.9134  -11.8614 C   0  0  0  0  0  0  0  0  0  0  0  0
  -15.6396  -45.1900  -12.7633 Cl  0  0  0  0  0  0  0  0  0  0  0  0
  -13.5689  -43.6227  -11.9609 N   0  0  0  0  0  0  0  0  0  0  0  0
  -15.9706  -41.4483   -9.3652 C   0  0  0  0  0  0  0  0  0  0  0  0
  -16.8835  -42.2631   -8.8160 O   0  0  0  0  0  0  0  0  0  0  0  0
  -16.2455  -40.1346   -8.9631 N   0  0  0  0  0  0  0  0  0  0  0  0
  -21.0007  -38.4323   -7.3857 C   0  0  0  0  0  0  0  0  0  0  0  0
  1  2  1  0
  2  3  1  0
  2  4  1  0
  4  5  2  0
  5  6  1  0
  6  7  2  0
  7  8  1  0
  8  9  1  0
  9 10  1  0
 10 11  1  0
 11 12  1  0
 12 13  1  1
 12 14  1  0
 14 15  1  6
 15 16  1  0
 16 17  1  1
 16 18  1  0
 18 19  1  0
 19 20  2  0
 20 21  1  0
 21 22  1  0
 22 23  1  0
 23 24  1  0
 24 25  1  0
 25 26  1  0
 26 27  2  0
 27 28  1  0
 28 29  2  0
 29 30  1  0
 30 31  1  0
 30 32  2  0
 28 33  1  0
 33 34  2  0
 33 35  1  0
  8 36  2  0
 32 26  1  0
 35 14  1  0
 36  4  1  0
M  END
$$$$
