
     RDKit          3D

 36 38  0  0  0  0  0  0  0  0999 V2000
  -18.9421  -33.3831  -11.8952 C   0  0  0  0  0  0  0  0  0  0  0  0
  -17.4465  -33.6661  -12.0317 C   0  0  0  0  0  0  0  0  0  0  0  0
  -16.7620  -33.2293  -10.7478 C   0  0  0  0  0  0  0  0  0  0  0  0
  -17.2226  -35.1259  -12.2661 C   0  0  0  0  0  0  0  0  0  0  0  0
  -17.9060  -35.6895  -13.3221 C   0  0  0  0  0  0  0  0  0  0  0  0
  -17.7260  -37.0306  -13.5700 C   0  0  0  0  0  0  0  0  0  0  0  0
  -16.8906  -37.8005  -12.7943 C   0  0  0  0  0  0  0  0  0  0  0  0
  -16.2066  -37.2219  -11.7320 C   0  0  0  0  0  0  0  0  0  0  0  0
  -15.3129  -38.0786  -10.9151 C   0  0  0  0  0  0  0  0  0  0  0  0
  -15.5776  -37.9903   -9.5019 N   0  0  0  0  0  0  0  0  0  0  0  0
  -16.6754  -38.8431   -9.1303 C   0  0  0  0  0  0  0  0  0  0  0  0
  -17.0481  -38.6137   -7.6781 C   0  0  1  0  0  0  0  0  0  0  0  0
  -17.8292  -37.5048   -7.4836 O   0  0  0  0  0  0  0  0  0  0  0  0
  -17.8011  -39.8540   -7.2216 C   0  0  2  0  0  0  0  0  0  0  0  0
  -18.3329  -39.6471   -5.8176 C   0  0  0  0  0  0  0  0  0  0  0  0
  -19.7783  -39.9663   -5.6521 C   0  0  2  0  0  0  0  0  0  0  0  0
  -20.5106  -38.6829   -5.2920 C   0  0  0  0  0  0  0  0  0  0  0  0
  -20.0365  -40.9827   -4.5605 C   0  0  0  0  0  0  0  0  0  0  0  0
  -21.3640  -41.6867   -4.6861 C   0  0  0  0  0  0  0  0  0  0  0  0
  -21.8158  -42.6002   -5.4814 C   0  0  0  0  0  0  0  0  0  0  0  0
  -23.1286  -43.3219   -5.6315 C   0  0  0  0  0  0  0  0  0  0  0  0
  -22.8306  -44.6170   -6.4303 C   0  0  0  0  0  0  0  0  0  0  0  0
  -23.4966  -44.5530   -7.7822 C   0  0  0  0  0  0  0  0  0  0  0  0
  -22.8669  -43.5421   -8.7081 C   0  0  0  0  0  0  0  0  0  0  0  0
  -21.6842  -44.0095   -9.3475 N   0  0  0  0  0  0  0  0  0  0  0  0
  -20.2931  -43.8891   -8.9851 C   0  0  0  0  0  0  0  0  0  0  0  0
  -19.4916  -42.8230   -8.6976 C   0  0  0  0  0  0  0  0  0  0  0  0
  -18.1703  -43.0718   -8.3834 C   0  0  0  0  0  0  0  0  0  0  0  0
  -17.7324  -44.4216   -8.3815 C   0  0  0  0  0  0  0  0  0  0  0  0
  -18.5385  -45.4974   -8.6714 C   0  0  0  0  0  0  0  0  0  0  0  0
  -17.9199  -47.1384   -8.6477 Cl  0  0  0  0  0  0  0  0  0  0  0  0
  -19.7781  -45.1793   -8.9586 N   0  0  0  0  0  0  0  0  0  0  0  0
  -17.0537  -42.1851   -8.0387 C   0  0  0  0  0  0  0  0  0  0  0  0
  -15.8498  -42.5129   -8.5305 O   0  0  0  0  0  0  0  0  0  0  0  0
  -16.9223  -41.0148   -7.2796 N   0  0  0  0  0  0  0  0  0  0  0  0
  -16.3908  -35.8804  -11.4896 C   0  0  0  0  0  0  0  0  0  0  0  0
  1  2  1  0
  2  3  1  0
  2  4  1  0
  4  5  2  0
  5  6  1  0
  6  7  2  0
  7  8  1  0
  8  9  1  0
  9 10  1  0
 10 11  1  0
 11 12  1  0
 12 13  1  6
 12 14  1  0
 14 15  1  1
 15 16  1  0
 16 17  1  1
 16 18  1  0
 18 19  1  0
 19 20  2  0
 20 21  1  0
 21 22  1  0
 22 23  1  0
 23 24  1  0
 24 25  1  0
 25 26  1  0
 26 27  2  0
 27 28  1  0
 28 29  2  0
 29 30  1  0
 30 31  1  0
 30 32  2  0
 28 33  1  0
 33 34  2  0
 33 35  1  0
  8 36  2  0
 32 26  1  0
 35 14  1  0
 36  4  1  0
M  END
$$$$
