
     RDKit          3D

 36 38  0  0  0  0  0  0  0  0999 V2000
  -10.2055  -37.3743  -13.9336 C   0  0  0  0  0  0  0  0  0  0  0  0
  -10.2719  -37.6497  -12.4318 C   0  0  0  0  0  0  0  0  0  0  0  0
  -10.1736  -36.3214  -11.7011 C   0  0  0  0  0  0  0  0  0  0  0  0
  -11.5595  -38.3312  -12.0944 C   0  0  0  0  0  0  0  0  0  0  0  0
  -11.5855  -39.7013  -12.2426 C   0  0  0  0  0  0  0  0  0  0  0  0
  -12.7525  -40.3647  -11.9417 C   0  0  0  0  0  0  0  0  0  0  0  0
  -13.8704  -39.6928  -11.5042 C   0  0  0  0  0  0  0  0  0  0  0  0
  -13.8330  -38.3114  -11.3585 C   0  0  0  0  0  0  0  0  0  0  0  0
  -15.0545  -37.6165  -10.8841 C   0  0  0  0  0  0  0  0  0  0  0  0
  -16.1950  -38.4885  -10.7681 N   0  0  0  0  0  0  0  0  0  0  0  0
  -16.3508  -38.9539   -9.4155 C   0  0  0  0  0  0  0  0  0  0  0  0
  -17.4984  -38.2270   -8.7407 C   0  0  1  0  0  0  0  0  0  0  0  0
  -18.3369  -37.5945   -9.6208 O   0  0  0  0  0  0  0  0  0  0  0  0
  -18.2763  -39.2744   -7.9587 C   0  0  2  0  0  0  0  0  0  0  0  0
  -19.1203  -38.6021   -6.8944 C   0  0  0  0  0  0  0  0  0  0  0  0
  -20.5493  -39.0222   -6.8838 C   0  0  2  0  0  0  0  0  0  0  0  0
  -21.4030  -37.8133   -7.2341 C   0  0  0  0  0  0  0  0  0  0  0  0
  -20.9995  -39.5475   -5.5375 C   0  0  0  0  0  0  0  0  0  0  0  0
  -22.2301  -40.4165   -5.6038 C   0  0  0  0  0  0  0  0  0  0  0  0
  -22.4476  -41.6223   -6.0157 C   0  0  0  0  0  0  0  0  0  0  0  0
  -23.6575  -42.5150   -6.0937 C   0  0  0  0  0  0  0  0  0  0  0  0
  -23.1268  -43.9673   -6.2101 C   0  0  0  0  0  0  0  0  0  0  0  0
  -23.4727  -44.5351   -7.5640 C   0  0  0  0  0  0  0  0  0  0  0  0
  -22.6981  -43.8987   -8.6914 C   0  0  0  0  0  0  0  0  0  0  0  0
  -21.3812  -44.4163   -8.8453 N   0  0  0  0  0  0  0  0  0  0  0  0
  -20.1149  -43.9750   -8.3134 C   0  0  0  0  0  0  0  0  0  0  0  0
  -19.4496  -42.7844   -8.3518 C   0  0  0  0  0  0  0  0  0  0  0  0
  -18.2232  -42.7068   -7.7222 C   0  0  0  0  0  0  0  0  0  0  0  0
  -17.7346  -43.8725   -7.0771 C   0  0  0  0  0  0  0  0  0  0  0  0
  -18.4034  -45.0735   -7.0377 C   0  0  0  0  0  0  0  0  0  0  0  0
  -17.7303  -46.4704   -6.2182 Cl  0  0  0  0  0  0  0  0  0  0  0  0
  -19.5596  -45.0663   -7.6569 N   0  0  0  0  0  0  0  0  0  0  0  0
  -17.2559  -41.6138   -7.5763 C   0  0  0  0  0  0  0  0  0  0  0  0
  -15.9580  -41.9433   -7.6530 O   0  0  0  0  0  0  0  0  0  0  0  0
  -17.3539  -40.2324   -7.3632 N   0  0  0  0  0  0  0  0  0  0  0  0
  -12.6630  -37.6541  -11.6608 C   0  0  0  0  0  0  0  0  0  0  0  0
  1  2  1  0
  2  3  1  0
  2  4  1  0
  4  5  2  0
  5  6  1  0
  6  7  2  0
  7  8  1  0
  8  9  1  0
  9 10  1  0
 10 11  1  0
 11 12  1  0
 12 13  1  6
 12 14  1  0
 14 15  1  1
 15 16  1  0
 16 17  1  1
 16 18  1  0
 18 19  1  0
 19 20  2  0
 20 21  1  0
 21 22  1  0
 22 23  1  0
 23 24  1  0
 24 25  1  0
 25 26  1  0
 26 27  2  0
 27 28  1  0
 28 29  2  0
 29 30  1  0
 30 31  1  0
 30 32  2  0
 28 33  1  0
 33 34  2  0
 33 35  1  0
  8 36  2  0
 32 26  1  0
 35 14  1  0
 36  4  1  0
M  END
$$$$
