
     RDKit          3D

 36 38  0  0  0  0  0  0  0  0999 V2000
  -23.3040  -42.8235   -5.5965 C   0  0  0  0  0  0  0  0  0  0  0  0
  -22.9796  -42.0060   -6.8463 C   0  0  0  0  0  0  0  0  0  0  0  0
  -24.2890  -41.5670   -7.4791 C   0  0  0  0  0  0  0  0  0  0  0  0
  -22.1584  -40.8123   -6.4764 C   0  0  0  0  0  0  0  0  0  0  0  0
  -22.7136  -39.9462   -5.5590 C   0  0  0  0  0  0  0  0  0  0  0  0
  -21.9883  -38.8361   -5.1929 C   0  0  0  0  0  0  0  0  0  0  0  0
  -20.7426  -38.5841   -5.7192 C   0  0  0  0  0  0  0  0  0  0  0  0
  -20.1925  -39.4639   -6.6436 C   0  0  0  0  0  0  0  0  0  0  0  0
  -18.8473  -39.1645   -7.1919 C   0  0  0  0  0  0  0  0  0  0  0  0
  -17.8539  -38.9467   -6.1718 N   0  0  0  0  0  0  0  0  0  0  0  0
  -16.6250  -39.6199   -6.4990 C   0  0  0  0  0  0  0  0  0  0  0  0
  -15.6856  -38.6729   -7.2211 C   0  0  1  0  0  0  0  0  0  0  0  0
  -14.4600  -38.5556   -6.6197 O   0  0  0  0  0  0  0  0  0  0  0  0
  -15.5121  -39.2226   -8.6288 C   0  0  2  0  0  0  0  0  0  0  0  0
  -15.5968  -38.0943   -9.6372 C   0  0  0  0  0  0  0  0  0  0  0  0
  -14.4786  -38.0607  -10.6206 C   0  0  2  0  0  0  0  0  0  0  0  0
  -13.6915  -36.7778  -10.4022 C   0  0  0  0  0  0  0  0  0  0  0  0
  -14.9556  -38.0865  -12.0570 C   0  0  0  0  0  0  0  0  0  0  0  0
  -13.9065  -38.5448  -13.0385 C   0  0  0  0  0  0  0  0  0  0  0  0
  -13.3867  -39.6959  -13.3135 C   0  0  0  0  0  0  0  0  0  0  0  0
  -12.3442  -40.1851  -14.2835 C   0  0  0  0  0  0  0  0  0  0  0  0
  -12.5676  -41.7117  -14.4376 C   0  0  0  0  0  0  0  0  0  0  0  0
  -11.3949  -42.4646  -13.8606 C   0  0  0  0  0  0  0  0  0  0  0  0
  -11.3144  -42.3781  -12.3566 C   0  0  0  0  0  0  0  0  0  0  0  0
  -12.1852  -43.2806  -11.6834 N   0  0  0  0  0  0  0  0  0  0  0  0
  -13.5273  -43.1148  -11.1809 C   0  0  0  0  0  0  0  0  0  0  0  0
  -14.1007  -42.2187  -10.3267 C   0  0  0  0  0  0  0  0  0  0  0  0
  -15.4476  -42.3537  -10.0543 C   0  0  0  0  0  0  0  0  0  0  0  0
  -16.1470  -43.4177  -10.6807 C   0  0  0  0  0  0  0  0  0  0  0  0
  -15.5707  -44.3222  -11.5417 C   0  0  0  0  0  0  0  0  0  0  0  0
  -16.5055  -45.6117  -12.2761 Cl  0  0  0  0  0  0  0  0  0  0  0  0
  -14.2905  -44.1269  -11.7497 N   0  0  0  0  0  0  0  0  0  0  0  0
  -16.3628  -41.5917   -9.1978 C   0  0  0  0  0  0  0  0  0  0  0  0
  -17.2824  -42.2958   -8.5216 O   0  0  0  0  0  0  0  0  0  0  0  0
  -16.5271  -40.2340   -8.8929 N   0  0  0  0  0  0  0  0  0  0  0  0
  -20.9228  -40.5722   -7.0052 C   0  0  0  0  0  0  0  0  0  0  0  0
  1  2  1  0
  2  3  1  0
  2  4  1  0
  4  5  2  0
  5  6  1  0
  6  7  2  0
  7  8  1  0
  8  9  1  0
  9 10  1  0
 10 11  1  0
 11 12  1  0
 12 13  1  1
 12 14  1  0
 14 15  1  6
 15 16  1  0
 16 17  1  6
 16 18  1  0
 18 19  1  0
 19 20  2  0
 20 21  1  0
 21 22  1  0
 22 23  1  0
 23 24  1  0
 24 25  1  0
 25 26  1  0
 26 27  2  0
 27 28  1  0
 28 29  2  0
 29 30  1  0
 30 31  1  0
 30 32  2  0
 28 33  1  0
 33 34  2  0
 33 35  1  0
  8 36  2  0
 32 26  1  0
 35 14  1  0
 36  4  1  0
M  END
$$$$
