
     RDKit          3D

 36 38  0  0  0  0  0  0  0  0999 V2000
  -14.4796  -35.3165  -12.0550 C   0  0  0  0  0  0  0  0  0  0  0  0
  -13.4238  -36.0171  -12.9096 C   0  0  0  0  0  0  0  0  0  0  0  0
  -12.0550  -35.5284  -12.4674 C   0  0  0  0  0  0  0  0  0  0  0  0
  -13.5256  -37.4985  -12.7334 C   0  0  0  0  0  0  0  0  0  0  0  0
  -13.5357  -38.2541  -13.8862 C   0  0  0  0  0  0  0  0  0  0  0  0
  -13.6279  -39.6213  -13.7653 C   0  0  0  0  0  0  0  0  0  0  0  0
  -13.7087  -40.2316  -12.5352 C   0  0  0  0  0  0  0  0  0  0  0  0
  -13.6977  -39.4601  -11.3794 C   0  0  0  0  0  0  0  0  0  0  0  0
  -13.7854  -40.1482  -10.0684 C   0  0  0  0  0  0  0  0  0  0  0  0
  -14.5847  -39.4353   -9.1052 N   0  0  0  0  0  0  0  0  0  0  0  0
  -15.9799  -39.4913   -9.4529 C   0  0  0  0  0  0  0  0  0  0  0  0
  -16.8034  -38.7211   -8.4385 C   0  0  1  0  0  0  0  0  0  0  0  0
  -17.5226  -37.6920   -8.9873 O   0  0  0  0  0  0  0  0  0  0  0  0
  -17.7532  -39.7227   -7.7994 C   0  0  2  0  0  0  0  0  0  0  0  0
  -18.5262  -39.0577   -6.6781 C   0  0  0  0  0  0  0  0  0  0  0  0
  -20.0008  -39.2576   -6.7422 C   0  0  2  0  0  0  0  0  0  0  0  0
  -20.6553  -37.9025   -6.9620 C   0  0  0  0  0  0  0  0  0  0  0  0
  -20.5698  -39.8600   -5.4754 C   0  0  0  0  0  0  0  0  0  0  0  0
  -21.9114  -40.5216   -5.6655 C   0  0  0  0  0  0  0  0  0  0  0  0
  -22.2889  -41.6263   -6.2207 C   0  0  0  0  0  0  0  0  0  0  0  0
  -23.6131  -42.3131   -6.4248 C   0  0  0  0  0  0  0  0  0  0  0  0
  -23.2973  -43.8054   -6.7027 C   0  0  0  0  0  0  0  0  0  0  0  0
  -23.6753  -44.1567   -8.1201 C   0  0  0  0  0  0  0  0  0  0  0  0
  -22.7769  -43.5188   -9.1506 C   0  0  0  0  0  0  0  0  0  0  0  0
  -21.5456  -44.2066   -9.3416 N   0  0  0  0  0  0  0  0  0  0  0  0
  -20.2476  -44.0234   -8.7393 C   0  0  0  0  0  0  0  0  0  0  0  0
  -19.4141  -42.9494   -8.6250 C   0  0  0  0  0  0  0  0  0  0  0  0
  -18.2122  -43.1287   -7.9693 C   0  0  0  0  0  0  0  0  0  0  0  0
  -17.9225  -44.4203   -7.4581 C   0  0  0  0  0  0  0  0  0  0  0  0
  -18.7611  -45.5043   -7.5725 C   0  0  0  0  0  0  0  0  0  0  0  0
  -18.3290  -47.0706   -6.9123 Cl  0  0  0  0  0  0  0  0  0  0  0  0
  -19.8815  -45.2534   -8.2067 N   0  0  0  0  0  0  0  0  0  0  0  0
  -17.1007  -42.2166   -7.6784 C   0  0  0  0  0  0  0  0  0  0  0  0
  -15.8633  -42.7257   -7.7708 O   0  0  0  0  0  0  0  0  0  0  0  0
  -17.0026  -40.8696   -7.3053 N   0  0  0  0  0  0  0  0  0  0  0  0
  -13.6050  -38.0936  -11.5071 C   0  0  0  0  0  0  0  0  0  0  0  0
  1  2  1  0
  2  3  1  0
  2  4  1  0
  4  5  2  0
  5  6  1  0
  6  7  2  0
  7  8  1  0
  8  9  1  0
  9 10  1  0
 10 11  1  0
 11 12  1  0
 12 13  1  6
 12 14  1  0
 14 15  1  1
 15 16  1  0
 16 17  1  1
 16 18  1  0
 18 19  1  0
 19 20  2  0
 20 21  1  0
 21 22  1  0
 22 23  1  0
 23 24  1  0
 24 25  1  0
 25 26  1  0
 26 27  2  0
 27 28  1  0
 28 29  2  0
 29 30  1  0
 30 31  1  0
 30 32  2  0
 28 33  1  0
 33 34  2  0
 33 35  1  0
  8 36  2  0
 32 26  1  0
 35 14  1  0
 36  4  1  0
M  END
$$$$
