
     RDKit          3D

 36 38  0  0  0  0  0  0  0  0999 V2000
  -23.2992  -37.5760   -6.3063 C   0  0  0  0  0  0  0  0  0  0  0  0
  -22.7239  -38.7147   -5.4647 C   0  0  0  0  0  0  0  0  0  0  0  0
  -23.8806  -39.4604   -4.8215 C   0  0  0  0  0  0  0  0  0  0  0  0
  -21.9307  -39.6396   -6.3316 C   0  0  0  0  0  0  0  0  0  0  0  0
  -22.4993  -39.9884   -7.5378 C   0  0  0  0  0  0  0  0  0  0  0  0
  -21.7999  -40.8376   -8.3636 C   0  0  0  0  0  0  0  0  0  0  0  0
  -20.5665  -41.3330   -8.0091 C   0  0  0  0  0  0  0  0  0  0  0  0
  -20.0027  -40.9747   -6.7905 C   0  0  0  0  0  0  0  0  0  0  0  0
  -18.6712  -41.5251   -6.4378 C   0  0  0  0  0  0  0  0  0  0  0  0
  -17.6660  -40.5091   -6.2591 N   0  0  0  0  0  0  0  0  0  0  0  0
  -16.4957  -40.8002   -7.0441 C   0  0  0  0  0  0  0  0  0  0  0  0
  -15.5549  -39.6104   -7.0422 C   0  0  1  0  0  0  0  0  0  0  0  0
  -14.3739  -39.8493   -6.3899 O   0  0  0  0  0  0  0  0  0  0  0  0
  -15.2739  -39.2764   -8.4994 C   0  0  2  0  0  0  0  0  0  0  0  0
  -14.7065  -37.8752   -8.6073 C   0  0  0  0  0  0  0  0  0  0  0  0
  -13.4585  -37.7754   -9.4142 C   0  0  2  0  0  0  0  0  0  0  0  0
  -12.3314  -37.3327   -8.4941 C   0  0  0  0  0  0  0  0  0  0  0  0
  -13.5670  -36.7770  -10.5468 C   0  0  0  0  0  0  0  0  0  0  0  0
  -12.5610  -36.9952  -11.6488 C   0  0  0  0  0  0  0  0  0  0  0  0
  -12.4480  -37.8738  -12.5902 C   0  0  0  0  0  0  0  0  0  0  0  0
  -11.4620  -38.1174  -13.7016 C   0  0  0  0  0  0  0  0  0  0  0  0
  -12.1842  -39.0100  -14.7436 C   0  0  0  0  0  0  0  0  0  0  0  0
  -11.5336  -40.3699  -14.7961 C   0  0  0  0  0  0  0  0  0  0  0  0
  -11.7765  -41.1935  -13.5557 C   0  0  0  0  0  0  0  0  0  0  0  0
  -13.0463  -41.8362  -13.5343 N   0  0  0  0  0  0  0  0  0  0  0  0
  -14.3126  -41.4276  -12.9771 C   0  0  0  0  0  0  0  0  0  0  0  0
  -14.7006  -41.0331  -11.7300 C   0  0  0  0  0  0  0  0  0  0  0  0
  -16.0278  -40.7043  -11.5380 C   0  0  0  0  0  0  0  0  0  0  0  0
  -16.9020  -40.7998  -12.6517 C   0  0  0  0  0  0  0  0  0  0  0  0
  -16.5130  -41.1975  -13.9094 C   0  0  0  0  0  0  0  0  0  0  0  0
  -17.6568  -41.2898  -15.2357 Cl  0  0  0  0  0  0  0  0  0  0  0  0
  -15.2388  -41.4917  -14.0108 N   0  0  0  0  0  0  0  0  0  0  0  0
  -16.7734  -40.2588  -10.3558 C   0  0  0  0  0  0  0  0  0  0  0  0
  -18.0157  -40.7426  -10.2091 O   0  0  0  0  0  0  0  0  0  0  0  0
  -16.4973  -39.4042   -9.2804 N   0  0  0  0  0  0  0  0  0  0  0  0
  -20.7071  -40.1251   -5.9695 C   0  0  0  0  0  0  0  0  0  0  0  0
  1  2  1  0
  2  3  1  0
  2  4  1  0
  4  5  2  0
  5  6  1  0
  6  7  2  0
  7  8  1  0
  8  9  1  0
  9 10  1  0
 10 11  1  0
 11 12  1  0
 12 13  1  1
 12 14  1  0
 14 15  1  1
 15 16  1  0
 16 17  1  1
 16 18  1  0
 18 19  1  0
 19 20  2  0
 20 21  1  0
 21 22  1  0
 22 23  1  0
 23 24  1  0
 24 25  1  0
 25 26  1  0
 26 27  2  0
 27 28  1  0
 28 29  2  0
 29 30  1  0
 30 31  1  0
 30 32  2  0
 28 33  1  0
 33 34  2  0
 33 35  1  0
  8 36  2  0
 32 26  1  0
 35 14  1  0
 36  4  1  0
M  END
$$$$
