
     RDKit          3D

 36 38  0  0  0  0  0  0  0  0999 V2000
  -24.2332  -38.3441   -5.6317 C   0  0  0  0  0  0  0  0  0  0  0  0
  -23.8127  -38.8364   -7.0161 C   0  0  0  0  0  0  0  0  0  0  0  0
  -23.5921  -37.6237   -7.9040 C   0  0  0  0  0  0  0  0  0  0  0  0
  -22.5539  -39.6370   -6.9124 C   0  0  0  0  0  0  0  0  0  0  0  0
  -22.5937  -40.9128   -7.4327 C   0  0  0  0  0  0  0  0  0  0  0  0
  -21.4549  -41.6806   -7.3564 C   0  0  0  0  0  0  0  0  0  0  0  0
  -20.3011  -41.2022   -6.7799 C   0  0  0  0  0  0  0  0  0  0  0  0
  -20.2722  -39.9145   -6.2584 C   0  0  0  0  0  0  0  0  0  0  0  0
  -19.0130  -39.4278   -5.6441 C   0  0  0  0  0  0  0  0  0  0  0  0
  -17.8325  -39.9956   -6.2432 N   0  0  0  0  0  0  0  0  0  0  0  0
  -17.6835  -39.5535   -7.6044 C   0  0  0  0  0  0  0  0  0  0  0  0
  -16.3775  -38.8001   -7.7701 C   0  0  1  0  0  0  0  0  0  0  0  0
  -15.4754  -39.0442   -6.7680 O   0  0  0  0  0  0  0  0  0  0  0  0
  -15.7896  -39.2376   -9.1030 C   0  0  2  0  0  0  0  0  0  0  0  0
  -15.7345  -38.0590  -10.0543 C   0  0  0  0  0  0  0  0  0  0  0  0
  -14.4117  -37.8552  -10.7080 C   0  0  2  0  0  0  0  0  0  0  0  0
  -13.8514  -36.5204  -10.2417 C   0  0  0  0  0  0  0  0  0  0  0  0
  -14.4981  -37.8323  -12.2191 C   0  0  0  0  0  0  0  0  0  0  0  0
  -13.1887  -38.1238  -12.9079 C   0  0  0  0  0  0  0  0  0  0  0  0
  -12.4938  -39.1999  -13.0810 C   0  0  0  0  0  0  0  0  0  0  0  0
  -11.1904  -39.5235  -13.7617 C   0  0  0  0  0  0  0  0  0  0  0  0
  -11.1994  -41.0510  -14.0274 C   0  0  0  0  0  0  0  0  0  0  0  0
  -10.1396  -41.7254  -13.1924 C   0  0  0  0  0  0  0  0  0  0  0  0
  -10.4581  -41.7300  -11.7177 C   0  0  0  0  0  0  0  0  0  0  0  0
  -11.3692  -42.7532  -11.3317 N   0  0  0  0  0  0  0  0  0  0  0  0
  -12.8051  -42.7487  -11.1927 C   0  0  0  0  0  0  0  0  0  0  0  0
  -13.6726  -41.9689  -10.4850 C   0  0  0  0  0  0  0  0  0  0  0  0
  -15.0213  -42.2486  -10.5808 C   0  0  0  0  0  0  0  0  0  0  0  0
  -15.4164  -43.3310  -11.4090 C   0  0  0  0  0  0  0  0  0  0  0  0
  -14.5436  -44.1184  -12.1228 C   0  0  0  0  0  0  0  0  0  0  0  0
  -15.1125  -45.4401  -13.1256 Cl  0  0  0  0  0  0  0  0  0  0  0  0
  -13.2819  -43.7893  -11.9802 N   0  0  0  0  0  0  0  0  0  0  0  0
  -16.2030  -41.6345   -9.9657 C   0  0  0  0  0  0  0  0  0  0  0  0
  -17.1833  -42.4654   -9.5819 O   0  0  0  0  0  0  0  0  0  0  0  0
  -16.5866  -40.3214   -9.6627 N   0  0  0  0  0  0  0  0  0  0  0  0
  -21.4143  -39.1517   -6.3380 C   0  0  0  0  0  0  0  0  0  0  0  0
  1  2  1  0
  2  3  1  0
  2  4  1  0
  4  5  2  0
  5  6  1  0
  6  7  2  0
  7  8  1  0
  8  9  1  0
  9 10  1  0
 10 11  1  0
 11 12  1  0
 12 13  1  1
 12 14  1  0
 14 15  1  6
 15 16  1  0
 16 17  1  1
 16 18  1  0
 18 19  1  0
 19 20  2  0
 20 21  1  0
 21 22  1  0
 22 23  1  0
 23 24  1  0
 24 25  1  0
 25 26  1  0
 26 27  2  0
 27 28  1  0
 28 29  2  0
 29 30  1  0
 30 31  1  0
 30 32  2  0
 28 33  1  0
 33 34  2  0
 33 35  1  0
  8 36  2  0
 32 26  1  0
 35 14  1  0
 36  4  1  0
M  END
$$$$
