
     RDKit          3D

 36 38  0  0  0  0  0  0  0  0999 V2000
  -23.3597  -38.5725   -8.3593 C   0  0  0  0  0  0  0  0  0  0  0  0
  -23.6924  -39.1891   -7.0011 C   0  0  0  0  0  0  0  0  0  0  0  0
  -24.7913  -40.2183   -7.2038 C   0  0  0  0  0  0  0  0  0  0  0  0
  -22.4756  -39.8388   -6.4238 C   0  0  0  0  0  0  0  0  0  0  0  0
  -22.5639  -41.1909   -6.1705 C   0  0  0  0  0  0  0  0  0  0  0  0
  -21.4646  -41.8248   -5.6394 C   0  0  0  0  0  0  0  0  0  0  0  0
  -20.3029  -41.1417   -5.3634 C   0  0  0  0  0  0  0  0  0  0  0  0
  -20.2250  -39.7787   -5.6226 C   0  0  0  0  0  0  0  0  0  0  0  0
  -18.9584  -39.0710   -5.3146 C   0  0  0  0  0  0  0  0  0  0  0  0
  -17.8144  -39.9455   -5.2753 N   0  0  0  0  0  0  0  0  0  0  0  0
  -17.4104  -40.3232   -6.6037 C   0  0  0  0  0  0  0  0  0  0  0  0
  -16.4796  -39.2763   -7.1853 C   0  0  1  0  0  0  0  0  0  0  0  0
  -15.3417  -39.0862   -6.4459 O   0  0  0  0  0  0  0  0  0  0  0  0
  -16.1070  -39.7532   -8.5808 C   0  0  2  0  0  0  0  0  0  0  0  0
  -16.2419  -38.6122   -9.5691 C   0  0  0  0  0  0  0  0  0  0  0  0
  -15.0509  -38.4058  -10.4394 C   0  0  2  0  0  0  0  0  0  0  0  0
  -14.4589  -37.0419  -10.1198 C   0  0  0  0  0  0  0  0  0  0  0  0
  -15.3853  -38.4444  -11.9152 C   0  0  0  0  0  0  0  0  0  0  0  0
  -14.1996  -38.7345  -12.8005 C   0  0  0  0  0  0  0  0  0  0  0  0
  -13.5129  -39.8014  -13.0480 C   0  0  0  0  0  0  0  0  0  0  0  0
  -12.3308  -40.1234  -13.9231 C   0  0  0  0  0  0  0  0  0  0  0  0
  -12.3409  -41.6600  -14.1296 C   0  0  0  0  0  0  0  0  0  0  0  0
  -11.1399  -42.2779  -13.4580 C   0  0  0  0  0  0  0  0  0  0  0  0
  -11.2112  -42.2312  -11.9518 C   0  0  0  0  0  0  0  0  0  0  0  0
  -12.0175  -43.2578  -11.3844 N   0  0  0  0  0  0  0  0  0  0  0  0
  -13.4105  -43.2788  -11.0100 C   0  0  0  0  0  0  0  0  0  0  0  0
  -14.1711  -42.4906  -10.1966 C   0  0  0  0  0  0  0  0  0  0  0  0
  -15.5089  -42.8029  -10.0579 C   0  0  0  0  0  0  0  0  0  0  0  0
  -16.0046  -43.9254  -10.7706 C   0  0  0  0  0  0  0  0  0  0  0  0
  -15.2396  -44.7214  -11.5907 C   0  0  0  0  0  0  0  0  0  0  0  0
  -15.9288  -46.0935  -12.4381 Cl  0  0  0  0  0  0  0  0  0  0  0  0
  -13.9814  -44.3597  -11.6705 N   0  0  0  0  0  0  0  0  0  0  0  0
  -16.5899  -42.1906   -9.2779 C   0  0  0  0  0  0  0  0  0  0  0  0
  -17.4702  -43.0268   -8.7081 O   0  0  0  0  0  0  0  0  0  0  0  0
  -16.9548  -40.8752   -8.9622 N   0  0  0  0  0  0  0  0  0  0  0  0
  -21.3276  -39.1508   -6.1539 C   0  0  0  0  0  0  0  0  0  0  0  0
  1  2  1  0
  2  3  1  0
  2  4  1  0
  4  5  2  0
  5  6  1  0
  6  7  2  0
  7  8  1  0
  8  9  1  0
  9 10  1  0
 10 11  1  0
 11 12  1  0
 12 13  1  1
 12 14  1  0
 14 15  1  6
 15 16  1  0
 16 17  1  1
 16 18  1  0
 18 19  1  0
 19 20  2  0
 20 21  1  0
 21 22  1  0
 22 23  1  0
 23 24  1  0
 24 25  1  0
 25 26  1  0
 26 27  2  0
 27 28  1  0
 28 29  2  0
 29 30  1  0
 30 31  1  0
 30 32  2  0
 28 33  1  0
 33 34  2  0
 33 35  1  0
  8 36  2  0
 32 26  1  0
 35 14  1  0
 36  4  1  0
M  END
$$$$
