
     RDKit          3D

 36 38  0  0  0  0  0  0  0  0999 V2000
  -23.7505  -39.5034   -2.7825 C   0  0  0  0  0  0  0  0  0  0  0  0
  -22.3255  -40.0003   -2.5413 C   0  0  0  0  0  0  0  0  0  0  0  0
  -22.2366  -40.5112   -1.1135 C   0  0  0  0  0  0  0  0  0  0  0  0
  -21.9976  -41.0966   -3.5040 C   0  0  0  0  0  0  0  0  0  0  0  0
  -22.8431  -42.1853   -3.5051 C   0  0  0  0  0  0  0  0  0  0  0  0
  -22.5746  -43.2146   -4.3773 C   0  0  0  0  0  0  0  0  0  0  0  0
  -21.4963  -43.1729   -5.2304 C   0  0  0  0  0  0  0  0  0  0  0  0
  -20.6504  -42.0704   -5.2208 C   0  0  0  0  0  0  0  0  0  0  0  0
  -19.4970  -42.0553   -6.1532 C   0  0  0  0  0  0  0  0  0  0  0  0
  -18.7424  -40.8293   -6.1034 N   0  0  0  0  0  0  0  0  0  0  0  0
  -17.3571  -41.0654   -6.4125 C   0  0  0  0  0  0  0  0  0  0  0  0
  -16.5876  -39.7584   -6.3986 C   0  0  1  0  0  0  0  0  0  0  0  0
  -15.2459  -39.9171   -6.1702 O   0  0  0  0  0  0  0  0  0  0  0  0
  -16.8002  -39.1145   -7.7602 C   0  0  2  0  0  0  0  0  0  0  0  0
  -16.3177  -37.6780   -7.7326 C   0  0  0  0  0  0  0  0  0  0  0  0
  -15.4014  -37.3135   -8.8488 C   0  0  2  0  0  0  0  0  0  0  0  0
  -14.0424  -36.9734   -8.2568 C   0  0  0  0  0  0  0  0  0  0  0  0
  -15.8857  -36.1194   -9.6432 C   0  0  0  0  0  0  0  0  0  0  0  0
  -15.2899  -36.0257  -11.0252 C   0  0  0  0  0  0  0  0  0  0  0  0
  -15.4774  -36.6833  -12.1222 C   0  0  0  0  0  0  0  0  0  0  0  0
  -14.9031  -36.6141  -13.5123 C   0  0  0  0  0  0  0  0  0  0  0  0
  -15.9128  -37.3348  -14.4425 C   0  0  0  0  0  0  0  0  0  0  0  0
  -15.2963  -38.5969  -14.9924 C   0  0  0  0  0  0  0  0  0  0  0  0
  -15.1115  -39.6715  -13.9499 C   0  0  0  0  0  0  0  0  0  0  0  0
  -16.2966  -40.4089  -13.6709 N   0  0  0  0  0  0  0  0  0  0  0  0
  -17.3183  -40.2285  -12.6686 C   0  0  0  0  0  0  0  0  0  0  0  0
  -17.2849  -40.1280  -11.3084 C   0  0  0  0  0  0  0  0  0  0  0  0
  -18.4819  -39.9566  -10.6417 C   0  0  0  0  0  0  0  0  0  0  0  0
  -19.6693  -39.8976  -11.4164 C   0  0  0  0  0  0  0  0  0  0  0  0
  -19.7051  -39.9991  -12.7875 C   0  0  0  0  0  0  0  0  0  0  0  0
  -21.2167  -39.9166  -13.6731 Cl  0  0  0  0  0  0  0  0  0  0  0  0
  -18.5293  -40.1593  -13.3462 N   0  0  0  0  0  0  0  0  0  0  0  0
  -18.8085  -39.8231   -9.2179 C   0  0  0  0  0  0  0  0  0  0  0  0
  -19.9289  -40.4284   -8.7972 O   0  0  0  0  0  0  0  0  0  0  0  0
  -18.2092  -39.1834   -8.1248 N   0  0  0  0  0  0  0  0  0  0  0  0
  -20.9245  -41.0444   -4.3465 C   0  0  0  0  0  0  0  0  0  0  0  0
  1  2  1  0
  2  3  1  0
  2  4  1  0
  4  5  2  0
  5  6  1  0
  6  7  2  0
  7  8  1  0
  8  9  1  0
  9 10  1  0
 10 11  1  0
 11 12  1  0
 12 13  1  6
 12 14  1  0
 14 15  1  1
 15 16  1  0
 16 17  1  1
 16 18  1  0
 18 19  1  0
 19 20  2  0
 20 21  1  0
 21 22  1  0
 22 23  1  0
 23 24  1  0
 24 25  1  0
 25 26  1  0
 26 27  2  0
 27 28  1  0
 28 29  2  0
 29 30  1  0
 30 31  1  0
 30 32  2  0
 28 33  1  0
 33 34  2  0
 33 35  1  0
  8 36  2  0
 32 26  1  0
 35 14  1  0
 36  4  1  0
M  END
$$$$
