
     RDKit          3D

 36 38  0  0  0  0  0  0  0  0999 V2000
  -12.2167  -36.6931  -14.4891 C   0  0  0  0  0  0  0  0  0  0  0  0
  -12.6835  -36.6824  -13.0339 C   0  0  0  0  0  0  0  0  0  0  0  0
  -13.8090  -35.6704  -12.9042 C   0  0  0  0  0  0  0  0  0  0  0  0
  -13.1640  -38.0432  -12.6422 C   0  0  0  0  0  0  0  0  0  0  0  0
  -13.6780  -38.8267  -13.6530 C   0  0  0  0  0  0  0  0  0  0  0  0
  -14.1302  -40.0857  -13.3322 C   0  0  0  0  0  0  0  0  0  0  0  0
  -14.0775  -40.5629  -12.0430 C   0  0  0  0  0  0  0  0  0  0  0  0
  -13.5574  -39.7643  -11.0317 C   0  0  0  0  0  0  0  0  0  0  0  0
  -13.5137  -40.3081   -9.6524 C   0  0  0  0  0  0  0  0  0  0  0  0
  -14.1983  -39.4796   -8.6934 N   0  0  0  0  0  0  0  0  0  0  0  0
  -15.5835  -39.3195   -9.0485 C   0  0  0  0  0  0  0  0  0  0  0  0
  -16.3546  -38.7166   -7.8898 C   0  0  1  0  0  0  0  0  0  0  0  0
  -16.9558  -37.5239   -8.1958 O   0  0  0  0  0  0  0  0  0  0  0  0
  -17.4136  -39.7350   -7.4960 C   0  0  2  0  0  0  0  0  0  0  0  0
  -18.3502  -39.1337   -6.4673 C   0  0  0  0  0  0  0  0  0  0  0  0
  -19.7970  -39.2848   -6.7875 C   0  0  2  0  0  0  0  0  0  0  0  0
  -20.3835  -37.8983   -7.0038 C   0  0  0  0  0  0  0  0  0  0  0  0
  -20.5777  -39.9637   -5.6825 C   0  0  0  0  0  0  0  0  0  0  0  0
  -21.8802  -40.5694   -6.1413 C   0  0  0  0  0  0  0  0  0  0  0  0
  -22.1789  -41.6176   -6.8362 C   0  0  0  0  0  0  0  0  0  0  0  0
  -23.4623  -42.2478   -7.3079 C   0  0  0  0  0  0  0  0  0  0  0  0
  -23.1298  -43.7238   -7.6473 C   0  0  0  0  0  0  0  0  0  0  0  0
  -23.2738  -43.9563   -9.1307 C   0  0  0  0  0  0  0  0  0  0  0  0
  -22.2068  -43.2694   -9.9466 C   0  0  0  0  0  0  0  0  0  0  0  0
  -20.9724  -43.9770   -9.9872 N   0  0  0  0  0  0  0  0  0  0  0  0
  -19.7891  -43.8778   -9.1680 C   0  0  0  0  0  0  0  0  0  0  0  0
  -18.9683  -42.8403   -8.8344 C   0  0  0  0  0  0  0  0  0  0  0  0
  -17.8946  -43.1036   -8.0071 C   0  0  0  0  0  0  0  0  0  0  0  0
  -17.7151  -44.4380   -7.5589 C   0  0  0  0  0  0  0  0  0  0  0  0
  -18.5410  -45.4852   -7.8943 C   0  0  0  0  0  0  0  0  0  0  0  0
  -18.2503  -47.1087   -7.2980 Cl  0  0  0  0  0  0  0  0  0  0  0  0
  -19.5367  -45.1545   -8.6814 N   0  0  0  0  0  0  0  0  0  0  0  0
  -16.8316  -42.2491   -7.4671 C   0  0  0  0  0  0  0  0  0  0  0  0
  -15.6047  -42.7860   -7.3955 O   0  0  0  0  0  0  0  0  0  0  0  0
  -16.7742  -40.9374   -6.9778 N   0  0  0  0  0  0  0  0  0  0  0  0
  -13.1067  -38.5066  -11.3591 C   0  0  0  0  0  0  0  0  0  0  0  0
  1  2  1  0
  2  3  1  0
  2  4  1  0
  4  5  2  0
  5  6  1  0
  6  7  2  0
  7  8  1  0
  8  9  1  0
  9 10  1  0
 10 11  1  0
 11 12  1  0
 12 13  1  6
 12 14  1  0
 14 15  1  1
 15 16  1  0
 16 17  1  1
 16 18  1  0
 18 19  1  0
 19 20  2  0
 20 21  1  0
 21 22  1  0
 22 23  1  0
 23 24  1  0
 24 25  1  0
 25 26  1  0
 26 27  2  0
 27 28  1  0
 28 29  2  0
 29 30  1  0
 30 31  1  0
 30 32  2  0
 28 33  1  0
 33 34  2  0
 33 35  1  0
  8 36  2  0
 32 26  1  0
 35 14  1  0
 36  4  1  0
M  END
$$$$
