
     RDKit          3D

 36 38  0  0  0  0  0  0  0  0999 V2000
  -22.9841  -39.1623   -3.4956 C   0  0  0  0  0  0  0  0  0  0  0  0
  -22.9567  -40.3964   -4.3966 C   0  0  0  0  0  0  0  0  0  0  0  0
  -24.3778  -40.9155   -4.5332 C   0  0  0  0  0  0  0  0  0  0  0  0
  -22.4067  -40.0357   -5.7395 C   0  0  0  0  0  0  0  0  0  0  0  0
  -23.2448  -39.3308   -6.5765 C   0  0  0  0  0  0  0  0  0  0  0  0
  -22.7747  -38.9801   -7.8208 C   0  0  0  0  0  0  0  0  0  0  0  0
  -21.5059  -39.3167   -8.2323 C   0  0  0  0  0  0  0  0  0  0  0  0
  -20.6694  -40.0276   -7.3804 C   0  0  0  0  0  0  0  0  0  0  0  0
  -19.3071  -40.3746   -7.8533 C   0  0  0  0  0  0  0  0  0  0  0  0
  -18.4055  -39.2512   -7.8614 N   0  0  0  0  0  0  0  0  0  0  0  0
  -17.1244  -39.6164   -7.3174 C   0  0  0  0  0  0  0  0  0  0  0  0
  -16.1232  -38.4991   -7.5409 C   0  0  1  0  0  0  0  0  0  0  0  0
  -15.1073  -38.4843   -6.6215 O   0  0  0  0  0  0  0  0  0  0  0  0
  -15.5472  -38.7041   -8.9338 C   0  0  2  0  0  0  0  0  0  0  0  0
  -15.5831  -37.3993   -9.7040 C   0  0  0  0  0  0  0  0  0  0  0  0
  -14.2915  -37.0255  -10.3448 C   0  0  2  0  0  0  0  0  0  0  0  0
  -13.7945  -35.7413   -9.6993 C   0  0  0  0  0  0  0  0  0  0  0  0
  -14.4190  -36.7898  -11.8346 C   0  0  0  0  0  0  0  0  0  0  0  0
  -13.1141  -36.9009  -12.5821 C   0  0  0  0  0  0  0  0  0  0  0  0
  -12.3650  -37.8979  -12.9227 C   0  0  0  0  0  0  0  0  0  0  0  0
  -11.0640  -38.0422  -13.6667 C   0  0  0  0  0  0  0  0  0  0  0  0
  -10.9948  -39.5132  -14.1519 C   0  0  0  0  0  0  0  0  0  0  0  0
   -9.8773  -40.2373  -13.4433 C   0  0  0  0  0  0  0  0  0  0  0  0
  -10.1560  -40.4736  -11.9795 C   0  0  0  0  0  0  0  0  0  0  0  0
  -10.9980  -41.5937  -11.7303 N   0  0  0  0  0  0  0  0  0  0  0  0
  -12.4277  -41.6942  -11.5662 C   0  0  0  0  0  0  0  0  0  0  0  0
  -13.3184  -41.0774  -10.7369 C   0  0  0  0  0  0  0  0  0  0  0  0
  -14.6514  -41.4195  -10.8481 C   0  0  0  0  0  0  0  0  0  0  0  0
  -15.0072  -42.3923  -11.8179 C   0  0  0  0  0  0  0  0  0  0  0  0
  -14.1111  -43.0155  -12.6544 C   0  0  0  0  0  0  0  0  0  0  0  0
  -14.6316  -44.2098  -13.8286 Cl  0  0  0  0  0  0  0  0  0  0  0  0
  -12.8664  -42.6365  -12.4882 N   0  0  0  0  0  0  0  0  0  0  0  0
  -15.8489  -40.9715  -10.1288 C   0  0  0  0  0  0  0  0  0  0  0  0
  -16.7708  -41.9056   -9.8525 O   0  0  0  0  0  0  0  0  0  0  0  0
  -16.2970  -39.7408   -9.6309 N   0  0  0  0  0  0  0  0  0  0  0  0
  -21.1454  -40.3750   -6.1374 C   0  0  0  0  0  0  0  0  0  0  0  0
  1  2  1  0
  2  3  1  0
  2  4  1  0
  4  5  2  0
  5  6  1  0
  6  7  2  0
  7  8  1  0
  8  9  1  0
  9 10  1  0
 10 11  1  0
 11 12  1  0
 12 13  1  1
 12 14  1  0
 14 15  1  6
 15 16  1  0
 16 17  1  1
 16 18  1  0
 18 19  1  0
 19 20  2  0
 20 21  1  0
 21 22  1  0
 22 23  1  0
 23 24  1  0
 24 25  1  0
 25 26  1  0
 26 27  2  0
 27 28  1  0
 28 29  2  0
 29 30  1  0
 30 31  1  0
 30 32  2  0
 28 33  1  0
 33 34  2  0
 33 35  1  0
  8 36  2  0
 32 26  1  0
 35 14  1  0
 36  4  1  0
M  END
$$$$
