
     RDKit          3D

 36 38  0  0  0  0  0  0  0  0999 V2000
  -23.6144  -38.4281   -3.6660 C   0  0  0  0  0  0  0  0  0  0  0  0
  -22.2297  -39.0650   -3.5545 C   0  0  0  0  0  0  0  0  0  0  0  0
  -22.1104  -39.7034   -2.1812 C   0  0  0  0  0  0  0  0  0  0  0  0
  -22.0557  -40.0980   -4.6216 C   0  0  0  0  0  0  0  0  0  0  0  0
  -22.8046  -41.2477   -4.4905 C   0  0  0  0  0  0  0  0  0  0  0  0
  -22.6724  -42.2218   -5.4528 C   0  0  0  0  0  0  0  0  0  0  0  0
  -21.8205  -42.0669   -6.5218 C   0  0  0  0  0  0  0  0  0  0  0  0
  -21.0700  -40.9037   -6.6440 C   0  0  0  0  0  0  0  0  0  0  0  0
  -20.1613  -40.7669   -7.8083 C   0  0  0  0  0  0  0  0  0  0  0  0
  -19.1438  -39.7650   -7.6198 N   0  0  0  0  0  0  0  0  0  0  0  0
  -18.0165  -40.3050   -6.9071 C   0  0  0  0  0  0  0  0  0  0  0  0
  -16.9173  -39.2652   -6.8012 C   0  0  1  0  0  0  0  0  0  0  0  0
  -16.0724  -39.4697   -5.7421 O   0  0  0  0  0  0  0  0  0  0  0  0
  -16.1302  -39.3310   -8.1012 C   0  0  2  0  0  0  0  0  0  0  0  0
  -15.1543  -38.1736   -8.1727 C   0  0  0  0  0  0  0  0  0  0  0  0
  -13.7565  -38.5650   -8.5064 C   0  0  2  0  0  0  0  0  0  0  0  0
  -12.8723  -38.2342   -7.3140 C   0  0  0  0  0  0  0  0  0  0  0  0
  -13.2133  -37.8365   -9.7171 C   0  0  0  0  0  0  0  0  0  0  0  0
  -12.0451  -38.5302  -10.3712 C   0  0  0  0  0  0  0  0  0  0  0  0
  -11.9350  -39.5888  -11.1049 C   0  0  0  0  0  0  0  0  0  0  0  0
  -10.7898  -40.3035  -11.7716 C   0  0  0  0  0  0  0  0  0  0  0  0
  -11.4099  -41.1869  -12.8849 C   0  0  0  0  0  0  0  0  0  0  0  0
  -11.2240  -42.6455  -12.5484 C   0  0  0  0  0  0  0  0  0  0  0  0
  -12.0631  -43.0977  -11.3791 C   0  0  0  0  0  0  0  0  0  0  0  0
  -13.4156  -43.3809  -11.7201 N   0  0  0  0  0  0  0  0  0  0  0  0
  -14.6001  -42.5581  -11.6854 C   0  0  0  0  0  0  0  0  0  0  0  0
  -15.1979  -41.8223  -10.7043 C   0  0  0  0  0  0  0  0  0  0  0  0
  -16.3542  -41.1374  -11.0214 C   0  0  0  0  0  0  0  0  0  0  0  0
  -16.8455  -41.2452  -12.3482 C   0  0  0  0  0  0  0  0  0  0  0  0
  -16.2447  -41.9866  -13.3385 C   0  0  0  0  0  0  0  0  0  0  0  0
  -16.9162  -42.0691  -14.9566 Cl  0  0  0  0  0  0  0  0  0  0  0  0
  -15.1525  -42.6061  -12.9594 N   0  0  0  0  0  0  0  0  0  0  0  0
  -17.2407  -40.2775  -10.2299 C   0  0  0  0  0  0  0  0  0  0  0  0
  -18.5565  -40.3907  -10.4636 O   0  0  0  0  0  0  0  0  0  0  0  0
  -17.0456  -39.3107   -9.2346 N   0  0  0  0  0  0  0  0  0  0  0  0
  -21.2071  -39.9335   -5.6785 C   0  0  0  0  0  0  0  0  0  0  0  0
  1  2  1  0
  2  3  1  0
  2  4  1  0
  4  5  2  0
  5  6  1  0
  6  7  2  0
  7  8  1  0
  8  9  1  0
  9 10  1  0
 10 11  1  0
 11 12  1  0
 12 13  1  1
 12 14  1  0
 14 15  1  6
 15 16  1  0
 16 17  1  1
 16 18  1  0
 18 19  1  0
 19 20  2  0
 20 21  1  0
 21 22  1  0
 22 23  1  0
 23 24  1  0
 24 25  1  0
 25 26  1  0
 26 27  2  0
 27 28  1  0
 28 29  2  0
 29 30  1  0
 30 31  1  0
 30 32  2  0
 28 33  1  0
 33 34  2  0
 33 35  1  0
  8 36  2  0
 32 26  1  0
 35 14  1  0
 36  4  1  0
M  END
$$$$
