
     RDKit          3D

 36 38  0  0  0  0  0  0  0  0999 V2000
  -23.4106  -40.2649   -4.1631 C   0  0  0  0  0  0  0  0  0  0  0  0
  -22.4322  -40.9666   -5.1044 C   0  0  0  0  0  0  0  0  0  0  0  0
  -23.0715  -42.2625   -5.5729 C   0  0  0  0  0  0  0  0  0  0  0  0
  -22.1300  -40.0865   -6.2749 C   0  0  0  0  0  0  0  0  0  0  0  0
  -23.0487  -40.0953   -7.3024 C   0  0  0  0  0  0  0  0  0  0  0  0
  -22.8060  -39.2982   -8.3970 C   0  0  0  0  0  0  0  0  0  0  0  0
  -21.6822  -38.5090   -8.4780 C   0  0  0  0  0  0  0  0  0  0  0  0
  -20.7625  -38.5079   -7.4363 C   0  0  0  0  0  0  0  0  0  0  0  0
  -19.5615  -37.6455   -7.5536 C   0  0  0  0  0  0  0  0  0  0  0  0
  -18.5959  -37.8715   -6.5089 N   0  0  0  0  0  0  0  0  0  0  0  0
  -17.7064  -38.9482   -6.8552 C   0  0  0  0  0  0  0  0  0  0  0  0
  -16.4352  -38.3986   -7.4737 C   0  0  1  0  0  0  0  0  0  0  0  0
  -15.4063  -38.2645   -6.5788 O   0  0  0  0  0  0  0  0  0  0  0  0
  -16.0316  -39.3699   -8.5726 C   0  0  2  0  0  0  0  0  0  0  0  0
  -15.3863  -38.6146   -9.7173 C   0  0  0  0  0  0  0  0  0  0  0  0
  -14.0793  -39.1714  -10.1646 C   0  0  2  0  0  0  0  0  0  0  0  0
  -13.0010  -38.1354   -9.8870 C   0  0  0  0  0  0  0  0  0  0  0  0
  -14.0530  -39.5001  -11.6420 C   0  0  0  0  0  0  0  0  0  0  0  0
  -12.9819  -40.4894  -12.0263 C   0  0  0  0  0  0  0  0  0  0  0  0
  -12.8459  -41.7641  -11.8600 C   0  0  0  0  0  0  0  0  0  0  0  0
  -11.7952  -42.7766  -12.2310 C   0  0  0  0  0  0  0  0  0  0  0  0
  -12.4845  -44.1647  -12.1831 C   0  0  0  0  0  0  0  0  0  0  0  0
  -11.9029  -44.9902  -11.0626 C   0  0  0  0  0  0  0  0  0  0  0  0
  -12.2779  -44.4815   -9.6927 C   0  0  0  0  0  0  0  0  0  0  0  0
  -13.5774  -44.8795   -9.2697 N   0  0  0  0  0  0  0  0  0  0  0  0
  -14.8582  -44.2251   -9.3799 C   0  0  0  0  0  0  0  0  0  0  0  0
  -15.3154  -42.9969   -9.0003 C   0  0  0  0  0  0  0  0  0  0  0  0
  -16.6343  -42.6861   -9.2654 C   0  0  0  0  0  0  0  0  0  0  0  0
  -17.4285  -43.6664   -9.9148 C   0  0  0  0  0  0  0  0  0  0  0  0
  -16.9698  -44.9050  -10.2979 C   0  0  0  0  0  0  0  0  0  0  0  0
  -18.0169  -46.0628  -11.0973 Cl  0  0  0  0  0  0  0  0  0  0  0  0
  -15.7085  -45.1238  -10.0123 N   0  0  0  0  0  0  0  0  0  0  0  0
  -17.4403  -41.4905   -8.9952 C   0  0  0  0  0  0  0  0  0  0  0  0
  -18.7133  -41.6929   -8.6246 O   0  0  0  0  0  0  0  0  0  0  0  0
  -17.1997  -40.1107   -9.0308 N   0  0  0  0  0  0  0  0  0  0  0  0
  -21.0112  -39.3070   -6.3445 C   0  0  0  0  0  0  0  0  0  0  0  0
  1  2  1  0
  2  3  1  0
  2  4  1  0
  4  5  2  0
  5  6  1  0
  6  7  2  0
  7  8  1  0
  8  9  1  0
  9 10  1  0
 10 11  1  0
 11 12  1  0
 12 13  1  1
 12 14  1  0
 14 15  1  6
 15 16  1  0
 16 17  1  6
 16 18  1  0
 18 19  1  0
 19 20  2  0
 20 21  1  0
 21 22  1  0
 22 23  1  0
 23 24  1  0
 24 25  1  0
 25 26  1  0
 26 27  2  0
 27 28  1  0
 28 29  2  0
 29 30  1  0
 30 31  1  0
 30 32  2  0
 28 33  1  0
 33 34  2  0
 33 35  1  0
  8 36  2  0
 32 26  1  0
 35 14  1  0
 36  4  1  0
M  END
$$$$
