
     RDKit          3D

 36 38  0  0  0  0  0  0  0  0999 V2000
  -24.7207  -40.2182   -6.9043 C   0  0  0  0  0  0  0  0  0  0  0  0
  -23.5863  -39.1958   -6.9632 C   0  0  0  0  0  0  0  0  0  0  0  0
  -23.9480  -38.0331   -6.0548 C   0  0  0  0  0  0  0  0  0  0  0  0
  -22.3074  -39.8259   -6.5120 C   0  0  0  0  0  0  0  0  0  0  0  0
  -22.3605  -40.5504   -5.3405 C   0  0  0  0  0  0  0  0  0  0  0  0
  -21.2040  -41.1457   -4.8926 C   0  0  0  0  0  0  0  0  0  0  0  0
  -20.0202  -41.0300   -5.5838 C   0  0  0  0  0  0  0  0  0  0  0  0
  -19.9782  -40.2971   -6.7637 C   0  0  0  0  0  0  0  0  0  0  0  0
  -18.6869  -40.1919   -7.4858 C   0  0  0  0  0  0  0  0  0  0  0  0
  -17.9286  -39.0213   -7.1257 N   0  0  0  0  0  0  0  0  0  0  0  0
  -16.7165  -39.3847   -6.4408 C   0  0  0  0  0  0  0  0  0  0  0  0
  -15.5169  -38.7748   -7.1406 C   0  0  1  0  0  0  0  0  0  0  0  0
  -14.3524  -38.8890   -6.4275 O   0  0  0  0  0  0  0  0  0  0  0  0
  -15.3739  -39.5007   -8.4697 C   0  0  2  0  0  0  0  0  0  0  0  0
  -15.3632  -38.4983   -9.6064 C   0  0  0  0  0  0  0  0  0  0  0  0
  -14.2373  -38.6668  -10.5669 C   0  0  2  0  0  0  0  0  0  0  0  0
  -13.3562  -37.4297  -10.4886 C   0  0  0  0  0  0  0  0  0  0  0  0
  -14.7026  -38.8287  -11.9982 C   0  0  0  0  0  0  0  0  0  0  0  0
  -13.6833  -39.4787  -12.8996 C   0  0  0  0  0  0  0  0  0  0  0  0
  -13.2510  -40.6903  -13.0267 C   0  0  0  0  0  0  0  0  0  0  0  0
  -12.2408  -41.3691  -13.9130 C   0  0  0  0  0  0  0  0  0  0  0  0
  -12.5791  -42.8821  -13.8886 C   0  0  0  0  0  0  0  0  0  0  0  0
  -11.4726  -43.6463  -13.2054 C   0  0  0  0  0  0  0  0  0  0  0  0
  -11.3987  -43.3864  -11.7212 C   0  0  0  0  0  0  0  0  0  0  0  0
  -12.3418  -44.1338  -10.9611 N   0  0  0  0  0  0  0  0  0  0  0  0
  -13.6715  -43.8086  -10.5056 C   0  0  0  0  0  0  0  0  0  0  0  0
  -14.1819  -42.7762   -9.7742 C   0  0  0  0  0  0  0  0  0  0  0  0
  -15.5375  -42.7761   -9.5116 C   0  0  0  0  0  0  0  0  0  0  0  0
  -16.3109  -43.8520  -10.0194 C   0  0  0  0  0  0  0  0  0  0  0  0
  -15.7983  -44.8937  -10.7565 C   0  0  0  0  0  0  0  0  0  0  0  0
  -16.8228  -46.1881  -11.3488 Cl  0  0  0  0  0  0  0  0  0  0  0  0
  -14.5051  -44.8215  -10.9635 N   0  0  0  0  0  0  0  0  0  0  0  0
  -16.3989  -41.8503   -8.7681 C   0  0  0  0  0  0  0  0  0  0  0  0
  -17.3755  -42.3973   -8.0294 O   0  0  0  0  0  0  0  0  0  0  0  0
  -16.4612  -40.4574   -8.6297 N   0  0  0  0  0  0  0  0  0  0  0  0
  -21.1381  -39.7045   -7.2062 C   0  0  0  0  0  0  0  0  0  0  0  0
  1  2  1  0
  2  3  1  0
  2  4  1  0
  4  5  2  0
  5  6  1  0
  6  7  2  0
  7  8  1  0
  8  9  1  0
  9 10  1  0
 10 11  1  0
 11 12  1  0
 12 13  1  1
 12 14  1  0
 14 15  1  6
 15 16  1  0
 16 17  1  6
 16 18  1  0
 18 19  1  0
 19 20  2  0
 20 21  1  0
 21 22  1  0
 22 23  1  0
 23 24  1  0
 24 25  1  0
 25 26  1  0
 26 27  2  0
 27 28  1  0
 28 29  2  0
 29 30  1  0
 30 31  1  0
 30 32  2  0
 28 33  1  0
 33 34  2  0
 33 35  1  0
  8 36  2  0
 32 26  1  0
 35 14  1  0
 36  4  1  0
M  END
$$$$
