
     RDKit          3D

 41 42  0  0  0  0  0  0  0  0999 V2000
  -15.0345  -34.0988  -13.0139 C   0  0  0  0  0  0  0  0  0  0  0  0
  -14.6453  -35.1215  -11.9643 C   0  0  0  0  0  0  0  0  0  0  0  0
  -13.5070  -35.9562  -12.5400 C   0  0  0  0  0  0  0  0  0  0  0  0
  -13.9229  -37.3982  -12.6992 C   0  0  0  0  0  0  0  0  0  0  0  0
  -14.2036  -37.9551  -11.4071 N   0  0  0  0  0  0  0  0  0  0  0  0
  -14.9334  -39.1679  -11.2973 C   0  0  0  0  0  0  0  0  0  0  0  0
  -15.8180  -39.4262  -12.1247 O   0  0  0  0  0  0  0  0  0  0  0  0
  -14.5902  -40.1204  -10.1476 C   0  0  2  0  0  0  0  0  0  0  0  0
  -13.6070  -41.0896  -10.8027 C   0  0  0  0  0  0  0  0  0  0  0  0
  -15.8515  -40.8023   -9.7049 C   0  0  0  0  0  0  0  0  0  0  0  0
  -16.9597  -40.0099   -9.2010 C   0  0  2  0  0  0  0  0  0  0  0  0
  -16.6764  -38.6521   -9.4222 O   0  0  0  0  0  0  0  0  0  0  0  0
  -17.6776  -40.2603   -7.9520 C   0  0  2  0  0  0  0  0  0  0  0  0
  -18.1475  -39.0370   -7.2102 C   0  0  0  0  0  0  0  0  0  0  0  0
  -19.6758  -38.9740   -7.1090 C   0  0  2  0  0  0  0  0  0  0  0  0
  -20.1881  -37.6537   -7.7005 C   0  0  0  0  0  0  0  0  0  0  0  0
  -20.1909  -39.1213   -5.7226 C   0  0  0  0  0  0  0  0  0  0  0  0
  -20.8725  -40.4298   -5.4553 C   0  0  0  0  0  0  0  0  0  0  0  0
  -22.3220  -40.4595   -5.9600 C   0  0  0  0  0  0  0  0  0  0  0  0
  -22.3261  -41.2761   -7.2282 C   0  0  0  0  0  0  0  0  0  0  0  0
  -23.3981  -42.2952   -7.3157 C   0  0  0  0  0  0  0  0  0  0  0  0
  -22.9260  -43.7143   -7.3268 C   0  0  0  0  0  0  0  0  0  0  0  0
  -22.1127  -44.1154   -6.1590 C   0  0  0  0  0  0  0  0  0  0  0  0
  -20.8923  -44.9373   -6.4516 C   0  0  2  0  0  0  0  0  0  0  0  0
  -21.1350  -46.3617   -6.2970 N   0  0  0  0  0  0  0  0  0  0  0  0
  -22.4143  -46.9401   -6.2513 C   0  0  0  0  0  0  0  0  0  0  0  0
  -23.2346  -46.6492   -7.1845 O   0  0  0  0  0  0  0  0  0  0  0  0
  -22.7745  -47.8335   -5.1766 C   0  0  0  0  0  0  0  0  0  0  0  0
  -23.5549  -48.9427   -5.4026 C   0  0  0  0  0  0  0  0  0  0  0  0
  -23.9140  -49.8018   -4.3555 C   0  0  0  0  0  0  0  0  0  0  0  0
  -23.4839  -49.5289   -3.1115 N   0  0  0  0  0  0  0  0  0  0  0  0
  -22.7205  -48.4551   -2.8483 C   0  0  0  0  0  0  0  0  0  0  0  0
  -22.3608  -47.5988   -3.8860 C   0  0  0  0  0  0  0  0  0  0  0  0
  -19.7506  -44.4936   -5.6186 C   0  0  0  0  0  0  0  0  0  0  0  0
  -19.6880  -44.9712   -4.4332 O   0  0  0  0  0  0  0  0  0  0  0  0
  -18.7436  -43.5991   -6.0180 N   0  0  0  0  0  0  0  0  0  0  0  0
  -17.9242  -43.6042   -7.1868 C   0  0  1  0  0  0  0  0  0  0  0  0
  -18.6237  -43.5270   -8.5030 C   0  0  0  0  0  0  0  0  0  0  0  0
  -16.8556  -42.5568   -7.1320 C   0  0  0  0  0  0  0  0  0  0  0  0
  -15.6665  -42.9762   -7.1805 O   0  0  0  0  0  0  0  0  0  0  0  0
  -17.0387  -41.1609   -7.0306 N   0  0  0  0  0  0  0  0  0  0  0  0
  1  2  1  0
  2  3  1  0
  3  4  1  0
  4  5  1  0
  5  6  1  0
  6  7  2  0
  6  8  1  0
  8  9  1  6
  8 10  1  0
 10 11  1  0
 11 12  1  1
 11 13  1  0
 13 14  1  1
 14 15  1  0
 15 16  1  1
 15 17  1  0
 17 18  1  0
 18 19  1  0
 19 20  1  0
 20 21  1  0
 21 22  1  0
 22 23  1  0
 23 24  1  0
 24 25  1  1
 25 26  1  0
 26 27  2  0
 26 28  1  0
 28 29  2  0
 29 30  1  0
 30 31  2  0
 31 32  1  0
 32 33  2  0
 24 34  1  0
 34 35  2  0
 34 36  1  0
 36 37  1  0
 37 38  1  6
 37 39  1  0
 39 40  2  0
 39 41  1  0
 33 28  1  0
 41 13  1  0
M  END
$$$$
