
     RDKit          3D

 41 42  0  0  0  0  0  0  0  0999 V2000
  -10.8779  -37.4174  -10.6705 C   0  0  0  0  0  0  0  0  0  0  0  0
  -11.1412  -37.7740  -12.1205 C   0  0  0  0  0  0  0  0  0  0  0  0
  -11.6494  -39.2108  -12.1525 C   0  0  0  0  0  0  0  0  0  0  0  0
  -13.0616  -39.2716  -12.6814 C   0  0  0  0  0  0  0  0  0  0  0  0
  -13.8901  -39.9673  -11.7391 N   0  0  0  0  0  0  0  0  0  0  0  0
  -15.2653  -39.6355  -11.6187 C   0  0  0  0  0  0  0  0  0  0  0  0
  -15.7045  -38.6306  -12.1940 O   0  0  0  0  0  0  0  0  0  0  0  0
  -16.1611  -40.5473  -10.7742 C   0  0  2  0  0  0  0  0  0  0  0  0
  -17.5533  -40.2513  -11.3301 C   0  0  0  0  0  0  0  0  0  0  0  0
  -16.0254  -40.1436   -9.3353 C   0  0  0  0  0  0  0  0  0  0  0  0
  -16.9747  -39.2084   -8.7572 C   0  0  2  0  0  0  0  0  0  0  0  0
  -16.4230  -37.9180   -8.8136 O   0  0  0  0  0  0  0  0  0  0  0  0
  -17.7731  -39.4497   -7.5562 C   0  0  2  0  0  0  0  0  0  0  0  0
  -18.3946  -38.2308   -6.9271 C   0  0  0  0  0  0  0  0  0  0  0  0
  -19.9263  -38.2857   -6.9507 C   0  0  2  0  0  0  0  0  0  0  0  0
  -20.4862  -37.0437   -7.6576 C   0  0  0  0  0  0  0  0  0  0  0  0
  -20.5425  -38.4008   -5.6031 C   0  0  0  0  0  0  0  0  0  0  0  0
  -21.1428  -39.7441   -5.3139 C   0  0  0  0  0  0  0  0  0  0  0  0
  -22.5388  -39.9166   -5.9288 C   0  0  0  0  0  0  0  0  0  0  0  0
  -22.3753  -40.7964   -7.1431 C   0  0  0  0  0  0  0  0  0  0  0  0
  -23.3559  -41.9014   -7.2548 C   0  0  0  0  0  0  0  0  0  0  0  0
  -22.7783  -43.2767   -7.1450 C   0  0  0  0  0  0  0  0  0  0  0  0
  -22.0371  -43.5492   -5.8951 C   0  0  0  0  0  0  0  0  0  0  0  0
  -20.7377  -44.2847   -6.0415 C   0  0  2  0  0  0  0  0  0  0  0  0
  -20.8838  -45.7139   -5.8230 N   0  0  0  0  0  0  0  0  0  0  0  0
  -21.7666  -46.5328   -6.5463 C   0  0  0  0  0  0  0  0  0  0  0  0
  -22.5706  -45.9698   -7.3617 O   0  0  0  0  0  0  0  0  0  0  0  0
  -21.7523  -47.9643   -6.3624 C   0  0  0  0  0  0  0  0  0  0  0  0
  -21.0213  -48.5465   -5.3540 C   0  0  0  0  0  0  0  0  0  0  0  0
  -20.9987  -49.9373   -5.1853 C   0  0  0  0  0  0  0  0  0  0  0  0
  -21.7068  -50.7081   -6.0287 N   0  0  0  0  0  0  0  0  0  0  0  0
  -22.4334  -50.1789   -7.0273 C   0  0  0  0  0  0  0  0  0  0  0  0
  -22.4591  -48.7970   -7.1985 C   0  0  0  0  0  0  0  0  0  0  0  0
  -19.7064  -43.7074   -5.1486 C   0  0  0  0  0  0  0  0  0  0  0  0
  -19.7068  -44.1156   -3.9358 O   0  0  0  0  0  0  0  0  0  0  0  0
  -18.7404  -42.7572   -5.5191 N   0  0  0  0  0  0  0  0  0  0  0  0
  -17.8284  -42.7578   -6.6173 C   0  0  1  0  0  0  0  0  0  0  0  0
  -18.4196  -42.8062   -7.9869 C   0  0  0  0  0  0  0  0  0  0  0  0
  -16.8506  -41.6265   -6.5401 C   0  0  0  0  0  0  0  0  0  0  0  0
  -15.6332  -41.9509   -6.4697 O   0  0  0  0  0  0  0  0  0  0  0  0
  -17.1468  -40.2464   -6.5358 N   0  0  0  0  0  0  0  0  0  0  0  0
  1  2  1  0
  2  3  1  0
  3  4  1  0
  4  5  1  0
  5  6  1  0
  6  7  2  0
  6  8  1  0
  8  9  1  6
  8 10  1  0
 10 11  1  0
 11 12  1  1
 11 13  1  0
 13 14  1  1
 14 15  1  0
 15 16  1  1
 15 17  1  0
 17 18  1  0
 18 19  1  0
 19 20  1  0
 20 21  1  0
 21 22  1  0
 22 23  1  0
 23 24  1  0
 24 25  1  1
 25 26  1  0
 26 27  2  0
 26 28  1  0
 28 29  2  0
 29 30  1  0
 30 31  2  0
 31 32  1  0
 32 33  2  0
 24 34  1  0
 34 35  2  0
 34 36  1  0
 36 37  1  0
 37 38  1  6
 37 39  1  0
 39 40  2  0
 39 41  1  0
 33 28  1  0
 41 13  1  0
M  END
$$$$
