
     RDKit          3D

 41 42  0  0  0  0  0  0  0  0999 V2000
  -12.1784  -35.3017  -13.5243 C   0  0  0  0  0  0  0  0  0  0  0  0
  -13.3837  -36.0372  -12.9718 C   0  0  0  0  0  0  0  0  0  0  0  0
  -12.9475  -36.7257  -11.6836 C   0  0  0  0  0  0  0  0  0  0  0  0
  -13.3309  -38.1854  -11.6959 C   0  0  0  0  0  0  0  0  0  0  0  0
  -13.2404  -38.7095  -10.3635 N   0  0  0  0  0  0  0  0  0  0  0  0
  -14.4085  -38.8344   -9.5662 C   0  0  0  0  0  0  0  0  0  0  0  0
  -15.1652  -37.8630   -9.4339 O   0  0  0  0  0  0  0  0  0  0  0  0
  -14.6901  -40.1834   -8.8969 C   0  0  2  0  0  0  0  0  0  0  0  0
  -13.5680  -41.0650   -9.4435 C   0  0  0  0  0  0  0  0  0  0  0  0
  -16.0468  -40.6541   -9.3323 C   0  0  0  0  0  0  0  0  0  0  0  0
  -17.2252  -39.8832   -8.9760 C   0  0  2  0  0  0  0  0  0  0  0  0
  -16.9858  -38.5330   -9.2802 O   0  0  0  0  0  0  0  0  0  0  0  0
  -18.0270  -40.0760   -7.7685 C   0  0  2  0  0  0  0  0  0  0  0  0
  -18.5030  -38.8183   -7.0907 C   0  0  0  0  0  0  0  0  0  0  0  0
  -20.0318  -38.7065   -7.0879 C   0  0  2  0  0  0  0  0  0  0  0  0
  -20.4639  -37.3888   -7.7455 C   0  0  0  0  0  0  0  0  0  0  0  0
  -20.6367  -38.7985   -5.7333 C   0  0  0  0  0  0  0  0  0  0  0  0
  -21.3750  -40.0777   -5.4749 C   0  0  0  0  0  0  0  0  0  0  0  0
  -22.7904  -40.0781   -6.0691 C   0  0  0  0  0  0  0  0  0  0  0  0
  -22.7416  -40.9301   -7.3128 C   0  0  0  0  0  0  0  0  0  0  0  0
  -23.8380  -41.9184   -7.4406 C   0  0  0  0  0  0  0  0  0  0  0  0
  -23.4116  -43.3509   -7.3841 C   0  0  0  0  0  0  0  0  0  0  0  0
  -22.6858  -43.7428   -6.1570 C   0  0  0  0  0  0  0  0  0  0  0  0
  -21.4764  -44.6092   -6.3500 C   0  0  2  0  0  0  0  0  0  0  0  0
  -21.7735  -46.0206   -6.1732 N   0  0  0  0  0  0  0  0  0  0  0  0
  -21.4344  -47.0172   -7.1034 C   0  0  0  0  0  0  0  0  0  0  0  0
  -21.0489  -46.6461   -8.2619 O   0  0  0  0  0  0  0  0  0  0  0  0
  -21.5238  -48.4124   -6.7450 C   0  0  0  0  0  0  0  0  0  0  0  0
  -21.8631  -48.8010   -5.4706 C   0  0  0  0  0  0  0  0  0  0  0  0
  -21.9369  -50.1560   -5.1215 C   0  0  0  0  0  0  0  0  0  0  0  0
  -21.6693  -51.0854   -6.0551 N   0  0  0  0  0  0  0  0  0  0  0  0
  -21.3332  -50.7476   -7.3114 C   0  0  0  0  0  0  0  0  0  0  0  0
  -21.2591  -49.4020   -7.6629 C   0  0  0  0  0  0  0  0  0  0  0  0
  -20.3752  -44.1764   -5.4588 C   0  0  0  0  0  0  0  0  0  0  0  0
  -20.4018  -44.6216   -4.2594 O   0  0  0  0  0  0  0  0  0  0  0  0
  -19.3173  -43.3245   -5.8174 N   0  0  0  0  0  0  0  0  0  0  0  0
  -18.4273  -43.3877   -6.9317 C   0  0  1  0  0  0  0  0  0  0  0  0
  -19.0406  -43.3271   -8.2910 C   0  0  0  0  0  0  0  0  0  0  0  0
  -17.3313  -42.3719   -6.8374 C   0  0  0  0  0  0  0  0  0  0  0  0
  -16.1555  -42.8281   -6.7996 O   0  0  0  0  0  0  0  0  0  0  0  0
  -17.4758  -40.9687   -6.7849 N   0  0  0  0  0  0  0  0  0  0  0  0
  1  2  1  0
  2  3  1  0
  3  4  1  0
  4  5  1  0
  5  6  1  0
  6  7  2  0
  6  8  1  0
  8  9  1  6
  8 10  1  0
 10 11  1  0
 11 12  1  1
 11 13  1  0
 13 14  1  1
 14 15  1  0
 15 16  1  1
 15 17  1  0
 17 18  1  0
 18 19  1  0
 19 20  1  0
 20 21  1  0
 21 22  1  0
 22 23  1  0
 23 24  1  0
 24 25  1  1
 25 26  1  0
 26 27  2  0
 26 28  1  0
 28 29  2  0
 29 30  1  0
 30 31  2  0
 31 32  1  0
 32 33  2  0
 24 34  1  0
 34 35  2  0
 34 36  1  0
 36 37  1  0
 37 38  1  6
 37 39  1  0
 39 40  2  0
 39 41  1  0
 33 28  1  0
 41 13  1  0
M  END
$$$$
