
     RDKit          3D

 41 42  0  0  0  0  0  0  0  0999 V2000
  -12.9816  -43.9890   -9.1865 C   0  0  0  0  0  0  0  0  0  0  0  0
  -12.7842  -42.6463   -8.5104 C   0  0  0  0  0  0  0  0  0  0  0  0
  -11.7615  -41.8681   -9.3303 C   0  0  0  0  0  0  0  0  0  0  0  0
  -12.3721  -40.6121   -9.9023 C   0  0  0  0  0  0  0  0  0  0  0  0
  -13.2306  -40.0139   -8.9207 N   0  0  0  0  0  0  0  0  0  0  0  0
  -14.5646  -39.6650   -9.2589 C   0  0  0  0  0  0  0  0  0  0  0  0
  -15.4978  -40.3946   -8.8974 O   0  0  0  0  0  0  0  0  0  0  0  0
  -14.7980  -38.3829  -10.0642 C   0  0  2  0  0  0  0  0  0  0  0  0
  -13.9567  -37.3574   -9.3056 C   0  0  0  0  0  0  0  0  0  0  0  0
  -16.2626  -38.0585  -10.0242 C   0  0  0  0  0  0  0  0  0  0  0  0
  -17.2261  -39.1107   -9.7512 C   0  0  2  0  0  0  0  0  0  0  0  0
  -18.0327  -39.2852  -10.8877 O   0  0  0  0  0  0  0  0  0  0  0  0
  -17.9463  -39.2900   -8.4914 C   0  0  2  0  0  0  0  0  0  0  0  0
  -18.4699  -38.0314   -7.8515 C   0  0  0  0  0  0  0  0  0  0  0  0
  -20.0004  -38.0201   -7.7663 C   0  0  2  0  0  0  0  0  0  0  0  0
  -20.5567  -36.7710   -8.4635 C   0  0  0  0  0  0  0  0  0  0  0  0
  -20.5234  -38.0780   -6.3762 C   0  0  0  0  0  0  0  0  0  0  0  0
  -21.1573  -39.3870   -6.0115 C   0  0  0  0  0  0  0  0  0  0  0  0
  -22.5995  -39.5124   -6.5224 C   0  0  0  0  0  0  0  0  0  0  0  0
  -22.5598  -40.4254   -7.7223 C   0  0  0  0  0  0  0  0  0  0  0  0
  -23.5912  -41.4890   -7.7369 C   0  0  0  0  0  0  0  0  0  0  0  0
  -23.0653  -42.8852   -7.6329 C   0  0  0  0  0  0  0  0  0  0  0  0
  -22.2491  -43.1617   -6.4315 C   0  0  0  0  0  0  0  0  0  0  0  0
  -20.9953  -43.9561   -6.6499 C   0  0  2  0  0  0  0  0  0  0  0  0
  -21.1851  -45.3723   -6.3854 N   0  0  0  0  0  0  0  0  0  0  0  0
  -20.9362  -46.3870   -7.3245 C   0  0  0  0  0  0  0  0  0  0  0  0
  -21.1294  -46.1198   -8.5572 O   0  0  0  0  0  0  0  0  0  0  0  0
  -20.4764  -47.6853   -6.8932 C   0  0  0  0  0  0  0  0  0  0  0  0
  -20.1994  -47.9407   -5.5709 C   0  0  0  0  0  0  0  0  0  0  0  0
  -19.7409  -49.1981   -5.1562 C   0  0  0  0  0  0  0  0  0  0  0  0
  -19.5715  -50.1656   -6.0739 N   0  0  0  0  0  0  0  0  0  0  0  0
  -19.8299  -49.9567   -7.3758 C   0  0  0  0  0  0  0  0  0  0  0  0
  -20.2862  -48.7086   -7.7924 C   0  0  0  0  0  0  0  0  0  0  0  0
  -19.8798  -43.4045   -5.8465 C   0  0  0  0  0  0  0  0  0  0  0  0
  -19.8110  -43.7849   -4.6267 O   0  0  0  0  0  0  0  0  0  0  0  0
  -18.9037  -42.5057   -6.3080 N   0  0  0  0  0  0  0  0  0  0  0  0
  -18.0730  -42.5707   -7.4671 C   0  0  1  0  0  0  0  0  0  0  0  0
  -18.7617  -42.6240   -8.7901 C   0  0  0  0  0  0  0  0  0  0  0  0
  -17.0457  -41.4816   -7.4874 C   0  0  0  0  0  0  0  0  0  0  0  0
  -15.8411  -41.8570   -7.4944 O   0  0  0  0  0  0  0  0  0  0  0  0
  -17.2829  -40.0901   -7.4975 N   0  0  0  0  0  0  0  0  0  0  0  0
  1  2  1  0
  2  3  1  0
  3  4  1  0
  4  5  1  0
  5  6  1  0
  6  7  2  0
  6  8  1  0
  8  9  1  1
  8 10  1  0
 10 11  1  0
 11 12  1  6
 11 13  1  0
 13 14  1  1
 14 15  1  0
 15 16  1  1
 15 17  1  0
 17 18  1  0
 18 19  1  0
 19 20  1  0
 20 21  1  0
 21 22  1  0
 22 23  1  0
 23 24  1  0
 24 25  1  1
 25 26  1  0
 26 27  2  0
 26 28  1  0
 28 29  2  0
 29 30  1  0
 30 31  2  0
 31 32  1  0
 32 33  2  0
 24 34  1  0
 34 35  2  0
 34 36  1  0
 36 37  1  0
 37 38  1  6
 37 39  1  0
 39 40  2  0
 39 41  1  0
 33 28  1  0
 41 13  1  0
M  END
$$$$
