
     RDKit          3D

 41 42  0  0  0  0  0  0  0  0999 V2000
  -11.6298  -34.4883  -12.0810 C   0  0  0  0  0  0  0  0  0  0  0  0
  -11.7528  -35.9879  -11.8938 C   0  0  0  0  0  0  0  0  0  0  0  0
  -13.1080  -36.4081  -12.4512 C   0  0  0  0  0  0  0  0  0  0  0  0
  -13.3119  -37.8967  -12.3082 C   0  0  0  0  0  0  0  0  0  0  0  0
  -13.6385  -38.2006  -10.9447 N   0  0  0  0  0  0  0  0  0  0  0  0
  -14.3709  -39.3763  -10.6327 C   0  0  0  0  0  0  0  0  0  0  0  0
  -15.0452  -39.9282  -11.5127 O   0  0  0  0  0  0  0  0  0  0  0  0
  -14.2933  -39.9222   -9.2034 C   0  0  2  0  0  0  0  0  0  0  0  0
  -13.1454  -40.9268   -9.2943 C   0  0  0  0  0  0  0  0  0  0  0  0
  -15.6013  -40.5811   -8.8765 C   0  0  0  0  0  0  0  0  0  0  0  0
  -16.7674  -39.7640   -8.5894 C   0  0  2  0  0  0  0  0  0  0  0  0
  -16.4350  -38.4169   -8.8079 O   0  0  0  0  0  0  0  0  0  0  0  0
  -17.6834  -39.9644   -7.4675 C   0  0  2  0  0  0  0  0  0  0  0  0
  -18.2555  -38.7121   -6.8574 C   0  0  0  0  0  0  0  0  0  0  0  0
  -19.7788  -38.6380   -7.0115 C   0  0  2  0  0  0  0  0  0  0  0  0
  -20.1725  -37.3380   -7.7261 C   0  0  0  0  0  0  0  0  0  0  0  0
  -20.5164  -38.7313   -5.7245 C   0  0  0  0  0  0  0  0  0  0  0  0
  -21.2469  -40.0257   -5.5265 C   0  0  0  0  0  0  0  0  0  0  0  0
  -22.5940  -40.0670   -6.2616 C   0  0  0  0  0  0  0  0  0  0  0  0
  -22.3985  -40.9299   -7.4831 C   0  0  0  0  0  0  0  0  0  0  0  0
  -23.4526  -41.9463   -7.7094 C   0  0  0  0  0  0  0  0  0  0  0  0
  -23.0007  -43.3671   -7.5920 C   0  0  0  0  0  0  0  0  0  0  0  0
  -22.3948  -43.7286   -6.2926 C   0  0  0  0  0  0  0  0  0  0  0  0
  -21.1519  -44.5669   -6.3507 C   0  0  2  0  0  0  0  0  0  0  0  0
  -21.4322  -45.9833   -6.1874 N   0  0  0  0  0  0  0  0  0  0  0  0
  -20.9704  -46.9813   -7.0616 C   0  0  0  0  0  0  0  0  0  0  0  0
  -20.7134  -46.6475   -8.2661 O   0  0  0  0  0  0  0  0  0  0  0  0
  -20.7966  -48.3366   -6.5970 C   0  0  0  0  0  0  0  0  0  0  0  0
  -21.2244  -48.7231   -5.3488 C   0  0  0  0  0  0  0  0  0  0  0  0
  -21.0431  -50.0363   -4.8949 C   0  0  0  0  0  0  0  0  0  0  0  0
  -20.4392  -50.9271   -5.7003 N   0  0  0  0  0  0  0  0  0  0  0  0
  -20.0058  -50.5898   -6.9266 C   0  0  0  0  0  0  0  0  0  0  0  0
  -20.1843  -49.2858   -7.3820 C   0  0  0  0  0  0  0  0  0  0  0  0
  -20.1579  -44.0981   -5.3575 C   0  0  0  0  0  0  0  0  0  0  0  0
  -20.2962  -44.5318   -4.1616 O   0  0  0  0  0  0  0  0  0  0  0  0
  -19.0893  -43.2240   -5.6173 N   0  0  0  0  0  0  0  0  0  0  0  0
  -18.0890  -43.2764   -6.6344 C   0  0  1  0  0  0  0  0  0  0  0  0
  -18.5617  -43.2446   -8.0497 C   0  0  0  0  0  0  0  0  0  0  0  0
  -17.0326  -42.2330   -6.4418 C   0  0  0  0  0  0  0  0  0  0  0  0
  -15.8563  -42.6596   -6.2789 O   0  0  0  0  0  0  0  0  0  0  0  0
  -17.2146  -40.8333   -6.4219 N   0  0  0  0  0  0  0  0  0  0  0  0
  1  2  1  0
  2  3  1  0
  3  4  1  0
  4  5  1  0
  5  6  1  0
  6  7  2  0
  6  8  1  0
  8  9  1  6
  8 10  1  0
 10 11  1  0
 11 12  1  1
 11 13  1  0
 13 14  1  1
 14 15  1  0
 15 16  1  1
 15 17  1  0
 17 18  1  0
 18 19  1  0
 19 20  1  0
 20 21  1  0
 21 22  1  0
 22 23  1  0
 23 24  1  0
 24 25  1  1
 25 26  1  0
 26 27  2  0
 26 28  1  0
 28 29  2  0
 29 30  1  0
 30 31  2  0
 31 32  1  0
 32 33  2  0
 24 34  1  0
 34 35  2  0
 34 36  1  0
 36 37  1  0
 37 38  1  6
 37 39  1  0
 39 40  2  0
 39 41  1  0
 33 28  1  0
 41 13  1  0
M  END
$$$$
