
     RDKit          3D

 41 42  0  0  0  0  0  0  0  0999 V2000
  -13.2354  -36.6793  -14.3553 C   0  0  0  0  0  0  0  0  0  0  0  0
  -12.2496  -36.6383  -13.2041 C   0  0  0  0  0  0  0  0  0  0  0  0
  -12.8074  -37.5211  -12.0935 C   0  0  0  0  0  0  0  0  0  0  0  0
  -13.9285  -36.8239  -11.3622 C   0  0  0  0  0  0  0  0  0  0  0  0
  -14.4371  -37.6912  -10.3388 N   0  0  0  0  0  0  0  0  0  0  0  0
  -14.6885  -39.0591  -10.6242 C   0  0  0  0  0  0  0  0  0  0  0  0
  -15.2036  -39.3734  -11.7057 O   0  0  0  0  0  0  0  0  0  0  0  0
  -14.3045  -40.1032   -9.5709 C   0  0  2  0  0  0  0  0  0  0  0  0
  -13.7807  -41.2575  -10.4243 C   0  0  0  0  0  0  0  0  0  0  0  0
  -15.5384  -40.4776   -8.8034 C   0  0  0  0  0  0  0  0  0  0  0  0
  -16.6345  -39.5305   -8.6954 C   0  0  2  0  0  0  0  0  0  0  0  0
  -16.1486  -38.2472   -8.9956 O   0  0  0  0  0  0  0  0  0  0  0  0
  -17.6567  -39.5376   -7.6499 C   0  0  2  0  0  0  0  0  0  0  0  0
  -18.2121  -38.1910   -7.2679 C   0  0  0  0  0  0  0  0  0  0  0  0
  -19.7093  -38.0750   -7.5758 C   0  0  2  0  0  0  0  0  0  0  0  0
  -19.9663  -36.8692   -8.4901 C   0  0  0  0  0  0  0  0  0  0  0  0
  -20.5629  -37.9610   -6.3645 C   0  0  0  0  0  0  0  0  0  0  0  0
  -21.3775  -39.1847   -6.0685 C   0  0  0  0  0  0  0  0  0  0  0  0
  -22.6537  -39.2694   -6.9175 C   0  0  0  0  0  0  0  0  0  0  0  0
  -22.3970  -40.2983   -7.9902 C   0  0  0  0  0  0  0  0  0  0  0  0
  -23.4802  -41.2910   -8.1806 C   0  0  0  0  0  0  0  0  0  0  0  0
  -23.1185  -42.7002   -7.8340 C   0  0  0  0  0  0  0  0  0  0  0  0
  -22.6517  -42.9062   -6.4463 C   0  0  0  0  0  0  0  0  0  0  0  0
  -21.4560  -43.7958   -6.2739 C   0  0  2  0  0  0  0  0  0  0  0  0
  -21.8263  -45.1638   -5.9529 N   0  0  0  0  0  0  0  0  0  0  0  0
  -21.6546  -46.2497   -6.8273 C   0  0  0  0  0  0  0  0  0  0  0  0
  -21.3534  -45.9968   -8.0413 O   0  0  0  0  0  0  0  0  0  0  0  0
  -21.8167  -47.6030   -6.3527 C   0  0  0  0  0  0  0  0  0  0  0  0
  -21.9216  -47.8802   -5.0101 C   0  0  0  0  0  0  0  0  0  0  0  0
  -22.0660  -49.1960   -4.5507 C   0  0  0  0  0  0  0  0  0  0  0  0
  -22.1015  -50.1987   -5.4452 N   0  0  0  0  0  0  0  0  0  0  0  0
  -22.0015  -49.9707   -6.7656 C   0  0  0  0  0  0  0  0  0  0  0  0
  -21.8582  -48.6643   -7.2266 C   0  0  0  0  0  0  0  0  0  0  0  0
  -20.5308  -43.2380   -5.2605 C   0  0  0  0  0  0  0  0  0  0  0  0
  -20.7988  -43.4984   -4.0367 O   0  0  0  0  0  0  0  0  0  0  0  0
  -19.3973  -42.4529   -5.5296 N   0  0  0  0  0  0  0  0  0  0  0  0
  -18.3144  -42.6852   -6.4302 C   0  0  1  0  0  0  0  0  0  0  0  0
  -18.6563  -42.8269   -7.8761 C   0  0  0  0  0  0  0  0  0  0  0  0
  -17.2243  -41.6703   -6.2765 C   0  0  0  0  0  0  0  0  0  0  0  0
  -16.0923  -42.1196   -5.9467 O   0  0  0  0  0  0  0  0  0  0  0  0
  -17.3311  -40.2747   -6.4588 N   0  0  0  0  0  0  0  0  0  0  0  0
  1  2  1  0
  2  3  1  0
  3  4  1  0
  4  5  1  0
  5  6  1  0
  6  7  2  0
  6  8  1  0
  8  9  1  6
  8 10  1  0
 10 11  1  0
 11 12  1  1
 11 13  1  0
 13 14  1  1
 14 15  1  0
 15 16  1  6
 15 17  1  0
 17 18  1  0
 18 19  1  0
 19 20  1  0
 20 21  1  0
 21 22  1  0
 22 23  1  0
 23 24  1  0
 24 25  1  1
 25 26  1  0
 26 27  2  0
 26 28  1  0
 28 29  2  0
 29 30  1  0
 30 31  2  0
 31 32  1  0
 32 33  2  0
 24 34  1  0
 34 35  2  0
 34 36  1  0
 36 37  1  0
 37 38  1  6
 37 39  1  0
 39 40  2  0
 39 41  1  0
 33 28  1  0
 41 13  1  0
M  END
$$$$
