
     RDKit          3D

 41 42  0  0  0  0  0  0  0  0999 V2000
  -11.1101  -38.2205   -7.5595 C   0  0  0  0  0  0  0  0  0  0  0  0
  -10.6569  -39.3991   -8.3989 C   0  0  0  0  0  0  0  0  0  0  0  0
  -11.9079  -40.1290   -8.8744 C   0  0  0  0  0  0  0  0  0  0  0  0
  -12.6084  -39.3478   -9.9592 C   0  0  0  0  0  0  0  0  0  0  0  0
  -13.9460  -39.0466   -9.5366 N   0  0  0  0  0  0  0  0  0  0  0  0
  -14.8176  -38.3232  -10.3927 C   0  0  0  0  0  0  0  0  0  0  0  0
  -14.6023  -37.1235  -10.6123 O   0  0  0  0  0  0  0  0  0  0  0  0
  -16.0013  -39.0665  -11.0198 C   0  0  2  0  0  0  0  0  0  0  0  0
  -15.8672  -38.7134  -12.5005 C   0  0  0  0  0  0  0  0  0  0  0  0
  -17.2683  -38.5312  -10.4199 C   0  0  0  0  0  0  0  0  0  0  0  0
  -18.2617  -39.4519   -9.8950 C   0  0  2  0  0  0  0  0  0  0  0  0
  -19.4358  -39.3250  -10.6554 O   0  0  0  0  0  0  0  0  0  0  0  0
  -18.5097  -39.7081   -8.4769 C   0  0  2  0  0  0  0  0  0  0  0  0
  -18.8220  -38.4975   -7.6375 C   0  0  0  0  0  0  0  0  0  0  0  0
  -20.2338  -38.5550   -7.0432 C   0  0  2  0  0  0  0  0  0  0  0  0
  -21.0274  -37.3062   -7.4512 C   0  0  0  0  0  0  0  0  0  0  0  0
  -20.2557  -38.6864   -5.5629 C   0  0  0  0  0  0  0  0  0  0  0  0
  -20.6925  -40.0339   -5.0713 C   0  0  0  0  0  0  0  0  0  0  0  0
  -22.2184  -40.2022   -5.0741 C   0  0  0  0  0  0  0  0  0  0  0  0
  -22.5600  -41.0680   -6.2610 C   0  0  0  0  0  0  0  0  0  0  0  0
  -23.5056  -42.1737   -5.9807 C   0  0  0  0  0  0  0  0  0  0  0  0
  -22.9365  -43.5489   -6.1278 C   0  0  0  0  0  0  0  0  0  0  0  0
  -21.7555  -43.8340   -5.2851 C   0  0  0  0  0  0  0  0  0  0  0  0
  -20.6271  -44.5653   -5.9502 C   0  0  2  0  0  0  0  0  0  0  0  0
  -20.6767  -45.9971   -5.7071 N   0  0  0  0  0  0  0  0  0  0  0  0
  -20.6812  -46.9667   -6.7237 C   0  0  0  0  0  0  0  0  0  0  0  0
  -21.3720  -46.7309   -7.7704 O   0  0  0  0  0  0  0  0  0  0  0  0
  -19.9230  -48.1856   -6.5744 C   0  0  0  0  0  0  0  0  0  0  0  0
  -19.9968  -49.1905   -7.5099 C   0  0  0  0  0  0  0  0  0  0  0  0
  -19.2697  -50.3784   -7.3565 C   0  0  0  0  0  0  0  0  0  0  0  0
  -18.4890  -50.5298   -6.2727 N   0  0  0  0  0  0  0  0  0  0  0  0
  -18.3896  -49.5725   -5.3351 C   0  0  0  0  0  0  0  0  0  0  0  0
  -19.1103  -48.3901   -5.4837 C   0  0  0  0  0  0  0  0  0  0  0  0
  -19.3220  -43.9961   -5.5417 C   0  0  0  0  0  0  0  0  0  0  0  0
  -18.8352  -44.4178   -4.4360 O   0  0  0  0  0  0  0  0  0  0  0  0
  -18.5842  -43.0400   -6.2594 N   0  0  0  0  0  0  0  0  0  0  0  0
  -18.1915  -43.0266   -7.6317 C   0  0  1  0  0  0  0  0  0  0  0  0
  -19.2841  -43.0608   -8.6478 C   0  0  0  0  0  0  0  0  0  0  0  0
  -17.2622  -41.8943   -7.9422 C   0  0  0  0  0  0  0  0  0  0  0  0
  -16.1204  -42.2172   -8.3714 O   0  0  0  0  0  0  0  0  0  0  0  0
  -17.5278  -40.5149   -7.8038 N   0  0  0  0  0  0  0  0  0  0  0  0
  1  2  1  0
  2  3  1  0
  3  4  1  0
  4  5  1  0
  5  6  1  0
  6  7  2  0
  6  8  1  0
  8  9  1  6
  8 10  1  0
 10 11  1  0
 11 12  1  1
 11 13  1  0
 13 14  1  1
 14 15  1  0
 15 16  1  1
 15 17  1  0
 17 18  1  0
 18 19  1  0
 19 20  1  0
 20 21  1  0
 21 22  1  0
 22 23  1  0
 23 24  1  0
 24 25  1  1
 25 26  1  0
 26 27  2  0
 26 28  1  0
 28 29  2  0
 29 30  1  0
 30 31  2  0
 31 32  1  0
 32 33  2  0
 24 34  1  0
 34 35  2  0
 34 36  1  0
 36 37  1  0
 37 38  1  6
 37 39  1  0
 39 40  2  0
 39 41  1  0
 33 28  1  0
 41 13  1  0
M  END
$$$$
