
     RDKit          3D

 41 42  0  0  0  0  0  0  0  0999 V2000
  -12.9932  -43.7459  -14.1553 C   0  0  0  0  0  0  0  0  0  0  0  0
  -12.8311  -42.2749  -13.8253 C   0  0  0  0  0  0  0  0  0  0  0  0
  -12.8256  -42.1455  -12.3065 C   0  0  0  0  0  0  0  0  0  0  0  0
  -12.7004  -40.7006  -11.8889 C   0  0  0  0  0  0  0  0  0  0  0  0
  -13.9590  -40.2474  -11.3701 N   0  0  0  0  0  0  0  0  0  0  0  0
  -14.0879  -39.9263   -9.9931 C   0  0  0  0  0  0  0  0  0  0  0  0
  -13.6204  -40.6930   -9.1402 O   0  0  0  0  0  0  0  0  0  0  0  0
  -14.8059  -38.6271   -9.6145 C   0  0  2  0  0  0  0  0  0  0  0  0
  -13.6438  -37.6651   -9.3712 C   0  0  0  0  0  0  0  0  0  0  0  0
  -15.6090  -38.8748   -8.3714 C   0  0  0  0  0  0  0  0  0  0  0  0
  -16.9114  -39.5105   -8.4702 C   0  0  2  0  0  0  0  0  0  0  0  0
  -17.6053  -38.9439   -9.5521 O   0  0  0  0  0  0  0  0  0  0  0  0
  -17.7727  -39.8514   -7.3388 C   0  0  2  0  0  0  0  0  0  0  0  0
  -18.3034  -38.6866   -6.5455 C   0  0  0  0  0  0  0  0  0  0  0  0
  -19.8318  -38.5903   -6.6125 C   0  0  2  0  0  0  0  0  0  0  0  0
  -20.2492  -37.2085   -7.1341 C   0  0  0  0  0  0  0  0  0  0  0  0
  -20.5057  -38.8465   -5.3127 C   0  0  0  0  0  0  0  0  0  0  0  0
  -21.2365  -40.1541   -5.2460 C   0  0  0  0  0  0  0  0  0  0  0  0
  -22.6185  -40.0980   -5.9120 C   0  0  0  0  0  0  0  0  0  0  0  0
  -22.4908  -40.7974   -7.2422 C   0  0  0  0  0  0  0  0  0  0  0  0
  -23.5632  -41.7741   -7.5440 C   0  0  0  0  0  0  0  0  0  0  0  0
  -23.1180  -43.1992   -7.6322 C   0  0  0  0  0  0  0  0  0  0  0  0
  -22.4519  -43.7258   -6.4218 C   0  0  0  0  0  0  0  0  0  0  0  0
  -21.2205  -44.5521   -6.6488 C   0  0  2  0  0  0  0  0  0  0  0  0
  -21.5043  -45.9773   -6.6545 N   0  0  0  0  0  0  0  0  0  0  0  0
  -20.6744  -46.9410   -7.2509 C   0  0  0  0  0  0  0  0  0  0  0  0
  -20.1990  -46.6861   -8.4074 O   0  0  0  0  0  0  0  0  0  0  0  0
  -20.3775  -48.1754   -6.5645 C   0  0  0  0  0  0  0  0  0  0  0  0
  -20.8488  -48.4171   -5.2958 C   0  0  0  0  0  0  0  0  0  0  0  0
  -20.5487  -49.6109   -4.6263 C   0  0  0  0  0  0  0  0  0  0  0  0
  -19.7858  -50.5301   -5.2426 N   0  0  0  0  0  0  0  0  0  0  0  0
  -19.3048  -50.3325   -6.4815 C   0  0  0  0  0  0  0  0  0  0  0  0
  -19.6010  -49.1476   -7.1508 C   0  0  0  0  0  0  0  0  0  0  0  0
  -20.1748  -44.2167   -5.6548 C   0  0  0  0  0  0  0  0  0  0  0  0
  -20.2576  -44.8001   -4.5188 O   0  0  0  0  0  0  0  0  0  0  0  0
  -19.1130  -43.3187   -5.8535 N   0  0  0  0  0  0  0  0  0  0  0  0
  -18.1645  -43.2421   -6.9176 C   0  0  1  0  0  0  0  0  0  0  0  0
  -18.7062  -43.0279   -8.2918 C   0  0  0  0  0  0  0  0  0  0  0  0
  -17.0911  -42.2341   -6.6461 C   0  0  0  0  0  0  0  0  0  0  0  0
  -15.9119  -42.6806   -6.5981 O   0  0  0  0  0  0  0  0  0  0  0  0
  -17.2602  -40.8483   -6.4379 N   0  0  0  0  0  0  0  0  0  0  0  0
  1  2  1  0
  2  3  1  0
  3  4  1  0
  4  5  1  0
  5  6  1  0
  6  7  2  0
  6  8  1  0
  8  9  1  1
  8 10  1  0
 10 11  1  0
 11 12  1  6
 11 13  1  0
 13 14  1  1
 14 15  1  0
 15 16  1  1
 15 17  1  0
 17 18  1  0
 18 19  1  0
 19 20  1  0
 20 21  1  0
 21 22  1  0
 22 23  1  0
 23 24  1  0
 24 25  1  1
 25 26  1  0
 26 27  2  0
 26 28  1  0
 28 29  2  0
 29 30  1  0
 30 31  2  0
 31 32  1  0
 32 33  2  0
 24 34  1  0
 34 35  2  0
 34 36  1  0
 36 37  1  0
 37 38  1  6
 37 39  1  0
 39 40  2  0
 39 41  1  0
 33 28  1  0
 41 13  1  0
M  END
$$$$
