
     RDKit          3D

 41 42  0  0  0  0  0  0  0  0999 V2000
  -19.6429  -40.5656  -13.0995 C   0  0  0  0  0  0  0  0  0  0  0  0
  -18.1848  -40.8022  -13.4413 C   0  0  0  0  0  0  0  0  0  0  0  0
  -17.5045  -39.4396  -13.5081 C   0  0  0  0  0  0  0  0  0  0  0  0
  -16.9256  -39.0597  -12.1670 C   0  0  0  0  0  0  0  0  0  0  0  0
  -15.7818  -39.8820  -11.8954 N   0  0  0  0  0  0  0  0  0  0  0  0
  -15.5034  -40.2989  -10.5670 C   0  0  0  0  0  0  0  0  0  0  0  0
  -15.7384  -41.4675  -10.2310 O   0  0  0  0  0  0  0  0  0  0  0  0
  -14.9134  -39.2743   -9.5929 C   0  0  2  0  0  0  0  0  0  0  0  0
  -13.4314  -39.6462   -9.5783 C   0  0  0  0  0  0  0  0  0  0  0  0
  -15.5615  -39.4667   -8.2532 C   0  0  0  0  0  0  0  0  0  0  0  0
  -17.0036  -39.3468   -8.1270 C   0  0  2  0  0  0  0  0  0  0  0  0
  -17.3702  -38.0229   -8.4199 O   0  0  0  0  0  0  0  0  0  0  0  0
  -17.8125  -39.9565   -7.0725 C   0  0  2  0  0  0  0  0  0  0  0  0
  -18.5858  -38.9996   -6.2042 C   0  0  0  0  0  0  0  0  0  0  0  0
  -20.1004  -39.1961   -6.3344 C   0  0  2  0  0  0  0  0  0  0  0  0
  -20.7680  -37.8779   -6.7497 C   0  0  0  0  0  0  0  0  0  0  0  0
  -20.7474  -39.7031   -5.0961 C   0  0  0  0  0  0  0  0  0  0  0  0
  -21.2065  -41.1280   -5.1809 C   0  0  0  0  0  0  0  0  0  0  0  0
  -22.5525  -41.2773   -5.9038 C   0  0  0  0  0  0  0  0  0  0  0  0
  -22.2507  -41.8064   -7.2837 C   0  0  0  0  0  0  0  0  0  0  0  0
  -23.0995  -42.9390   -7.7218 C   0  0  0  0  0  0  0  0  0  0  0  0
  -22.3787  -44.2350   -7.9158 C   0  0  0  0  0  0  0  0  0  0  0  0
  -21.6566  -44.7368   -6.7272 C   0  0  0  0  0  0  0  0  0  0  0  0
  -20.2800  -45.2821   -6.9687 C   0  0  2  0  0  0  0  0  0  0  0  0
  -20.2758  -46.7278   -7.1151 N   0  0  0  0  0  0  0  0  0  0  0  0
  -21.4165  -47.4899   -7.4174 C   0  0  0  0  0  0  0  0  0  0  0  0
  -22.2909  -46.9746   -8.1909 O   0  0  0  0  0  0  0  0  0  0  0  0
  -21.5798  -48.8125   -6.8632 C   0  0  0  0  0  0  0  0  0  0  0  0
  -20.6991  -49.3091   -5.9316 C   0  0  0  0  0  0  0  0  0  0  0  0
  -20.8522  -50.5983   -5.4044 C   0  0  0  0  0  0  0  0  0  0  0  0
  -21.8808  -51.3559   -5.8226 N   0  0  0  0  0  0  0  0  0  0  0  0
  -22.7631  -50.9084   -6.7319 C   0  0  0  0  0  0  0  0  0  0  0  0
  -22.6150  -49.6276   -7.2582 C   0  0  0  0  0  0  0  0  0  0  0  0
  -19.3503  -44.8477   -5.9004 C   0  0  0  0  0  0  0  0  0  0  0  0
  -19.3487  -45.5433   -4.8263 O   0  0  0  0  0  0  0  0  0  0  0  0
  -18.4820  -43.7455   -5.9678 N   0  0  0  0  0  0  0  0  0  0  0  0
  -17.5373  -43.3833   -6.9749 C   0  0  1  0  0  0  0  0  0  0  0  0
  -18.0710  -43.1464   -8.3484 C   0  0  0  0  0  0  0  0  0  0  0  0
  -16.6930  -42.2171   -6.5639 C   0  0  0  0  0  0  0  0  0  0  0  0
  -15.4506  -42.4283   -6.5004 O   0  0  0  0  0  0  0  0  0  0  0  0
  -17.1389  -40.9173   -6.2410 N   0  0  0  0  0  0  0  0  0  0  0  0
  1  2  1  0
  2  3  1  0
  3  4  1  0
  4  5  1  0
  5  6  1  0
  6  7  2  0
  6  8  1  0
  8  9  1  1
  8 10  1  0
 10 11  1  0
 11 12  1  1
 11 13  1  0
 13 14  1  1
 14 15  1  0
 15 16  1  1
 15 17  1  0
 17 18  1  0
 18 19  1  0
 19 20  1  0
 20 21  1  0
 21 22  1  0
 22 23  1  0
 23 24  1  0
 24 25  1  1
 25 26  1  0
 26 27  2  0
 26 28  1  0
 28 29  2  0
 29 30  1  0
 30 31  2  0
 31 32  1  0
 32 33  2  0
 24 34  1  0
 34 35  2  0
 34 36  1  0
 36 37  1  0
 37 38  1  6
 37 39  1  0
 39 40  2  0
 39 41  1  0
 33 28  1  0
 41 13  1  0
M  END
$$$$
