
     RDKit          3D

 41 42  0  0  0  0  0  0  0  0999 V2000
  -11.9949  -36.6282  -15.2687 C   0  0  0  0  0  0  0  0  0  0  0  0
  -13.0693  -36.5050  -14.2060 C   0  0  0  0  0  0  0  0  0  0  0  0
  -13.0579  -37.7947  -13.3934 C   0  0  0  0  0  0  0  0  0  0  0  0
  -14.1219  -37.7673  -12.3234 C   0  0  0  0  0  0  0  0  0  0  0  0
  -15.1456  -38.7180  -12.6497 N   0  0  0  0  0  0  0  0  0  0  0  0
  -15.6260  -39.6154  -11.6599 C   0  0  0  0  0  0  0  0  0  0  0  0
  -16.6349  -40.2960  -11.8895 O   0  0  0  0  0  0  0  0  0  0  0  0
  -14.8653  -39.7085  -10.3334 C   0  0  2  0  0  0  0  0  0  0  0  0
  -13.7034  -40.6376  -10.6823 C   0  0  0  0  0  0  0  0  0  0  0  0
  -15.7801  -40.3038   -9.3036 C   0  0  0  0  0  0  0  0  0  0  0  0
  -17.0558  -39.6693   -9.0207 C   0  0  2  0  0  0  0  0  0  0  0  0
  -17.0270  -38.3599   -9.5281 O   0  0  0  0  0  0  0  0  0  0  0  0
  -17.8017  -39.7937   -7.7691 C   0  0  2  0  0  0  0  0  0  0  0  0
  -18.1705  -38.4987   -7.0950 C   0  0  0  0  0  0  0  0  0  0  0  0
  -19.6884  -38.3006   -7.0150 C   0  0  2  0  0  0  0  0  0  0  0  0
  -20.0813  -36.9732   -7.6778 C   0  0  0  0  0  0  0  0  0  0  0  0
  -20.2244  -38.3328   -5.6291 C   0  0  0  0  0  0  0  0  0  0  0  0
  -21.0177  -39.5632   -5.3047 C   0  0  0  0  0  0  0  0  0  0  0  0
  -22.4606  -39.4948   -5.8242 C   0  0  0  0  0  0  0  0  0  0  0  0
  -22.5254  -40.3715   -7.0499 C   0  0  0  0  0  0  0  0  0  0  0  0
  -23.6801  -41.2986   -7.0989 C   0  0  0  0  0  0  0  0  0  0  0  0
  -23.3314  -42.7515   -7.0334 C   0  0  0  0  0  0  0  0  0  0  0  0
  -22.5641  -43.1606   -5.8376 C   0  0  0  0  0  0  0  0  0  0  0  0
  -21.4165  -44.0974   -6.0744 C   0  0  2  0  0  0  0  0  0  0  0  0
  -21.7815  -45.4862   -5.8517 N   0  0  0  0  0  0  0  0  0  0  0  0
  -23.0981  -45.9280   -5.6401 C   0  0  0  0  0  0  0  0  0  0  0  0
  -24.0424  -45.2829   -6.2061 O   0  0  0  0  0  0  0  0  0  0  0  0
  -23.3583  -47.0772   -4.8067 C   0  0  0  0  0  0  0  0  0  0  0  0
  -24.1450  -48.1148   -5.2480 C   0  0  0  0  0  0  0  0  0  0  0  0
  -24.4069  -49.2236   -4.4324 C   0  0  0  0  0  0  0  0  0  0  0  0
  -23.8758  -49.2652   -3.1982 N   0  0  0  0  0  0  0  0  0  0  0  0
  -23.1025  -48.2718   -2.7287 C   0  0  0  0  0  0  0  0  0  0  0  0
  -22.8393  -47.1680   -3.5361 C   0  0  0  0  0  0  0  0  0  0  0  0
  -20.2471  -43.7108   -5.2514 C   0  0  0  0  0  0  0  0  0  0  0  0
  -20.2345  -44.1311   -4.0429 O   0  0  0  0  0  0  0  0  0  0  0  0
  -19.1643  -42.9269   -5.6832 N   0  0  0  0  0  0  0  0  0  0  0  0
  -18.3397  -43.0612   -6.8407 C   0  0  1  0  0  0  0  0  0  0  0  0
  -19.0203  -42.9916   -8.1671 C   0  0  0  0  0  0  0  0  0  0  0  0
  -17.1857  -42.1073   -6.8258 C   0  0  0  0  0  0  0  0  0  0  0  0
  -16.0366  -42.6284   -6.8394 O   0  0  0  0  0  0  0  0  0  0  0  0
  -17.2492  -40.6975   -6.7965 N   0  0  0  0  0  0  0  0  0  0  0  0
  1  2  1  0
  2  3  1  0
  3  4  1  0
  4  5  1  0
  5  6  1  0
  6  7  2  0
  6  8  1  0
  8  9  1  6
  8 10  1  0
 10 11  1  0
 11 12  1  1
 11 13  1  0
 13 14  1  1
 14 15  1  0
 15 16  1  1
 15 17  1  0
 17 18  1  0
 18 19  1  0
 19 20  1  0
 20 21  1  0
 21 22  1  0
 22 23  1  0
 23 24  1  0
 24 25  1  1
 25 26  1  0
 26 27  2  0
 26 28  1  0
 28 29  2  0
 29 30  1  0
 30 31  2  0
 31 32  1  0
 32 33  2  0
 24 34  1  0
 34 35  2  0
 34 36  1  0
 36 37  1  0
 37 38  1  6
 37 39  1  0
 39 40  2  0
 39 41  1  0
 33 28  1  0
 41 13  1  0
M  END
$$$$
