
     RDKit          3D

 41 42  0  0  0  0  0  0  0  0999 V2000
  -10.7305  -34.4389  -11.8721 C   0  0  0  0  0  0  0  0  0  0  0  0
  -11.5062  -34.9254  -13.0806 C   0  0  0  0  0  0  0  0  0  0  0  0
  -12.7493  -35.6428  -12.5669 C   0  0  0  0  0  0  0  0  0  0  0  0
  -13.0866  -35.1996  -11.1642 C   0  0  0  0  0  0  0  0  0  0  0  0
  -13.6027  -36.3167  -10.4264 N   0  0  0  0  0  0  0  0  0  0  0  0
  -14.3078  -37.3497  -11.0983 C   0  0  0  0  0  0  0  0  0  0  0  0
  -14.8816  -37.1028  -12.1677 O   0  0  0  0  0  0  0  0  0  0  0  0
  -14.3273  -38.7452  -10.4667 C   0  0  2  0  0  0  0  0  0  0  0  0
  -13.5411  -39.5778  -11.4785 C   0  0  0  0  0  0  0  0  0  0  0  0
  -15.7550  -39.1921  -10.3494 C   0  0  0  0  0  0  0  0  0  0  0  0
  -16.0721  -40.4045   -9.6150 C   0  0  2  0  0  0  0  0  0  0  0  0
  -16.2572  -41.4497  -10.5349 O   0  0  0  0  0  0  0  0  0  0  0  0
  -16.9615  -40.4822   -8.4569 C   0  0  2  0  0  0  0  0  0  0  0  0
  -17.3329  -39.1657   -7.8271 C   0  0  0  0  0  0  0  0  0  0  0  0
  -18.8369  -38.8845   -7.9203 C   0  0  2  0  0  0  0  0  0  0  0  0
  -19.0781  -37.5406   -8.6214 C   0  0  0  0  0  0  0  0  0  0  0  0
  -19.5283  -38.8808   -6.6046 C   0  0  0  0  0  0  0  0  0  0  0  0
  -20.4198  -40.0644   -6.3749 C   0  0  0  0  0  0  0  0  0  0  0  0
  -21.7882  -39.9195   -7.0554 C   0  0  0  0  0  0  0  0  0  0  0  0
  -21.7609  -40.7969   -8.2819 C   0  0  0  0  0  0  0  0  0  0  0  0
  -22.9517  -41.6596   -8.4638 C   0  0  0  0  0  0  0  0  0  0  0  0
  -22.6931  -43.1291   -8.3615 C   0  0  0  0  0  0  0  0  0  0  0  0
  -22.0907  -43.5741   -7.0866 C   0  0  0  0  0  0  0  0  0  0  0  0
  -20.9768  -44.5735   -7.1926 C   0  0  2  0  0  0  0  0  0  0  0  0
  -21.4406  -45.9391   -7.0152 N   0  0  0  0  0  0  0  0  0  0  0  0
  -21.6939  -46.5264   -5.7645 C   0  0  0  0  0  0  0  0  0  0  0  0
  -20.8149  -47.3197   -5.2885 O   0  0  0  0  0  0  0  0  0  0  0  0
  -22.9141  -46.2316   -5.0523 C   0  0  0  0  0  0  0  0  0  0  0  0
  -22.8955  -45.5569   -3.8545 C   0  0  0  0  0  0  0  0  0  0  0  0
  -24.0803  -45.2830   -3.1584 C   0  0  0  0  0  0  0  0  0  0  0  0
  -25.2510  -45.6910   -3.6779 N   0  0  0  0  0  0  0  0  0  0  0  0
  -25.3125  -46.3537   -4.8451 C   0  0  0  0  0  0  0  0  0  0  0  0
  -24.1374  -46.6277   -5.5406 C   0  0  0  0  0  0  0  0  0  0  0  0
  -19.8894  -44.2477   -6.2410 C   0  0  0  0  0  0  0  0  0  0  0  0
  -20.0377  -44.6625   -5.0395 O   0  0  0  0  0  0  0  0  0  0  0  0
  -18.7230  -43.5263   -6.5451 N   0  0  0  0  0  0  0  0  0  0  0  0
  -17.7805  -43.7110   -7.6013 C   0  0  1  0  0  0  0  0  0  0  0  0
  -18.3006  -43.6103   -8.9966 C   0  0  0  0  0  0  0  0  0  0  0  0
  -16.5850  -42.8216   -7.4533 C   0  0  0  0  0  0  0  0  0  0  0  0
  -15.4723  -43.4050   -7.3366 O   0  0  0  0  0  0  0  0  0  0  0  0
  -16.5739  -41.4103   -7.4291 N   0  0  0  0  0  0  0  0  0  0  0  0
  1  2  1  0
  2  3  1  0
  3  4  1  0
  4  5  1  0
  5  6  1  0
  6  7  2  0
  6  8  1  0
  8  9  1  6
  8 10  1  0
 10 11  1  0
 11 12  1  6
 11 13  1  0
 13 14  1  1
 14 15  1  0
 15 16  1  1
 15 17  1  0
 17 18  1  0
 18 19  1  0
 19 20  1  0
 20 21  1  0
 21 22  1  0
 22 23  1  0
 23 24  1  0
 24 25  1  1
 25 26  1  0
 26 27  2  0
 26 28  1  0
 28 29  2  0
 29 30  1  0
 30 31  2  0
 31 32  1  0
 32 33  2  0
 24 34  1  0
 34 35  2  0
 34 36  1  0
 36 37  1  0
 37 38  1  6
 37 39  1  0
 39 40  2  0
 39 41  1  0
 33 28  1  0
 41 13  1  0
M  END
$$$$
