
     RDKit          3D

 41 42  0  0  0  0  0  0  0  0999 V2000
  -10.3936  -35.8674  -13.0812 C   0  0  0  0  0  0  0  0  0  0  0  0
  -11.6832  -36.6561  -12.9636 C   0  0  0  0  0  0  0  0  0  0  0  0
  -12.2076  -36.4652  -11.5451 C   0  0  0  0  0  0  0  0  0  0  0  0
  -13.5255  -37.1763  -11.3571 C   0  0  0  0  0  0  0  0  0  0  0  0
  -13.2839  -38.4891  -10.8313 N   0  0  0  0  0  0  0  0  0  0  0  0
  -14.3735  -39.3518  -10.5409 C   0  0  0  0  0  0  0  0  0  0  0  0
  -15.1617  -39.6662  -11.4428 O   0  0  0  0  0  0  0  0  0  0  0  0
  -14.5293  -39.8672   -9.1066 C   0  0  2  0  0  0  0  0  0  0  0  0
  -13.3879  -40.8766   -8.9915 C   0  0  0  0  0  0  0  0  0  0  0  0
  -15.8768  -40.5152   -8.9800 C   0  0  0  0  0  0  0  0  0  0  0  0
  -17.0573  -39.6907   -8.7890 C   0  0  2  0  0  0  0  0  0  0  0  0
  -16.7367  -38.3651   -9.1246 O   0  0  0  0  0  0  0  0  0  0  0  0
  -17.9912  -39.7996   -7.6690 C   0  0  2  0  0  0  0  0  0  0  0  0
  -18.5603  -38.5008   -7.1623 C   0  0  0  0  0  0  0  0  0  0  0  0
  -20.0805  -38.4260   -7.3442 C   0  0  2  0  0  0  0  0  0  0  0  0
  -20.4519  -37.1797   -8.1592 C   0  0  0  0  0  0  0  0  0  0  0  0
  -20.8372  -38.4173   -6.0649 C   0  0  0  0  0  0  0  0  0  0  0  0
  -21.5824  -39.6874   -5.7823 C   0  0  0  0  0  0  0  0  0  0  0  0
  -22.9192  -39.7723   -6.5323 C   0  0  0  0  0  0  0  0  0  0  0  0
  -22.7142  -40.7253   -7.6833 C   0  0  0  0  0  0  0  0  0  0  0  0
  -23.7743  -41.7471   -7.8492 C   0  0  0  0  0  0  0  0  0  0  0  0
  -23.3372  -43.1589   -7.6198 C   0  0  0  0  0  0  0  0  0  0  0  0
  -22.7533  -43.4276   -6.2883 C   0  0  0  0  0  0  0  0  0  0  0  0
  -21.5175  -44.2779   -6.2653 C   0  0  2  0  0  0  0  0  0  0  0  0
  -21.8131  -45.6760   -6.0015 N   0  0  0  0  0  0  0  0  0  0  0  0
  -21.9910  -46.6439   -7.0039 C   0  0  0  0  0  0  0  0  0  0  0  0
  -22.1410  -46.2391   -8.2047 O   0  0  0  0  0  0  0  0  0  0  0  0
  -22.0008  -48.0481   -6.6705 C   0  0  0  0  0  0  0  0  0  0  0  0
  -21.9720  -49.0136   -7.6489 C   0  0  0  0  0  0  0  0  0  0  0  0
  -21.9946  -50.3763   -7.3233 C   0  0  0  0  0  0  0  0  0  0  0  0
  -22.0455  -50.7369   -6.0294 N   0  0  0  0  0  0  0  0  0  0  0  0
  -22.0759  -49.8248   -5.0432 C   0  0  0  0  0  0  0  0  0  0  0  0
  -22.0532  -48.4693   -5.3622 C   0  0  0  0  0  0  0  0  0  0  0  0
  -20.5335  -43.7446   -5.2950 C   0  0  0  0  0  0  0  0  0  0  0  0
  -20.6929  -44.0870   -4.0724 O   0  0  0  0  0  0  0  0  0  0  0  0
  -19.4532  -42.9010   -5.6031 N   0  0  0  0  0  0  0  0  0  0  0  0
  -18.4391  -43.0371   -6.5984 C   0  0  1  0  0  0  0  0  0  0  0  0
  -18.8912  -43.1068   -8.0190 C   0  0  0  0  0  0  0  0  0  0  0  0
  -17.3759  -41.9908   -6.4681 C   0  0  0  0  0  0  0  0  0  0  0  0
  -16.2061  -42.4137   -6.2564 O   0  0  0  0  0  0  0  0  0  0  0  0
  -17.5453  -40.5921   -6.5549 N   0  0  0  0  0  0  0  0  0  0  0  0
  1  2  1  0
  2  3  1  0
  3  4  1  0
  4  5  1  0
  5  6  1  0
  6  7  2  0
  6  8  1  0
  8  9  1  6
  8 10  1  0
 10 11  1  0
 11 12  1  1
 11 13  1  0
 13 14  1  1
 14 15  1  0
 15 16  1  1
 15 17  1  0
 17 18  1  0
 18 19  1  0
 19 20  1  0
 20 21  1  0
 21 22  1  0
 22 23  1  0
 23 24  1  0
 24 25  1  1
 25 26  1  0
 26 27  2  0
 26 28  1  0
 28 29  2  0
 29 30  1  0
 30 31  2  0
 31 32  1  0
 32 33  2  0
 24 34  1  0
 34 35  2  0
 34 36  1  0
 36 37  1  0
 37 38  1  6
 37 39  1  0
 39 40  2  0
 39 41  1  0
 33 28  1  0
 41 13  1  0
M  END
$$$$
