
     RDKit          3D

 41 42  0  0  0  0  0  0  0  0999 V2000
  -13.2132  -34.2494  -12.3577 C   0  0  0  0  0  0  0  0  0  0  0  0
  -12.5497  -35.6117  -12.3031 C   0  0  0  0  0  0  0  0  0  0  0  0
  -13.1564  -36.3684  -11.1271 C   0  0  0  0  0  0  0  0  0  0  0  0
  -12.6198  -37.7773  -11.0579 C   0  0  0  0  0  0  0  0  0  0  0  0
  -13.5165  -38.6594  -11.7480 N   0  0  0  0  0  0  0  0  0  0  0  0
  -14.6301  -39.2185  -11.0675 C   0  0  0  0  0  0  0  0  0  0  0  0
  -15.7744  -38.8429  -11.3558 O   0  0  0  0  0  0  0  0  0  0  0  0
  -14.3672  -40.2790   -9.9937 C   0  0  2  0  0  0  0  0  0  0  0  0
  -13.5625  -41.3306  -10.7564 C   0  0  0  0  0  0  0  0  0  0  0  0
  -15.6881  -40.8086   -9.5176 C   0  0  0  0  0  0  0  0  0  0  0  0
  -16.7743  -39.8863   -9.2357 C   0  0  2  0  0  0  0  0  0  0  0  0
  -16.3914  -38.6018   -9.6554 O   0  0  0  0  0  0  0  0  0  0  0  0
  -17.5868  -39.8849   -8.0199 C   0  0  2  0  0  0  0  0  0  0  0  0
  -18.0416  -38.5327   -7.5378 C   0  0  0  0  0  0  0  0  0  0  0  0
  -19.5678  -38.3930   -7.5645 C   0  0  2  0  0  0  0  0  0  0  0  0
  -19.9700  -37.1780   -8.4118 C   0  0  0  0  0  0  0  0  0  0  0  0
  -20.1822  -38.2739   -6.2163 C   0  0  0  0  0  0  0  0  0  0  0  0
  -20.9472  -39.4874   -5.7796 C   0  0  0  0  0  0  0  0  0  0  0  0
  -22.3590  -39.5483   -6.3795 C   0  0  0  0  0  0  0  0  0  0  0  0
  -22.3199  -40.5742   -7.4845 C   0  0  0  0  0  0  0  0  0  0  0  0
  -23.4349  -41.5499   -7.4756 C   0  0  0  0  0  0  0  0  0  0  0  0
  -23.0374  -42.9663   -7.2062 C   0  0  0  0  0  0  0  0  0  0  0  0
  -22.3266  -43.1876   -5.9288 C   0  0  0  0  0  0  0  0  0  0  0  0
  -21.1335  -44.0955   -5.9823 C   0  0  2  0  0  0  0  0  0  0  0  0
  -21.4595  -45.4599   -5.6032 N   0  0  0  0  0  0  0  0  0  0  0  0
  -22.7234  -46.0452   -5.7862 C   0  0  0  0  0  0  0  0  0  0  0  0
  -23.5327  -45.4779   -6.5934 O   0  0  0  0  0  0  0  0  0  0  0  0
  -23.0803  -47.2503   -5.0768 C   0  0  0  0  0  0  0  0  0  0  0  0
  -24.3949  -47.6179   -4.9117 C   0  0  0  0  0  0  0  0  0  0  0  0
  -24.7396  -48.7816   -4.2116 C   0  0  0  0  0  0  0  0  0  0  0  0
  -23.7617  -49.5460   -3.6955 N   0  0  0  0  0  0  0  0  0  0  0  0
  -22.4651  -49.2219   -3.8338 C   0  0  0  0  0  0  0  0  0  0  0  0
  -22.1179  -48.0663   -4.5293 C   0  0  0  0  0  0  0  0  0  0  0  0
  -20.0291  -43.5574   -5.1547 C   0  0  0  0  0  0  0  0  0  0  0  0
  -20.0714  -43.8214   -3.9033 O   0  0  0  0  0  0  0  0  0  0  0  0
  -18.9525  -42.7873   -5.6252 N   0  0  0  0  0  0  0  0  0  0  0  0
  -18.0575  -43.0300   -6.7104 C   0  0  1  0  0  0  0  0  0  0  0  0
  -18.6617  -43.1578   -8.0692 C   0  0  0  0  0  0  0  0  0  0  0  0
  -16.9421  -42.0321   -6.7566 C   0  0  0  0  0  0  0  0  0  0  0  0
  -15.7758  -42.4998   -6.6422 O   0  0  0  0  0  0  0  0  0  0  0  0
  -17.0590  -40.6339   -6.9115 N   0  0  0  0  0  0  0  0  0  0  0  0
  1  2  1  0
  2  3  1  0
  3  4  1  0
  4  5  1  0
  5  6  1  0
  6  7  2  0
  6  8  1  0
  8  9  1  6
  8 10  1  0
 10 11  1  0
 11 12  1  1
 11 13  1  0
 13 14  1  1
 14 15  1  0
 15 16  1  6
 15 17  1  0
 17 18  1  0
 18 19  1  0
 19 20  1  0
 20 21  1  0
 21 22  1  0
 22 23  1  0
 23 24  1  0
 24 25  1  1
 25 26  1  0
 26 27  2  0
 26 28  1  0
 28 29  2  0
 29 30  1  0
 30 31  2  0
 31 32  1  0
 32 33  2  0
 24 34  1  0
 34 35  2  0
 34 36  1  0
 36 37  1  0
 37 38  1  6
 37 39  1  0
 39 40  2  0
 39 41  1  0
 33 28  1  0
 41 13  1  0
M  END
$$$$
