
     RDKit          3D

 41 42  0  0  0  0  0  0  0  0999 V2000
  -13.6343  -36.0385  -15.3498 C   0  0  0  0  0  0  0  0  0  0  0  0
  -12.2923  -35.9603  -14.6485 C   0  0  0  0  0  0  0  0  0  0  0  0
  -12.2233  -37.1218  -13.6636 C   0  0  0  0  0  0  0  0  0  0  0  0
  -13.5042  -37.2357  -12.8736 C   0  0  0  0  0  0  0  0  0  0  0  0
  -13.4955  -38.4644  -12.1330 N   0  0  0  0  0  0  0  0  0  0  0  0
  -14.6090  -38.8176  -11.3260 C   0  0  0  0  0  0  0  0  0  0  0  0
  -15.6399  -38.1329  -11.3729 O   0  0  0  0  0  0  0  0  0  0  0  0
  -14.4891  -40.0484  -10.4217 C   0  0  2  0  0  0  0  0  0  0  0  0
  -13.9432  -41.1092  -11.3765 C   0  0  0  0  0  0  0  0  0  0  0  0
  -15.8562  -40.3942   -9.9087 C   0  0  0  0  0  0  0  0  0  0  0  0
  -16.7127  -39.3474   -9.3790 C   0  0  2  0  0  0  0  0  0  0  0  0
  -16.0919  -38.1068   -9.5990 O   0  0  0  0  0  0  0  0  0  0  0  0
  -17.4485  -39.4161   -8.1173 C   0  0  2  0  0  0  0  0  0  0  0  0
  -17.8752  -38.0945   -7.5352 C   0  0  0  0  0  0  0  0  0  0  0  0
  -19.4005  -37.9616   -7.4602 C   0  0  2  0  0  0  0  0  0  0  0  0
  -19.8565  -36.7046   -8.2138 C   0  0  0  0  0  0  0  0  0  0  0  0
  -19.9306  -37.9190   -6.0723 C   0  0  0  0  0  0  0  0  0  0  0  0
  -20.6648  -39.1583   -5.6560 C   0  0  0  0  0  0  0  0  0  0  0  0
  -22.1109  -39.1941   -6.1702 C   0  0  0  0  0  0  0  0  0  0  0  0
  -22.1382  -40.1584   -7.3297 C   0  0  0  0  0  0  0  0  0  0  0  0
  -23.2487  -41.1390   -7.3052 C   0  0  0  0  0  0  0  0  0  0  0  0
  -22.8326  -42.5658   -7.1383 C   0  0  0  0  0  0  0  0  0  0  0  0
  -22.0437  -42.8522   -5.9210 C   0  0  0  0  0  0  0  0  0  0  0  0
  -20.8545  -43.7496   -6.0972 C   0  0  2  0  0  0  0  0  0  0  0  0
  -21.1539  -45.1343   -5.7736 N   0  0  0  0  0  0  0  0  0  0  0  0
  -22.1803  -45.8781   -6.3791 C   0  0  0  0  0  0  0  0  0  0  0  0
  -22.8726  -45.3101   -7.2881 O   0  0  0  0  0  0  0  0  0  0  0  0
  -22.4312  -47.2408   -5.9752 C   0  0  0  0  0  0  0  0  0  0  0  0
  -21.7435  -47.8135   -4.9315 C   0  0  0  0  0  0  0  0  0  0  0  0
  -21.9797  -49.1407   -4.5494 C   0  0  0  0  0  0  0  0  0  0  0  0
  -22.8962  -49.8593   -5.2206 N   0  0  0  0  0  0  0  0  0  0  0  0
  -23.5891  -49.3375   -6.2467 C   0  0  0  0  0  0  0  0  0  0  0  0
  -23.3579  -48.0186   -6.6296 C   0  0  0  0  0  0  0  0  0  0  0  0
  -19.7021  -43.2514   -5.3112 C   0  0  0  0  0  0  0  0  0  0  0  0
  -19.6665  -43.5830   -4.0758 O   0  0  0  0  0  0  0  0  0  0  0  0
  -18.6581  -42.4513   -5.8045 N   0  0  0  0  0  0  0  0  0  0  0  0
  -17.8314  -42.6300   -6.9544 C   0  0  1  0  0  0  0  0  0  0  0  0
  -18.5181  -42.6872   -8.2783 C   0  0  0  0  0  0  0  0  0  0  0  0
  -16.7230  -41.6252   -7.0148 C   0  0  0  0  0  0  0  0  0  0  0  0
  -15.5509  -42.0923   -6.9981 O   0  0  0  0  0  0  0  0  0  0  0  0
  -16.8519  -40.2213   -7.0859 N   0  0  0  0  0  0  0  0  0  0  0  0
  1  2  1  0
  2  3  1  0
  3  4  1  0
  4  5  1  0
  5  6  1  0
  6  7  2  0
  6  8  1  0
  8  9  1  6
  8 10  1  0
 10 11  1  0
 11 12  1  1
 11 13  1  0
 13 14  1  1
 14 15  1  0
 15 16  1  1
 15 17  1  0
 17 18  1  0
 18 19  1  0
 19 20  1  0
 20 21  1  0
 21 22  1  0
 22 23  1  0
 23 24  1  0
 24 25  1  1
 25 26  1  0
 26 27  2  0
 26 28  1  0
 28 29  2  0
 29 30  1  0
 30 31  2  0
 31 32  1  0
 32 33  2  0
 24 34  1  0
 34 35  2  0
 34 36  1  0
 36 37  1  0
 37 38  1  6
 37 39  1  0
 39 40  2  0
 39 41  1  0
 33 28  1  0
 41 13  1  0
M  END
$$$$
