
     RDKit          3D

 41 42  0  0  0  0  0  0  0  0999 V2000
  -10.6395  -36.1166  -12.2884 C   0  0  0  0  0  0  0  0  0  0  0  0
  -11.9002  -36.6261  -12.9592 C   0  0  0  0  0  0  0  0  0  0  0  0
  -12.2157  -37.9922  -12.3609 C   0  0  0  0  0  0  0  0  0  0  0  0
  -13.3638  -37.9015  -11.3855 C   0  0  0  0  0  0  0  0  0  0  0  0
  -14.3898  -38.8256  -11.7752 N   0  0  0  0  0  0  0  0  0  0  0  0
  -15.6582  -38.7921  -11.1381 C   0  0  0  0  0  0  0  0  0  0  0  0
  -15.8469  -38.0155  -10.1921 O   0  0  0  0  0  0  0  0  0  0  0  0
  -16.7558  -39.7271  -11.6558 C   0  0  2  0  0  0  0  0  0  0  0  0
  -17.6576  -38.7762  -12.4417 C   0  0  0  0  0  0  0  0  0  0  0  0
  -17.4581  -40.3320  -10.4757 C   0  0  0  0  0  0  0  0  0  0  0  0
  -16.9854  -40.0463   -9.1323 C   0  0  2  0  0  0  0  0  0  0  0  0
  -15.7020  -40.5971   -8.9825 O   0  0  0  0  0  0  0  0  0  0  0  0
  -17.7970  -40.1194   -7.9182 C   0  0  2  0  0  0  0  0  0  0  0  0
  -18.1628  -38.7985   -7.2944 C   0  0  0  0  0  0  0  0  0  0  0  0
  -19.6767  -38.5577   -7.2972 C   0  0  2  0  0  0  0  0  0  0  0  0
  -19.9978  -37.2370   -8.0103 C   0  0  0  0  0  0  0  0  0  0  0  0
  -20.2831  -38.5409   -5.9403 C   0  0  0  0  0  0  0  0  0  0  0  0
  -21.1261  -39.7410   -5.6284 C   0  0  0  0  0  0  0  0  0  0  0  0
  -22.5384  -39.6467   -6.2229 C   0  0  0  0  0  0  0  0  0  0  0  0
  -22.5656  -40.5514   -7.4294 C   0  0  0  0  0  0  0  0  0  0  0  0
  -23.7420  -41.4479   -7.5159 C   0  0  0  0  0  0  0  0  0  0  0  0
  -23.4382  -42.9077   -7.3986 C   0  0  0  0  0  0  0  0  0  0  0  0
  -22.7444  -43.3075   -6.1557 C   0  0  0  0  0  0  0  0  0  0  0  0
  -21.6132  -44.2805   -6.3111 C   0  0  2  0  0  0  0  0  0  0  0  0
  -22.0281  -45.6530   -6.0749 N   0  0  0  0  0  0  0  0  0  0  0  0
  -21.4041  -46.7722   -6.6504 C   0  0  0  0  0  0  0  0  0  0  0  0
  -20.8362  -46.6224   -7.7833 O   0  0  0  0  0  0  0  0  0  0  0  0
  -21.4130  -48.0447   -5.9693 C   0  0  0  0  0  0  0  0  0  0  0  0
  -20.6935  -49.1144   -6.4472 C   0  0  0  0  0  0  0  0  0  0  0  0
  -20.7138  -50.3525   -5.7915 C   0  0  0  0  0  0  0  0  0  0  0  0
  -21.4524  -50.4880   -4.6766 N   0  0  0  0  0  0  0  0  0  0  0  0
  -22.1704  -49.4679   -4.1773 C   0  0  0  0  0  0  0  0  0  0  0  0
  -22.1528  -48.2354   -4.8256 C   0  0  0  0  0  0  0  0  0  0  0  0
  -20.4767  -43.9053   -5.4384 C   0  0  0  0  0  0  0  0  0  0  0  0
  -20.5372  -44.2956   -4.2213 O   0  0  0  0  0  0  0  0  0  0  0  0
  -19.3516  -43.1618   -5.8322 N   0  0  0  0  0  0  0  0  0  0  0  0
  -18.4735  -43.3472   -6.9422 C   0  0  1  0  0  0  0  0  0  0  0  0
  -19.0836  -43.2922   -8.3032 C   0  0  0  0  0  0  0  0  0  0  0  0
  -17.2953  -42.4246   -6.8904 C   0  0  0  0  0  0  0  0  0  0  0  0
  -16.1621  -42.9768   -6.8327 O   0  0  0  0  0  0  0  0  0  0  0  0
  -17.3203  -41.0133   -6.8974 N   0  0  0  0  0  0  0  0  0  0  0  0
  1  2  1  0
  2  3  1  0
  3  4  1  0
  4  5  1  0
  5  6  1  0
  6  7  2  0
  6  8  1  0
  8  9  1  1
  8 10  1  0
 10 11  1  0
 11 12  1  1
 11 13  1  0
 13 14  1  1
 14 15  1  0
 15 16  1  1
 15 17  1  0
 17 18  1  0
 18 19  1  0
 19 20  1  0
 20 21  1  0
 21 22  1  0
 22 23  1  0
 23 24  1  0
 24 25  1  1
 25 26  1  0
 26 27  2  0
 26 28  1  0
 28 29  2  0
 29 30  1  0
 30 31  2  0
 31 32  1  0
 32 33  2  0
 24 34  1  0
 34 35  2  0
 34 36  1  0
 36 37  1  0
 37 38  1  6
 37 39  1  0
 39 40  2  0
 39 41  1  0
 33 28  1  0
 41 13  1  0
M  END
$$$$
