
     RDKit          3D

 41 42  0  0  0  0  0  0  0  0999 V2000
   -9.5616  -38.7225  -13.3320 C   0  0  0  0  0  0  0  0  0  0  0  0
  -10.4711  -39.5115  -12.4105 C   0  0  0  0  0  0  0  0  0  0  0  0
  -11.8876  -39.4015  -12.9628 C   0  0  0  0  0  0  0  0  0  0  0  0
  -12.8549  -40.2075  -12.1307 C   0  0  0  0  0  0  0  0  0  0  0  0
  -13.7989  -39.3218  -11.5121 N   0  0  0  0  0  0  0  0  0  0  0  0
  -14.8500  -39.8454  -10.7141 C   0  0  0  0  0  0  0  0  0  0  0  0
  -14.9074  -41.0641  -10.5015 O   0  0  0  0  0  0  0  0  0  0  0  0
  -15.8808  -38.8689  -10.1390 C   0  0  2  0  0  0  0  0  0  0  0  0
  -15.0474  -37.6107   -9.8991 C   0  0  0  0  0  0  0  0  0  0  0  0
  -16.4196  -39.4461   -8.8630 C   0  0  0  0  0  0  0  0  0  0  0  0
  -17.7824  -39.1492   -8.4573 C   0  0  2  0  0  0  0  0  0  0  0  0
  -18.0117  -37.7743   -8.6301 O   0  0  0  0  0  0  0  0  0  0  0  0
  -18.4565  -39.7106   -7.2874 C   0  0  2  0  0  0  0  0  0  0  0  0
  -18.9597  -38.7115   -6.2793 C   0  0  0  0  0  0  0  0  0  0  0  0
  -20.4861  -38.7465   -6.1433 C   0  0  2  0  0  0  0  0  0  0  0  0
  -21.0700  -37.3525   -6.4106 C   0  0  0  0  0  0  0  0  0  0  0  0
  -20.9586  -39.2290   -4.8193 C   0  0  0  0  0  0  0  0  0  0  0  0
  -21.5759  -40.5952   -4.8469 C   0  0  0  0  0  0  0  0  0  0  0  0
  -23.0353  -40.5791   -5.3231 C   0  0  0  0  0  0  0  0  0  0  0  0
  -23.0367  -41.0858   -6.7437 C   0  0  0  0  0  0  0  0  0  0  0  0
  -24.0655  -42.1086   -7.0449 C   0  0  0  0  0  0  0  0  0  0  0  0
  -23.5329  -43.4639   -7.3863 C   0  0  0  0  0  0  0  0  0  0  0  0
  -22.6734  -44.0800   -6.3530 C   0  0  0  0  0  0  0  0  0  0  0  0
  -21.4264  -44.7547   -6.8437 C   0  0  2  0  0  0  0  0  0  0  0  0
  -21.6033  -46.1869   -7.0141 N   0  0  0  0  0  0  0  0  0  0  0  0
  -20.9061  -46.9574   -7.9594 C   0  0  0  0  0  0  0  0  0  0  0  0
  -20.7782  -46.4844   -9.1377 O   0  0  0  0  0  0  0  0  0  0  0  0
  -20.3571  -48.2413   -7.5943 C   0  0  0  0  0  0  0  0  0  0  0  0
  -20.1516  -49.2227   -8.5350 C   0  0  0  0  0  0  0  0  0  0  0  0
  -19.6305  -50.4729   -8.1762 C   0  0  0  0  0  0  0  0  0  0  0  0
  -19.3293  -50.7083   -6.8875 N   0  0  0  0  0  0  0  0  0  0  0  0
  -19.5159  -49.7767   -5.9374 C   0  0  0  0  0  0  0  0  0  0  0  0
  -20.0332  -48.5325   -6.2896 C   0  0  0  0  0  0  0  0  0  0  0  0
  -20.2840  -44.4573   -5.9489 C   0  0  0  0  0  0  0  0  0  0  0  0
  -20.1705  -45.1879   -4.9045 O   0  0  0  0  0  0  0  0  0  0  0  0
  -19.3272  -43.4483   -6.1492 N   0  0  0  0  0  0  0  0  0  0  0  0
  -18.5386  -43.1488   -7.3007 C   0  0  1  0  0  0  0  0  0  0  0  0
  -19.2744  -42.8085   -8.5539 C   0  0  0  0  0  0  0  0  0  0  0  0
  -17.5153  -42.0912   -7.0249 C   0  0  0  0  0  0  0  0  0  0  0  0
  -16.3108  -42.4311   -7.1857 O   0  0  0  0  0  0  0  0  0  0  0  0
  -17.7559  -40.7651   -6.6053 N   0  0  0  0  0  0  0  0  0  0  0  0
  1  2  1  0
  2  3  1  0
  3  4  1  0
  4  5  1  0
  5  6  1  0
  6  7  2  0
  6  8  1  0
  8  9  1  1
  8 10  1  0
 10 11  1  0
 11 12  1  1
 11 13  1  0
 13 14  1  1
 14 15  1  0
 15 16  1  1
 15 17  1  0
 17 18  1  0
 18 19  1  0
 19 20  1  0
 20 21  1  0
 21 22  1  0
 22 23  1  0
 23 24  1  0
 24 25  1  1
 25 26  1  0
 26 27  2  0
 26 28  1  0
 28 29  2  0
 29 30  1  0
 30 31  2  0
 31 32  1  0
 32 33  2  0
 24 34  1  0
 34 35  2  0
 34 36  1  0
 36 37  1  0
 37 38  1  6
 37 39  1  0
 39 40  2  0
 39 41  1  0
 33 28  1  0
 41 13  1  0
M  END
$$$$
