
     RDKit          3D

 41 42  0  0  0  0  0  0  0  0999 V2000
  -11.5258  -35.2499  -11.4190 C   0  0  0  0  0  0  0  0  0  0  0  0
  -12.9396  -35.0917  -11.9432 C   0  0  0  0  0  0  0  0  0  0  0  0
  -13.8254  -36.0598  -11.1673 C   0  0  0  0  0  0  0  0  0  0  0  0
  -13.4054  -37.4888  -11.4114 C   0  0  0  0  0  0  0  0  0  0  0  0
  -13.3328  -38.1814  -10.1571 N   0  0  0  0  0  0  0  0  0  0  0  0
  -14.3586  -39.0894   -9.7843 C   0  0  0  0  0  0  0  0  0  0  0  0
  -15.2650  -39.3509  -10.5867 O   0  0  0  0  0  0  0  0  0  0  0  0
  -14.2996  -39.7186   -8.3887 C   0  0  2  0  0  0  0  0  0  0  0  0
  -13.0711  -40.6223   -8.4845 C   0  0  0  0  0  0  0  0  0  0  0  0
  -15.5628  -40.4974   -8.1665 C   0  0  0  0  0  0  0  0  0  0  0  0
  -16.8478  -39.8256   -8.2532 C   0  0  2  0  0  0  0  0  0  0  0  0
  -16.6286  -38.4838   -8.6061 O   0  0  0  0  0  0  0  0  0  0  0  0
  -17.9614  -40.0100   -7.3237 C   0  0  2  0  0  0  0  0  0  0  0  0
  -18.5949  -38.7475   -6.8018 C   0  0  0  0  0  0  0  0  0  0  0  0
  -20.0602  -38.6156   -7.2321 C   0  0  2  0  0  0  0  0  0  0  0  0
  -20.2721  -37.2910   -7.9780 C   0  0  0  0  0  0  0  0  0  0  0  0
  -21.0255  -38.7020   -6.1052 C   0  0  0  0  0  0  0  0  0  0  0  0
  -21.8222  -39.9719   -6.0738 C   0  0  0  0  0  0  0  0  0  0  0  0
  -23.0109  -39.9526   -7.0450 C   0  0  0  0  0  0  0  0  0  0  0  0
  -22.6217  -40.8029   -8.2285 C   0  0  0  0  0  0  0  0  0  0  0  0
  -23.6486  -41.7765   -8.6674 C   0  0  0  0  0  0  0  0  0  0  0  0
  -23.2732  -43.2145   -8.5002 C   0  0  0  0  0  0  0  0  0  0  0  0
  -22.9300  -43.6182   -7.1198 C   0  0  0  0  0  0  0  0  0  0  0  0
  -21.7260  -44.5001   -6.9666 C   0  0  2  0  0  0  0  0  0  0  0  0
  -22.0781  -45.9078   -6.8891 N   0  0  0  0  0  0  0  0  0  0  0  0
  -21.4464  -46.9176   -7.6338 C   0  0  0  0  0  0  0  0  0  0  0  0
  -20.8900  -46.5885   -8.7340 O   0  0  0  0  0  0  0  0  0  0  0  0
  -21.4352  -48.2795   -7.1563 C   0  0  0  0  0  0  0  0  0  0  0  0
  -22.0910  -48.6358   -6.0016 C   0  0  0  0  0  0  0  0  0  0  0  0
  -22.0681  -49.9561   -5.5330 C   0  0  0  0  0  0  0  0  0  0  0  0
  -21.3904  -50.8840   -6.2306 N   0  0  0  0  0  0  0  0  0  0  0  0
  -20.7356  -50.5770   -7.3630 C   0  0  0  0  0  0  0  0  0  0  0  0
  -20.7561  -49.2660   -7.8327 C   0  0  0  0  0  0  0  0  0  0  0  0
  -20.9177  -44.0835   -5.7973 C   0  0  0  0  0  0  0  0  0  0  0  0
  -21.2888  -44.5305   -4.6572 O   0  0  0  0  0  0  0  0  0  0  0  0
  -19.7914  -43.2449   -5.8366 N   0  0  0  0  0  0  0  0  0  0  0  0
  -18.6227  -43.3178   -6.6530 C   0  0  1  0  0  0  0  0  0  0  0  0
  -18.8245  -43.2465   -8.1301 C   0  0  0  0  0  0  0  0  0  0  0  0
  -17.5862  -42.3166   -6.2463 C   0  0  0  0  0  0  0  0  0  0  0  0
  -16.4751  -42.7883   -5.8790 O   0  0  0  0  0  0  0  0  0  0  0  0
  -17.7227  -40.9117   -6.2292 N   0  0  0  0  0  0  0  0  0  0  0  0
  1  2  1  0
  2  3  1  0
  3  4  1  0
  4  5  1  0
  5  6  1  0
  6  7  2  0
  6  8  1  0
  8  9  1  6
  8 10  1  0
 10 11  1  0
 11 12  1  1
 11 13  1  0
 13 14  1  1
 14 15  1  0
 15 16  1  1
 15 17  1  0
 17 18  1  0
 18 19  1  0
 19 20  1  0
 20 21  1  0
 21 22  1  0
 22 23  1  0
 23 24  1  0
 24 25  1  1
 25 26  1  0
 26 27  2  0
 26 28  1  0
 28 29  2  0
 29 30  1  0
 30 31  2  0
 31 32  1  0
 32 33  2  0
 24 34  1  0
 34 35  2  0
 34 36  1  0
 36 37  1  0
 37 38  1  6
 37 39  1  0
 39 40  2  0
 39 41  1  0
 33 28  1  0
 41 13  1  0
M  END
$$$$
