
     RDKit          3D

 41 42  0  0  0  0  0  0  0  0999 V2000
  -13.1666  -34.2556  -13.3646 C   0  0  0  0  0  0  0  0  0  0  0  0
  -13.3558  -35.6726  -12.8595 C   0  0  0  0  0  0  0  0  0  0  0  0
  -13.3756  -35.6158  -11.3363 C   0  0  0  0  0  0  0  0  0  0  0  0
  -14.5228  -36.4244  -10.7814 C   0  0  0  0  0  0  0  0  0  0  0  0
  -14.2995  -37.8143  -11.0585 N   0  0  0  0  0  0  0  0  0  0  0  0
  -15.2134  -38.7912  -10.5828 C   0  0  0  0  0  0  0  0  0  0  0  0
  -16.3570  -38.8402  -11.0556 O   0  0  0  0  0  0  0  0  0  0  0  0
  -14.7402  -39.7586   -9.4932 C   0  0  2  0  0  0  0  0  0  0  0  0
  -13.6146  -40.5199  -10.1921 C   0  0  0  0  0  0  0  0  0  0  0  0
  -15.8872  -40.6525   -9.1230 C   0  0  0  0  0  0  0  0  0  0  0  0
  -17.1665  -40.0690   -8.7584 C   0  0  2  0  0  0  0  0  0  0  0  0
  -17.1532  -38.7082   -9.1059 O   0  0  0  0  0  0  0  0  0  0  0  0
  -17.9020  -40.3494   -7.5261 C   0  0  2  0  0  0  0  0  0  0  0  0
  -18.2854  -39.1473   -6.7043 C   0  0  0  0  0  0  0  0  0  0  0  0
  -19.8055  -38.9835   -6.5942 C   0  0  2  0  0  0  0  0  0  0  0  0
  -20.2225  -37.5944   -7.0964 C   0  0  0  0  0  0  0  0  0  0  0  0
  -20.3317  -39.1846   -5.2188 C   0  0  0  0  0  0  0  0  0  0  0  0
  -21.1043  -40.4565   -5.0356 C   0  0  0  0  0  0  0  0  0  0  0  0
  -22.5516  -40.3508   -5.5365 C   0  0  0  0  0  0  0  0  0  0  0  0
  -22.6116  -41.0801   -6.8553 C   0  0  0  0  0  0  0  0  0  0  0  0
  -23.7527  -42.0131   -7.0059 C   0  0  0  0  0  0  0  0  0  0  0  0
  -23.3820  -43.4582   -7.1114 C   0  0  0  0  0  0  0  0  0  0  0  0
  -22.6006  -43.9913   -5.9750 C   0  0  0  0  0  0  0  0  0  0  0  0
  -21.4408  -44.8764   -6.3247 C   0  0  2  0  0  0  0  0  0  0  0  0
  -21.7837  -46.2872   -6.2629 N   0  0  0  0  0  0  0  0  0  0  0  0
  -21.4958  -47.2107   -7.2815 C   0  0  0  0  0  0  0  0  0  0  0  0
  -21.5623  -46.8065   -8.4901 O   0  0  0  0  0  0  0  0  0  0  0  0
  -21.1372  -48.5702   -6.9555 C   0  0  0  0  0  0  0  0  0  0  0  0
  -20.7109  -48.9124   -5.6940 C   0  0  0  0  0  0  0  0  0  0  0  0
  -20.3510  -50.2304   -5.3832 C   0  0  0  0  0  0  0  0  0  0  0  0
  -20.4267  -51.1702   -6.3412 N   0  0  0  0  0  0  0  0  0  0  0  0
  -20.8374  -50.8772   -7.5865 C   0  0  0  0  0  0  0  0  0  0  0  0
  -21.1965  -49.5686   -7.8998 C   0  0  0  0  0  0  0  0  0  0  0  0
  -20.2719  -44.5697   -5.4682 C   0  0  0  0  0  0  0  0  0  0  0  0
  -20.2448  -45.1272   -4.3167 O   0  0  0  0  0  0  0  0  0  0  0  0
  -19.2037  -43.7243   -5.8114 N   0  0  0  0  0  0  0  0  0  0  0  0
  -18.3851  -43.7106   -6.9807 C   0  0  1  0  0  0  0  0  0  0  0  0
  -19.0755  -43.4981   -8.2867 C   0  0  0  0  0  0  0  0  0  0  0  0
  -17.2453  -42.7470   -6.8609 C   0  0  0  0  0  0  0  0  0  0  0  0
  -16.0887  -43.2451   -6.9406 O   0  0  0  0  0  0  0  0  0  0  0  0
  -17.3296  -41.3513   -6.6677 N   0  0  0  0  0  0  0  0  0  0  0  0
  1  2  1  0
  2  3  1  0
  3  4  1  0
  4  5  1  0
  5  6  1  0
  6  7  2  0
  6  8  1  0
  8  9  1  6
  8 10  1  0
 10 11  1  0
 11 12  1  1
 11 13  1  0
 13 14  1  1
 14 15  1  0
 15 16  1  1
 15 17  1  0
 17 18  1  0
 18 19  1  0
 19 20  1  0
 20 21  1  0
 21 22  1  0
 22 23  1  0
 23 24  1  0
 24 25  1  1
 25 26  1  0
 26 27  2  0
 26 28  1  0
 28 29  2  0
 29 30  1  0
 30 31  2  0
 31 32  1  0
 32 33  2  0
 24 34  1  0
 34 35  2  0
 34 36  1  0
 36 37  1  0
 37 38  1  6
 37 39  1  0
 39 40  2  0
 39 41  1  0
 33 28  1  0
 41 13  1  0
M  END
$$$$
