
     RDKit          3D

 42 45  0  0  0  0  0  0  0  0999 V2000
  -19.6912  -41.9373   -9.1806 C   0  0  0  0  0  0  0  0  0  0  0  0
  -18.6510  -42.7968   -8.5793 C   0  0  2  0  0  0  0  0  0  0  0  0
  -19.1830  -43.8127   -7.5813 C   0  0  0  0  0  0  0  0  0  0  0  0
  -19.4582  -43.2953   -6.2489 C   0  0  0  0  0  0  0  0  0  0  0  0
  -18.5823  -42.5890   -5.6399 O   0  0  0  0  0  0  0  0  0  0  0  0
  -20.6573  -43.4972   -5.5049 N   0  0  0  0  0  0  0  0  0  0  0  0
  -21.7907  -44.2508   -5.9416 C   0  0  0  0  0  0  0  0  0  0  0  0
  -22.8473  -43.3539   -6.5808 C   0  0  0  0  0  0  0  0  0  0  0  0
  -23.2290  -42.2359   -5.6136 C   0  0  0  0  0  0  0  0  0  0  0  0
  -23.8925  -41.0980   -6.3127 C   0  0  0  0  0  0  0  0  0  0  0  0
  -23.1042  -40.0184   -6.4962 O   0  0  0  0  0  0  0  0  0  0  0  0
  -21.8831  -39.5597   -6.8841 C   0  0  0  0  0  0  0  0  0  0  0  0
  -20.6104  -39.9221   -6.4487 C   0  0  0  0  0  0  0  0  0  0  0  0
  -19.5357  -39.2938   -7.0162 C   0  0  0  0  0  0  0  0  0  0  0  0
  -18.0654  -39.4247   -6.8057 C   0  0  0  0  0  0  0  0  0  0  0  0
  -17.2457  -39.5856   -8.0636 C   0  0  2  0  0  0  0  0  0  0  0  0
  -16.8242  -40.9242   -8.3708 N   0  0  0  0  0  0  0  0  0  0  0  0
  -17.4066  -42.1739   -8.1285 C   0  0  0  0  0  0  0  0  0  0  0  0
  -16.7211  -42.9714   -7.3473 O   0  0  0  0  0  0  0  0  0  0  0  0
  -16.0062  -38.6878   -8.0140 C   0  0  2  0  0  0  0  0  0  0  0  0
  -16.4985  -37.3563   -8.2558 O   0  0  0  0  0  0  0  0  0  0  0  0
  -15.0353  -38.9121   -9.1571 C   0  0  0  0  0  0  0  0  0  0  0  0
  -13.6698  -39.0783   -8.8515 N   0  0  0  0  0  0  0  0  0  0  0  0
  -12.7508  -38.6849   -9.9067 C   0  0  0  0  0  0  0  0  0  0  0  0
  -12.4265  -37.2355   -9.7747 C   0  0  0  0  0  0  0  0  0  0  0  0
  -11.2034  -36.8590   -9.0410 C   0  0  0  0  0  0  0  0  0  0  0  0
  -10.0418  -37.8097   -9.1432 C   0  0  0  0  0  0  0  0  0  0  0  0
  -10.3591  -38.7035  -10.3584 C   0  0  0  0  0  0  0  0  0  0  0  0
  -11.5203  -39.5633   -9.9218 C   0  0  0  0  0  0  0  0  0  0  0  0
  -13.4501  -38.8603  -11.2004 C   0  0  0  0  0  0  0  0  0  0  0  0
  -13.5949  -37.7998  -12.0728 C   0  0  0  0  0  0  0  0  0  0  0  0
  -14.2644  -37.8781  -13.2851 C   0  0  0  0  0  0  0  0  0  0  0  0
  -14.8217  -39.0865  -13.6479 C   0  0  0  0  0  0  0  0  0  0  0  0
  -14.7108  -40.1807  -12.8211 C   0  0  0  0  0  0  0  0  0  0  0  0
  -14.0200  -40.0450  -11.6001 C   0  0  0  0  0  0  0  0  0  0  0  0
  -14.3821  -36.6896  -14.1830 C   0  0  0  0  0  0  0  0  0  0  0  0
  -12.9879  -36.2546  -14.5884 C   0  0  0  0  0  0  0  0  0  0  0  0
  -15.1435  -37.0525  -15.4340 C   0  0  0  0  0  0  0  0  0  0  0  0
  -15.1250  -35.5641  -13.4887 C   0  0  0  0  0  0  0  0  0  0  0  0
  -19.7397  -38.3042   -8.0152 C   0  0  0  0  0  0  0  0  0  0  0  0
  -20.9724  -37.9232   -8.4659 C   0  0  0  0  0  0  0  0  0  0  0  0
  -22.0336  -38.5686   -7.8815 C   0  0  0  0  0  0  0  0  0  0  0  0
  2  1  1  1
  2  3  1  0
  3  4  1  0
  4  5  2  0
  4  6  1  0
  6  7  1  0
  7  8  1  0
  8  9  1  0
  9 10  1  0
 10 11  1  0
 11 12  1  0
 12 13  1  0
 13 14  2  0
 14 15  1  0
 16 15  1  1
 16 17  1  0
 17 18  1  0
 18 19  2  0
 16 20  1  0
 20 21  1  6
 20 22  1  0
 22 23  1  0
 23 24  1  0
 24 25  1  0
 25 26  1  0
 26 27  1  0
 27 28  1  0
 28 29  1  0
 24 30  1  0
 30 31  2  0
 31 32  1  0
 32 33  2  0
 33 34  1  0
 34 35  2  0
 32 36  1  0
 36 37  1  0
 36 38  1  0
 36 39  1  0
 14 40  1  0
 40 41  2  0
 41 42  1  0
 18  2  1  0
 29 24  1  0
 35 30  1  0
 42 12  2  0
M  END
$$$$
