
     RDKit          3D

 42 45  0  0  0  0  0  0  0  0999 V2000
  -20.3514  -42.0328   -8.9485 C   0  0  0  0  0  0  0  0  0  0  0  0
  -19.2071  -42.9348   -8.7053 C   0  0  2  0  0  0  0  0  0  0  0  0
  -19.5266  -44.1172   -7.8049 C   0  0  0  0  0  0  0  0  0  0  0  0
  -19.5422  -43.8301   -6.3779 C   0  0  0  0  0  0  0  0  0  0  0  0
  -18.5707  -43.1954   -5.8391 O   0  0  0  0  0  0  0  0  0  0  0  0
  -20.5723  -44.1959   -5.4628 N   0  0  0  0  0  0  0  0  0  0  0  0
  -21.7625  -44.9149   -5.7937 C   0  0  0  0  0  0  0  0  0  0  0  0
  -22.9307  -43.9706   -6.0643 C   0  0  0  0  0  0  0  0  0  0  0  0
  -23.1266  -43.0372   -4.8720 C   0  0  0  0  0  0  0  0  0  0  0  0
  -23.9229  -41.8299   -5.2358 C   0  0  0  0  0  0  0  0  0  0  0  0
  -23.1943  -40.7042   -5.3863 O   0  0  0  0  0  0  0  0  0  0  0  0
  -22.0757  -40.1411   -5.9186 C   0  0  0  0  0  0  0  0  0  0  0  0
  -20.7396  -40.5171   -5.7987 C   0  0  0  0  0  0  0  0  0  0  0  0
  -19.8009  -39.7639   -6.4493 C   0  0  0  0  0  0  0  0  0  0  0  0
  -18.3167  -39.8677   -6.5467 C   0  0  0  0  0  0  0  0  0  0  0  0
  -17.7554  -39.7932   -7.9466 C   0  0  2  0  0  0  0  0  0  0  0  0
  -17.3904  -41.0478   -8.5437 N   0  0  0  0  0  0  0  0  0  0  0  0
  -17.9041  -42.3425   -8.4035 C   0  0  0  0  0  0  0  0  0  0  0  0
  -17.0733  -43.2262   -7.9085 O   0  0  0  0  0  0  0  0  0  0  0  0
  -16.5375  -38.8660   -7.9870 C   0  0  2  0  0  0  0  0  0  0  0  0
  -17.0803  -37.5417   -8.1467 O   0  0  0  0  0  0  0  0  0  0  0  0
  -15.6716  -39.0375   -9.2200 C   0  0  0  0  0  0  0  0  0  0  0  0
  -14.7119  -38.0462   -9.5060 N   0  0  0  0  0  0  0  0  0  0  0  0
  -14.4804  -37.8038  -10.9204 C   0  0  0  0  0  0  0  0  0  0  0  0
  -15.7190  -37.2561  -11.5445 C   0  0  0  0  0  0  0  0  0  0  0  0
  -15.8490  -35.7918  -11.6667 C   0  0  0  0  0  0  0  0  0  0  0  0
  -14.5756  -35.0231  -11.8932 C   0  0  0  0  0  0  0  0  0  0  0  0
  -13.5481  -36.0743  -12.3572 C   0  0  0  0  0  0  0  0  0  0  0  0
  -13.2729  -36.9202  -11.1379 C   0  0  0  0  0  0  0  0  0  0  0  0
  -14.2088  -39.1105  -11.5621 C   0  0  0  0  0  0  0  0  0  0  0  0
  -13.3606  -40.0244  -10.9687 C   0  0  0  0  0  0  0  0  0  0  0  0
  -13.0323  -41.2525  -11.5237 C   0  0  0  0  0  0  0  0  0  0  0  0
  -13.5836  -41.5880  -12.7427 C   0  0  0  0  0  0  0  0  0  0  0  0
  -14.4366  -40.7195  -13.3838 C   0  0  0  0  0  0  0  0  0  0  0  0
  -14.7358  -39.4841  -12.7748 C   0  0  0  0  0  0  0  0  0  0  0  0
  -12.1074  -42.1956  -10.8252 C   0  0  0  0  0  0  0  0  0  0  0  0
  -12.3322  -43.5877  -11.3811 C   0  0  0  0  0  0  0  0  0  0  0  0
  -10.6722  -41.8111  -11.0873 C   0  0  0  0  0  0  0  0  0  0  0  0
  -12.3384  -42.1623   -9.3265 C   0  0  0  0  0  0  0  0  0  0  0  0
  -20.2032  -38.6367   -7.2152 C   0  0  0  0  0  0  0  0  0  0  0  0
  -21.5032  -38.2384   -7.3544 C   0  0  0  0  0  0  0  0  0  0  0  0
  -22.4253  -39.0106   -6.6929 C   0  0  0  0  0  0  0  0  0  0  0  0
  2  1  1  1
  2  3  1  0
  3  4  1  0
  4  5  2  0
  4  6  1  0
  6  7  1  0
  7  8  1  0
  8  9  1  0
  9 10  1  0
 10 11  1  0
 11 12  1  0
 12 13  1  0
 13 14  2  0
 14 15  1  0
 16 15  1  1
 16 17  1  0
 17 18  1  0
 18 19  2  0
 16 20  1  0
 20 21  1  6
 20 22  1  0
 22 23  1  0
 23 24  1  0
 24 25  1  0
 25 26  1  0
 26 27  1  0
 27 28  1  0
 28 29  1  0
 24 30  1  0
 30 31  2  0
 31 32  1  0
 32 33  2  0
 33 34  1  0
 34 35  2  0
 32 36  1  0
 36 37  1  0
 36 38  1  0
 36 39  1  0
 14 40  1  0
 40 41  2  0
 41 42  1  0
 18  2  1  0
 29 24  1  0
 35 30  1  0
 42 12  2  0
M  END
$$$$
