
     RDKit          3D

 42 45  0  0  0  0  0  0  0  0999 V2000
  -20.3422  -41.6906   -9.0410 C   0  0  0  0  0  0  0  0  0  0  0  0
  -19.2178  -42.6145   -8.7872 C   0  0  2  0  0  0  0  0  0  0  0  0
  -19.6045  -43.8714   -8.0246 C   0  0  0  0  0  0  0  0  0  0  0  0
  -19.7369  -43.7126   -6.5838 C   0  0  0  0  0  0  0  0  0  0  0  0
  -18.8149  -43.1317   -5.9135 O   0  0  0  0  0  0  0  0  0  0  0  0
  -20.8364  -44.1551   -5.7915 N   0  0  0  0  0  0  0  0  0  0  0  0
  -21.9930  -44.8379   -6.2805 C   0  0  0  0  0  0  0  0  0  0  0  0
  -23.1391  -43.8694   -6.5598 C   0  0  0  0  0  0  0  0  0  0  0  0
  -23.4348  -43.0454   -5.3089 C   0  0  0  0  0  0  0  0  0  0  0  0
  -24.2038  -41.8078   -5.6271 C   0  0  0  0  0  0  0  0  0  0  0  0
  -23.4699  -40.6756   -5.6170 O   0  0  0  0  0  0  0  0  0  0  0  0
  -22.3140  -40.0710   -6.0045 C   0  0  0  0  0  0  0  0  0  0  0  0
  -20.9906  -40.4605   -5.8106 C   0  0  0  0  0  0  0  0  0  0  0  0
  -20.0052  -39.6553   -6.3132 C   0  0  0  0  0  0  0  0  0  0  0  0
  -18.5176  -39.7549   -6.2987 C   0  0  0  0  0  0  0  0  0  0  0  0
  -17.8449  -39.5577   -7.6362 C   0  0  2  0  0  0  0  0  0  0  0  0
  -17.4277  -40.7554   -8.3112 N   0  0  0  0  0  0  0  0  0  0  0  0
  -17.9459  -42.0556   -8.3290 C   0  0  0  0  0  0  0  0  0  0  0  0
  -17.1545  -42.9827   -7.8490 O   0  0  0  0  0  0  0  0  0  0  0  0
  -16.6315  -38.6346   -7.4949 C   0  0  2  0  0  0  0  0  0  0  0  0
  -17.0518  -37.6005   -6.5850 O   0  0  0  0  0  0  0  0  0  0  0  0
  -16.2886  -37.8679   -8.7575 C   0  0  0  0  0  0  0  0  0  0  0  0
  -15.9270  -38.5994   -9.9063 N   0  0  0  0  0  0  0  0  0  0  0  0
  -15.0084  -37.9198  -10.8046 C   0  0  0  0  0  0  0  0  0  0  0  0
  -15.6858  -37.6510  -12.1054 C   0  0  0  0  0  0  0  0  0  0  0  0
  -16.3145  -36.3313  -12.3042 C   0  0  0  0  0  0  0  0  0  0  0  0
  -15.6472  -35.1634  -11.6302 C   0  0  0  0  0  0  0  0  0  0  0  0
  -14.2328  -35.6603  -11.2712 C   0  0  0  0  0  0  0  0  0  0  0  0
  -14.4389  -36.6714  -10.1697 C   0  0  0  0  0  0  0  0  0  0  0  0
  -13.8835  -38.8429  -11.0802 C   0  0  0  0  0  0  0  0  0  0  0  0
  -12.6232  -38.5885  -10.5766 C   0  0  0  0  0  0  0  0  0  0  0  0
  -11.5152  -39.3871  -10.8184 C   0  0  0  0  0  0  0  0  0  0  0  0
  -11.6750  -40.5058  -11.6093 C   0  0  0  0  0  0  0  0  0  0  0  0
  -12.9065  -40.8131  -12.1401 C   0  0  0  0  0  0  0  0  0  0  0  0
  -13.9988  -39.9666  -11.8627 C   0  0  0  0  0  0  0  0  0  0  0  0
  -10.1788  -39.0533  -10.2394 C   0  0  0  0  0  0  0  0  0  0  0  0
   -9.2057  -38.8251  -11.3789 C   0  0  0  0  0  0  0  0  0  0  0  0
  -10.2617  -37.7822   -9.4307 C   0  0  0  0  0  0  0  0  0  0  0  0
   -9.6979  -40.1635   -9.3246 C   0  0  0  0  0  0  0  0  0  0  0  0
  -20.3486  -38.4631   -7.0056 C   0  0  0  0  0  0  0  0  0  0  0  0
  -21.6345  -38.0497   -7.2139 C   0  0  0  0  0  0  0  0  0  0  0  0
  -22.6042  -38.8748   -6.7008 C   0  0  0  0  0  0  0  0  0  0  0  0
  2  1  1  1
  2  3  1  0
  3  4  1  0
  4  5  2  0
  4  6  1  0
  6  7  1  0
  7  8  1  0
  8  9  1  0
  9 10  1  0
 10 11  1  0
 11 12  1  0
 12 13  1  0
 13 14  2  0
 14 15  1  0
 16 15  1  1
 16 17  1  0
 17 18  1  0
 18 19  2  0
 16 20  1  0
 20 21  1  1
 20 22  1  0
 22 23  1  0
 23 24  1  0
 24 25  1  0
 25 26  1  0
 26 27  1  0
 27 28  1  0
 28 29  1  0
 24 30  1  0
 30 31  2  0
 31 32  1  0
 32 33  2  0
 33 34  1  0
 34 35  2  0
 32 36  1  0
 36 37  1  0
 36 38  1  0
 36 39  1  0
 14 40  1  0
 40 41  2  0
 41 42  1  0
 18  2  1  0
 29 24  1  0
 35 30  1  0
 42 12  2  0
M  END
$$$$
