
     RDKit          3D

 42 45  0  0  0  0  0  0  0  0999 V2000
  -20.1914  -42.3760   -8.5018 C   0  0  0  0  0  0  0  0  0  0  0  0
  -19.1605  -43.3051   -7.9955 C   0  0  2  0  0  0  0  0  0  0  0  0
  -19.6719  -44.3037   -6.9698 C   0  0  0  0  0  0  0  0  0  0  0  0
  -19.8093  -43.7925   -5.6138 C   0  0  0  0  0  0  0  0  0  0  0  0
  -18.8470  -43.1491   -5.0687 O   0  0  0  0  0  0  0  0  0  0  0  0
  -20.9557  -43.9353   -4.7786 N   0  0  0  0  0  0  0  0  0  0  0  0
  -22.1634  -44.6134   -5.1319 C   0  0  0  0  0  0  0  0  0  0  0  0
  -23.2114  -43.6455   -5.6744 C   0  0  0  0  0  0  0  0  0  0  0  0
  -23.4474  -42.5227   -4.6670 C   0  0  0  0  0  0  0  0  0  0  0  0
  -24.0945  -41.3364   -5.2978 C   0  0  0  0  0  0  0  0  0  0  0  0
  -23.2597  -40.3025   -5.5315 O   0  0  0  0  0  0  0  0  0  0  0  0
  -22.0477  -39.9105   -6.0105 C   0  0  0  0  0  0  0  0  0  0  0  0
  -20.7687  -40.3544   -5.6824 C   0  0  0  0  0  0  0  0  0  0  0  0
  -19.7064  -39.7816   -6.3268 C   0  0  0  0  0  0  0  0  0  0  0  0
  -18.2346  -40.0025   -6.2360 C   0  0  0  0  0  0  0  0  0  0  0  0
  -17.5281  -40.1912   -7.5572 C   0  0  2  0  0  0  0  0  0  0  0  0
  -17.2136  -41.5472   -7.9123 N   0  0  0  0  0  0  0  0  0  0  0  0
  -17.8491  -42.7641   -7.6385 C   0  0  0  0  0  0  0  0  0  0  0  0
  -17.1532  -43.6132   -6.9237 O   0  0  0  0  0  0  0  0  0  0  0  0
  -16.2369  -39.3691   -7.5966 C   0  0  2  0  0  0  0  0  0  0  0  0
  -16.6657  -38.0074   -7.7860 O   0  0  0  0  0  0  0  0  0  0  0  0
  -15.3733  -39.6340   -8.8147 C   0  0  0  0  0  0  0  0  0  0  0  0
  -14.0142  -39.9479   -8.6151 N   0  0  0  0  0  0  0  0  0  0  0  0
  -13.3036  -40.3889   -9.8039 C   0  0  0  0  0  0  0  0  0  0  0  0
  -11.8355  -40.2256   -9.6000 C   0  0  0  0  0  0  0  0  0  0  0  0
  -11.0639  -41.3899   -9.1256 C   0  0  0  0  0  0  0  0  0  0  0  0
  -11.5413  -42.7412   -9.5837 C   0  0  0  0  0  0  0  0  0  0  0  0
  -12.4685  -42.4556  -10.7816 C   0  0  0  0  0  0  0  0  0  0  0  0
  -13.6903  -41.7999  -10.1856 C   0  0  0  0  0  0  0  0  0  0  0  0
  -13.6923  -39.4940  -10.9181 C   0  0  0  0  0  0  0  0  0  0  0  0
  -13.4642  -38.1343  -10.8425 C   0  0  0  0  0  0  0  0  0  0  0  0
  -13.8292  -37.2302  -11.8291 C   0  0  0  0  0  0  0  0  0  0  0  0
  -14.4588  -37.7122  -12.9577 C   0  0  0  0  0  0  0  0  0  0  0  0
  -14.7137  -39.0576  -13.0919 C   0  0  0  0  0  0  0  0  0  0  0  0
  -14.3216  -39.9320  -12.0584 C   0  0  0  0  0  0  0  0  0  0  0  0
  -13.5498  -35.7696  -11.6829 C   0  0  0  0  0  0  0  0  0  0  0  0
  -14.6523  -34.9981  -12.3808 C   0  0  0  0  0  0  0  0  0  0  0  0
  -13.5536  -35.3796  -10.2254 C   0  0  0  0  0  0  0  0  0  0  0  0
  -12.1908  -35.4229  -12.2603 C   0  0  0  0  0  0  0  0  0  0  0  0
  -19.9289  -38.7657   -7.2949 C   0  0  0  0  0  0  0  0  0  0  0  0
  -21.1682  -38.3054   -7.6413 C   0  0  0  0  0  0  0  0  0  0  0  0
  -22.2168  -38.8963   -6.9813 C   0  0  0  0  0  0  0  0  0  0  0  0
  2  1  1  1
  2  3  1  0
  3  4  1  0
  4  5  2  0
  4  6  1  0
  6  7  1  0
  7  8  1  0
  8  9  1  0
  9 10  1  0
 10 11  1  0
 11 12  1  0
 12 13  1  0
 13 14  2  0
 14 15  1  0
 16 15  1  1
 16 17  1  0
 17 18  1  0
 18 19  2  0
 16 20  1  0
 20 21  1  6
 20 22  1  0
 22 23  1  0
 23 24  1  0
 24 25  1  0
 25 26  1  0
 26 27  1  0
 27 28  1  0
 28 29  1  0
 24 30  1  0
 30 31  2  0
 31 32  1  0
 32 33  2  0
 33 34  1  0
 34 35  2  0
 32 36  1  0
 36 37  1  0
 36 38  1  0
 36 39  1  0
 14 40  1  0
 40 41  2  0
 41 42  1  0
 18  2  1  0
 29 24  1  0
 35 30  1  0
 42 12  2  0
M  END
$$$$
