
     RDKit          3D

 42 45  0  0  0  0  0  0  0  0999 V2000
  -20.0182  -41.6544   -8.9943 C   0  0  0  0  0  0  0  0  0  0  0  0
  -19.1116  -42.6759   -8.4315 C   0  0  2  0  0  0  0  0  0  0  0  0
  -19.7972  -43.6854   -7.5249 C   0  0  0  0  0  0  0  0  0  0  0  0
  -20.0533  -43.2322   -6.1655 C   0  0  0  0  0  0  0  0  0  0  0  0
  -19.1196  -42.6841   -5.4839 O   0  0  0  0  0  0  0  0  0  0  0  0
  -21.2930  -43.3357   -5.4693 N   0  0  0  0  0  0  0  0  0  0  0  0
  -22.4938  -43.9108   -5.9893 C   0  0  0  0  0  0  0  0  0  0  0  0
  -23.4109  -42.8476   -6.5877 C   0  0  0  0  0  0  0  0  0  0  0  0
  -23.6869  -41.7613   -5.5509 C   0  0  0  0  0  0  0  0  0  0  0  0
  -24.1827  -40.5040   -6.1811 C   0  0  0  0  0  0  0  0  0  0  0  0
  -23.2631  -39.5201   -6.2644 O   0  0  0  0  0  0  0  0  0  0  0  0
  -21.9827  -39.1901   -6.5860 C   0  0  0  0  0  0  0  0  0  0  0  0
  -20.7792  -39.7368   -6.1460 C   0  0  0  0  0  0  0  0  0  0  0  0
  -19.6172  -39.2082   -6.6380 C   0  0  0  0  0  0  0  0  0  0  0  0
  -18.1819  -39.5344   -6.4001 C   0  0  0  0  0  0  0  0  0  0  0  0
  -17.3448  -39.7072   -7.6450 C   0  0  2  0  0  0  0  0  0  0  0  0
  -17.0789  -41.0630   -8.0389 N   0  0  0  0  0  0  0  0  0  0  0  0
  -17.8169  -42.2448   -7.9043 C   0  0  0  0  0  0  0  0  0  0  0  0
  -17.2609  -43.1737   -7.1665 O   0  0  0  0  0  0  0  0  0  0  0  0
  -16.0079  -38.9754   -7.4977 C   0  0  2  0  0  0  0  0  0  0  0  0
  -16.3442  -37.5752   -7.5095 O   0  0  0  0  0  0  0  0  0  0  0  0
  -15.0887  -39.1220   -8.6949 C   0  0  0  0  0  0  0  0  0  0  0  0
  -14.5861  -40.4028   -8.9989 N   0  0  0  0  0  0  0  0  0  0  0  0
  -13.8205  -40.4866  -10.2316 C   0  0  0  0  0  0  0  0  0  0  0  0
  -12.3685  -40.3274   -9.9319 C   0  0  0  0  0  0  0  0  0  0  0  0
  -11.5569  -41.5456   -9.7489 C   0  0  0  0  0  0  0  0  0  0  0  0
  -11.9559  -42.7449  -10.5652 C   0  0  0  0  0  0  0  0  0  0  0  0
  -12.8598  -42.1882  -11.6829 C   0  0  0  0  0  0  0  0  0  0  0  0
  -14.1284  -41.7602  -10.9862 C   0  0  0  0  0  0  0  0  0  0  0  0
  -14.2181  -39.3445  -11.0864 C   0  0  0  0  0  0  0  0  0  0  0  0
  -13.3519  -38.2913  -11.3034 C   0  0  0  0  0  0  0  0  0  0  0  0
  -13.6642  -37.1736  -12.0631 C   0  0  0  0  0  0  0  0  0  0  0  0
  -14.9149  -37.1036  -12.6405 C   0  0  0  0  0  0  0  0  0  0  0  0
  -15.8225  -38.1220  -12.4615 C   0  0  0  0  0  0  0  0  0  0  0  0
  -15.4528  -39.2347  -11.6793 C   0  0  0  0  0  0  0  0  0  0  0  0
  -12.6767  -36.0694  -12.2585 C   0  0  0  0  0  0  0  0  0  0  0  0
  -13.3477  -34.7574  -11.9036 C   0  0  0  0  0  0  0  0  0  0  0  0
  -11.4946  -36.2561  -11.3397 C   0  0  0  0  0  0  0  0  0  0  0  0
  -12.1659  -36.0528  -13.6865 C   0  0  0  0  0  0  0  0  0  0  0  0
  -19.6647  -38.1336   -7.5664 C   0  0  0  0  0  0  0  0  0  0  0  0
  -20.8257  -37.5724   -8.0193 C   0  0  0  0  0  0  0  0  0  0  0  0
  -21.9770  -38.1208   -7.5114 C   0  0  0  0  0  0  0  0  0  0  0  0
  2  1  1  1
  2  3  1  0
  3  4  1  0
  4  5  2  0
  4  6  1  0
  6  7  1  0
  7  8  1  0
  8  9  1  0
  9 10  1  0
 10 11  1  0
 11 12  1  0
 12 13  1  0
 13 14  2  0
 14 15  1  0
 16 15  1  1
 16 17  1  0
 17 18  1  0
 18 19  2  0
 16 20  1  0
 20 21  1  6
 20 22  1  0
 22 23  1  0
 23 24  1  0
 24 25  1  0
 25 26  1  0
 26 27  1  0
 27 28  1  0
 28 29  1  0
 24 30  1  0
 30 31  2  0
 31 32  1  0
 32 33  2  0
 33 34  1  0
 34 35  2  0
 32 36  1  0
 36 37  1  0
 36 38  1  0
 36 39  1  0
 14 40  1  0
 40 41  2  0
 41 42  1  0
 18  2  1  0
 29 24  1  0
 35 30  1  0
 42 12  2  0
M  END
$$$$
