
     RDKit          3D

 42 45  0  0  0  0  0  0  0  0999 V2000
  -13.5314  -43.4283   -9.2713 C   0  0  0  0  0  0  0  0  0  0  0  0
  -14.8028  -43.5059  -10.0196 C   0  0  2  0  0  0  0  0  0  0  0  0
  -14.6547  -44.0012  -11.4492 C   0  0  0  0  0  0  0  0  0  0  0  0
  -14.2040  -43.0068  -12.4119 C   0  0  0  0  0  0  0  0  0  0  0  0
  -14.7698  -41.8605  -12.4650 O   0  0  0  0  0  0  0  0  0  0  0  0
  -13.1468  -43.1739  -13.3536 N   0  0  0  0  0  0  0  0  0  0  0  0
  -12.3552  -44.3530  -13.5154 C   0  0  0  0  0  0  0  0  0  0  0  0
  -11.0556  -44.2690  -12.7195 C   0  0  0  0  0  0  0  0  0  0  0  0
  -10.2967  -43.0009  -13.1030 C   0  0  0  0  0  0  0  0  0  0  0  0
   -9.2805  -42.6290  -12.0768 C   0  0  0  0  0  0  0  0  0  0  0  0
   -9.6394  -41.5994  -11.2821 O   0  0  0  0  0  0  0  0  0  0  0  0
  -10.6237  -41.0407  -10.5266 C   0  0  0  0  0  0  0  0  0  0  0  0
  -11.9389  -40.7249  -10.8601 C   0  0  0  0  0  0  0  0  0  0  0  0
  -12.7279  -40.1628   -9.8940 C   0  0  0  0  0  0  0  0  0  0  0  0
  -14.1483  -39.7092   -9.8911 C   0  0  0  0  0  0  0  0  0  0  0  0
  -14.9824  -40.2086   -8.7357 C   0  0  2  0  0  0  0  0  0  0  0  0
  -15.8510  -41.3166   -9.0218 N   0  0  0  0  0  0  0  0  0  0  0  0
  -15.7443  -42.3915   -9.9122 C   0  0  0  0  0  0  0  0  0  0  0  0
  -16.6603  -42.4396  -10.8475 O   0  0  0  0  0  0  0  0  0  0  0  0
  -15.8256  -39.0712   -8.1526 C   0  0  2  0  0  0  0  0  0  0  0  0
  -15.8040  -39.2815   -6.7281 O   0  0  0  0  0  0  0  0  0  0  0  0
  -17.3006  -39.1584   -8.4942 C   0  0  0  0  0  0  0  0  0  0  0  0
  -18.0392  -37.9614   -8.5783 N   0  0  0  0  0  0  0  0  0  0  0  0
  -19.1181  -37.9713   -9.5522 C   0  0  0  0  0  0  0  0  0  0  0  0
  -19.6249  -36.5834   -9.7532 C   0  0  0  0  0  0  0  0  0  0  0  0
  -19.0795  -35.7981  -10.8765 C   0  0  0  0  0  0  0  0  0  0  0  0
  -18.7005  -36.5697  -12.1113 C   0  0  0  0  0  0  0  0  0  0  0  0
  -19.4094  -37.9311  -11.9684 C   0  0  0  0  0  0  0  0  0  0  0  0
  -18.6898  -38.6330  -10.8425 C   0  0  0  0  0  0  0  0  0  0  0  0
  -20.2311  -38.7648   -8.9823 C   0  0  0  0  0  0  0  0  0  0  0  0
  -21.1170  -38.1959   -8.0888 C   0  0  0  0  0  0  0  0  0  0  0  0
  -22.1622  -38.8826   -7.4887 C   0  0  0  0  0  0  0  0  0  0  0  0
  -22.3331  -40.2156   -7.7993 C   0  0  0  0  0  0  0  0  0  0  0  0
  -21.4829  -40.8391   -8.6833 C   0  0  0  0  0  0  0  0  0  0  0  0
  -20.4369  -40.0938   -9.2638 C   0  0  0  0  0  0  0  0  0  0  0  0
  -23.0860  -38.2036   -6.5306 C   0  0  0  0  0  0  0  0  0  0  0  0
  -22.2871  -37.1992   -5.7239 C   0  0  0  0  0  0  0  0  0  0  0  0
  -24.1603  -37.4556   -7.2807 C   0  0  0  0  0  0  0  0  0  0  0  0
  -23.7610  -39.2171   -5.6263 C   0  0  0  0  0  0  0  0  0  0  0  0
  -12.1966  -39.9175   -8.5993 C   0  0  0  0  0  0  0  0  0  0  0  0
  -10.9124  -40.2134   -8.2371 C   0  0  0  0  0  0  0  0  0  0  0  0
  -10.1419  -40.7768   -9.2235 C   0  0  0  0  0  0  0  0  0  0  0  0
  2  1  1  6
  2  3  1  0
  3  4  1  0
  4  5  2  0
  4  6  1  0
  6  7  1  0
  7  8  1  0
  8  9  1  0
  9 10  1  0
 10 11  1  0
 11 12  1  0
 12 13  1  0
 13 14  2  0
 14 15  1  0
 16 15  1  6
 16 17  1  0
 17 18  1  0
 18 19  2  0
 16 20  1  0
 20 21  1  1
 20 22  1  0
 22 23  1  0
 23 24  1  0
 24 25  1  0
 25 26  1  0
 26 27  1  0
 27 28  1  0
 28 29  1  0
 24 30  1  0
 30 31  2  0
 31 32  1  0
 32 33  2  0
 33 34  1  0
 34 35  2  0
 32 36  1  0
 36 37  1  0
 36 38  1  0
 36 39  1  0
 14 40  1  0
 40 41  2  0
 41 42  1  0
 18  2  1  0
 29 24  1  0
 35 30  1  0
 42 12  2  0
M  END
$$$$
