
     RDKit          3D

 42 45  0  0  0  0  0  0  0  0999 V2000
  -15.6747  -44.6435   -7.6639 C   0  0  0  0  0  0  0  0  0  0  0  0
  -16.8791  -44.3509   -8.4678 C   0  0  2  0  0  0  0  0  0  0  0  0
  -16.9406  -45.0962   -9.7913 C   0  0  0  0  0  0  0  0  0  0  0  0
  -16.1423  -44.5269  -10.8671 C   0  0  0  0  0  0  0  0  0  0  0  0
  -16.2183  -43.2775  -11.1323 O   0  0  0  0  0  0  0  0  0  0  0  0
  -15.2369  -45.2416  -11.7047 N   0  0  0  0  0  0  0  0  0  0  0  0
  -14.9665  -46.6433  -11.6325 C   0  0  0  0  0  0  0  0  0  0  0  0
  -13.7335  -46.9330  -10.7809 C   0  0  0  0  0  0  0  0  0  0  0  0
  -12.5427  -46.1368  -11.3093 C   0  0  0  0  0  0  0  0  0  0  0  0
  -11.4580  -46.0178  -10.2928 C   0  0  0  0  0  0  0  0  0  0  0  0
  -11.3854  -44.8123   -9.6912 O   0  0  0  0  0  0  0  0  0  0  0  0
  -12.0723  -43.8009   -9.0935 C   0  0  0  0  0  0  0  0  0  0  0  0
  -13.1625  -43.0649   -9.5523 C   0  0  0  0  0  0  0  0  0  0  0  0
  -13.6673  -42.0903   -8.7355 C   0  0  0  0  0  0  0  0  0  0  0  0
  -14.7996  -41.1326   -8.8904 C   0  0  0  0  0  0  0  0  0  0  0  0
  -15.7579  -41.0730   -7.7249 C   0  0  2  0  0  0  0  0  0  0  0  0
  -16.9899  -41.7936   -7.8883 N   0  0  0  0  0  0  0  0  0  0  0  0
  -17.3128  -42.9594   -8.5928 C   0  0  0  0  0  0  0  0  0  0  0  0
  -18.1790  -42.8076   -9.5638 O   0  0  0  0  0  0  0  0  0  0  0  0
  -16.0904  -39.6191   -7.3784 C   0  0  2  0  0  0  0  0  0  0  0  0
  -15.9623  -39.5368   -5.9464 O   0  0  0  0  0  0  0  0  0  0  0  0
  -17.5395  -39.2429   -7.6197 C   0  0  0  0  0  0  0  0  0  0  0  0
  -17.8396  -37.9005   -7.9257 N   0  0  0  0  0  0  0  0  0  0  0  0
  -19.1330  -37.6870   -8.5536 C   0  0  0  0  0  0  0  0  0  0  0  0
  -19.9721  -38.9103   -8.4021 C   0  0  0  0  0  0  0  0  0  0  0  0
  -20.9164  -38.9720   -7.2705 C   0  0  0  0  0  0  0  0  0  0  0  0
  -21.5303  -37.6679   -6.8388 C   0  0  0  0  0  0  0  0  0  0  0  0
  -21.2932  -36.7021   -8.0166 C   0  0  0  0  0  0  0  0  0  0  0  0
  -19.8063  -36.4429   -8.0196 C   0  0  0  0  0  0  0  0  0  0  0  0
  -18.9024  -37.4920  -10.0034 C   0  0  0  0  0  0  0  0  0  0  0  0
  -18.1340  -36.4393  -10.4596 C   0  0  0  0  0  0  0  0  0  0  0  0
  -17.9007  -36.1729  -11.8007 C   0  0  0  0  0  0  0  0  0  0  0  0
  -18.4676  -37.0070  -12.7418 C   0  0  0  0  0  0  0  0  0  0  0  0
  -19.2433  -38.0736  -12.3497 C   0  0  0  0  0  0  0  0  0  0  0  0
  -19.4482  -38.2978  -10.9734 C   0  0  0  0  0  0  0  0  0  0  0  0
  -17.0562  -35.0155  -12.2250 C   0  0  0  0  0  0  0  0  0  0  0  0
  -16.4749  -34.3658  -10.9850 C   0  0  0  0  0  0  0  0  0  0  0  0
  -15.9125  -35.4905  -13.0867 C   0  0  0  0  0  0  0  0  0  0  0  0
  -17.8724  -34.0225  -13.0302 C   0  0  0  0  0  0  0  0  0  0  0  0
  -13.0775  -41.8553   -7.4644 C   0  0  0  0  0  0  0  0  0  0  0  0
  -12.0080  -42.5565   -6.9823 C   0  0  0  0  0  0  0  0  0  0  0  0
  -11.5208  -43.5286   -7.8201 C   0  0  0  0  0  0  0  0  0  0  0  0
  2  1  1  6
  2  3  1  0
  3  4  1  0
  4  5  2  0
  4  6  1  0
  6  7  1  0
  7  8  1  0
  8  9  1  0
  9 10  1  0
 10 11  1  0
 11 12  1  0
 12 13  1  0
 13 14  2  0
 14 15  1  0
 16 15  1  6
 16 17  1  0
 17 18  1  0
 18 19  2  0
 16 20  1  0
 20 21  1  1
 20 22  1  0
 22 23  1  0
 23 24  1  0
 24 25  1  0
 25 26  1  0
 26 27  1  0
 27 28  1  0
 28 29  1  0
 24 30  1  0
 30 31  2  0
 31 32  1  0
 32 33  2  0
 33 34  1  0
 34 35  2  0
 32 36  1  0
 36 37  1  0
 36 38  1  0
 36 39  1  0
 14 40  1  0
 40 41  2  0
 41 42  1  0
 18  2  1  0
 29 24  1  0
 35 30  1  0
 42 12  2  0
M  END
$$$$
