
     RDKit          3D

 42 45  0  0  0  0  0  0  0  0999 V2000
  -20.4686  -42.2236   -8.8810 C   0  0  0  0  0  0  0  0  0  0  0  0
  -19.3998  -43.1530   -8.4613 C   0  0  2  0  0  0  0  0  0  0  0  0
  -19.8180  -44.1346   -7.3785 C   0  0  0  0  0  0  0  0  0  0  0  0
  -19.8242  -43.6048   -6.0227 C   0  0  0  0  0  0  0  0  0  0  0  0
  -18.8114  -42.9609   -5.5794 O   0  0  0  0  0  0  0  0  0  0  0  0
  -20.8877  -43.7288   -5.0815 N   0  0  0  0  0  0  0  0  0  0  0  0
  -22.1270  -44.4033   -5.3104 C   0  0  0  0  0  0  0  0  0  0  0  0
  -23.2160  -43.4354   -5.7650 C   0  0  0  0  0  0  0  0  0  0  0  0
  -23.3499  -42.2979   -4.7554 C   0  0  0  0  0  0  0  0  0  0  0  0
  -24.0469  -41.1156   -5.3387 C   0  0  0  0  0  0  0  0  0  0  0  0
  -23.2321  -40.0905   -5.6639 O   0  0  0  0  0  0  0  0  0  0  0  0
  -22.0684  -39.7131   -6.2601 C   0  0  0  0  0  0  0  0  0  0  0  0
  -20.7666  -40.1615   -6.0477 C   0  0  0  0  0  0  0  0  0  0  0  0
  -19.7666  -39.6043   -6.7969 C   0  0  0  0  0  0  0  0  0  0  0  0
  -18.2941  -39.8340   -6.8420 C   0  0  0  0  0  0  0  0  0  0  0  0
  -17.7161  -40.0448   -8.2211 C   0  0  2  0  0  0  0  0  0  0  0  0
  -17.4439  -41.4075   -8.5856 N   0  0  0  0  0  0  0  0  0  0  0  0
  -18.0576  -42.6164   -8.2367 C   0  0  0  0  0  0  0  0  0  0  0  0
  -17.3023  -43.4608   -7.5790 O   0  0  0  0  0  0  0  0  0  0  0  0
  -16.4298  -39.2322   -8.3930 C   0  0  2  0  0  0  0  0  0  0  0  0
  -16.8009  -38.1147   -9.2221 O   0  0  0  0  0  0  0  0  0  0  0  0
  -15.3620  -39.9322   -9.2112 C   0  0  0  0  0  0  0  0  0  0  0  0
  -14.0151  -39.5797   -8.9940 N   0  0  0  0  0  0  0  0  0  0  0  0
  -13.0987  -39.9692  -10.0529 C   0  0  0  0  0  0  0  0  0  0  0  0
  -11.6952  -39.7074   -9.6228 C   0  0  0  0  0  0  0  0  0  0  0  0
  -10.9313  -40.8180   -9.0234 C   0  0  0  0  0  0  0  0  0  0  0  0
  -11.2390  -42.1975   -9.5392 C   0  0  0  0  0  0  0  0  0  0  0  0
  -11.9838  -41.9726  -10.8700 C   0  0  0  0  0  0  0  0  0  0  0  0
  -13.3252  -41.4022  -10.4785 C   0  0  0  0  0  0  0  0  0  0  0  0
  -13.3669  -39.1002  -11.2218 C   0  0  0  0  0  0  0  0  0  0  0  0
  -13.4880  -37.7330  -11.0707 C   0  0  0  0  0  0  0  0  0  0  0  0
  -13.7708  -36.8595  -12.1104 C   0  0  0  0  0  0  0  0  0  0  0  0
  -13.9423  -37.3818  -13.3755 C   0  0  0  0  0  0  0  0  0  0  0  0
  -13.8336  -38.7364  -13.5902 C   0  0  0  0  0  0  0  0  0  0  0  0
  -13.5451  -39.5786  -12.4975 C   0  0  0  0  0  0  0  0  0  0  0  0
  -13.8864  -35.3883  -11.8762 C   0  0  0  0  0  0  0  0  0  0  0  0
  -12.5091  -34.8444  -11.5525 C   0  0  0  0  0  0  0  0  0  0  0  0
  -14.3834  -34.6977  -13.1221 C   0  0  0  0  0  0  0  0  0  0  0  0
  -14.8653  -35.0989  -10.7543 C   0  0  0  0  0  0  0  0  0  0  0  0
  -20.0736  -38.5997   -7.7537 C   0  0  0  0  0  0  0  0  0  0  0  0
  -21.3374  -38.1355   -7.9882 C   0  0  0  0  0  0  0  0  0  0  0  0
  -22.3225  -38.7106   -7.2245 C   0  0  0  0  0  0  0  0  0  0  0  0
  2  1  1  1
  2  3  1  0
  3  4  1  0
  4  5  2  0
  4  6  1  0
  6  7  1  0
  7  8  1  0
  8  9  1  0
  9 10  1  0
 10 11  1  0
 11 12  1  0
 12 13  1  0
 13 14  2  0
 14 15  1  0
 16 15  1  1
 16 17  1  0
 17 18  1  0
 18 19  2  0
 16 20  1  0
 20 21  1  6
 20 22  1  0
 22 23  1  0
 23 24  1  0
 24 25  1  0
 25 26  1  0
 26 27  1  0
 27 28  1  0
 28 29  1  0
 24 30  1  0
 30 31  2  0
 31 32  1  0
 32 33  2  0
 33 34  1  0
 34 35  2  0
 32 36  1  0
 36 37  1  0
 36 38  1  0
 36 39  1  0
 14 40  1  0
 40 41  2  0
 41 42  1  0
 18  2  1  0
 29 24  1  0
 35 30  1  0
 42 12  2  0
M  END
$$$$
