
     RDKit          3D

 42 45  0  0  0  0  0  0  0  0999 V2000
  -20.4417  -42.0592   -8.9391 C   0  0  0  0  0  0  0  0  0  0  0  0
  -19.5223  -43.0397   -8.3263 C   0  0  2  0  0  0  0  0  0  0  0  0
  -20.2006  -44.0326   -7.3963 C   0  0  0  0  0  0  0  0  0  0  0  0
  -20.4898  -43.5387   -6.0579 C   0  0  0  0  0  0  0  0  0  0  0  0
  -19.5803  -42.9461   -5.3807 O   0  0  0  0  0  0  0  0  0  0  0  0
  -21.7386  -43.6464   -5.3788 N   0  0  0  0  0  0  0  0  0  0  0  0
  -22.9173  -44.2665   -5.8978 C   0  0  0  0  0  0  0  0  0  0  0  0
  -23.8475  -43.2458   -6.5479 C   0  0  0  0  0  0  0  0  0  0  0  0
  -24.1653  -42.1310   -5.5543 C   0  0  0  0  0  0  0  0  0  0  0  0
  -24.6782  -40.9078   -6.2361 C   0  0  0  0  0  0  0  0  0  0  0  0
  -23.7795  -39.9067   -6.3387 O   0  0  0  0  0  0  0  0  0  0  0  0
  -22.5014  -39.5587   -6.6508 C   0  0  0  0  0  0  0  0  0  0  0  0
  -21.2937  -40.0622   -6.1723 C   0  0  0  0  0  0  0  0  0  0  0  0
  -20.1356  -39.5245   -6.6635 C   0  0  0  0  0  0  0  0  0  0  0  0
  -18.6976  -39.8094   -6.3910 C   0  0  0  0  0  0  0  0  0  0  0  0
  -17.8358  -40.0059   -7.6153 C   0  0  2  0  0  0  0  0  0  0  0  0
  -17.5330  -41.3680   -7.9572 N   0  0  0  0  0  0  0  0  0  0  0  0
  -18.2467  -42.5611   -7.7934 C   0  0  0  0  0  0  0  0  0  0  0  0
  -17.6828  -43.4509   -7.0147 O   0  0  0  0  0  0  0  0  0  0  0  0
  -16.5182  -39.2391   -7.4719 C   0  0  2  0  0  0  0  0  0  0  0  0
  -16.7733  -37.9450   -8.0499 O   0  0  0  0  0  0  0  0  0  0  0  0
  -15.3902  -39.7847   -8.3260 C   0  0  0  0  0  0  0  0  0  0  0  0
  -14.7557  -38.9121   -9.2324 N   0  0  0  0  0  0  0  0  0  0  0  0
  -14.2865  -39.5343  -10.4594 C   0  0  0  0  0  0  0  0  0  0  0  0
  -12.9231  -40.0989  -10.2457 C   0  0  0  0  0  0  0  0  0  0  0  0
  -12.8078  -41.5245   -9.8844 C   0  0  0  0  0  0  0  0  0  0  0  0
  -13.8436  -42.4483  -10.4653 C   0  0  0  0  0  0  0  0  0  0  0  0
  -14.4784  -41.6607  -11.6284 C   0  0  0  0  0  0  0  0  0  0  0  0
  -15.2736  -40.5596  -10.9700 C   0  0  0  0  0  0  0  0  0  0  0  0
  -14.1640  -38.4720  -11.4839 C   0  0  0  0  0  0  0  0  0  0  0  0
  -13.2494  -37.4486  -11.3323 C   0  0  0  0  0  0  0  0  0  0  0  0
  -13.0995  -36.4025  -12.2307 C   0  0  0  0  0  0  0  0  0  0  0  0
  -13.9102  -36.3769  -13.3464 C   0  0  0  0  0  0  0  0  0  0  0  0
  -14.8408  -37.3687  -13.5537 C   0  0  0  0  0  0  0  0  0  0  0  0
  -14.9512  -38.4082  -12.6083 C   0  0  0  0  0  0  0  0  0  0  0  0
  -12.0868  -35.3271  -12.0053 C   0  0  0  0  0  0  0  0  0  0  0  0
  -10.7467  -35.9801  -11.7312 C   0  0  0  0  0  0  0  0  0  0  0  0
  -11.9487  -34.4715  -13.2402 C   0  0  0  0  0  0  0  0  0  0  0  0
  -12.5031  -34.4307  -10.8547 C   0  0  0  0  0  0  0  0  0  0  0  0
  -20.1912  -38.4840   -7.6295 C   0  0  0  0  0  0  0  0  0  0  0  0
  -21.3565  -37.9655   -8.1206 C   0  0  0  0  0  0  0  0  0  0  0  0
  -22.5038  -38.5222   -7.6127 C   0  0  0  0  0  0  0  0  0  0  0  0
  2  1  1  1
  2  3  1  0
  3  4  1  0
  4  5  2  0
  4  6  1  0
  6  7  1  0
  7  8  1  0
  8  9  1  0
  9 10  1  0
 10 11  1  0
 11 12  1  0
 12 13  1  0
 13 14  2  0
 14 15  1  0
 16 15  1  1
 16 17  1  0
 17 18  1  0
 18 19  2  0
 16 20  1  0
 20 21  1  6
 20 22  1  0
 22 23  1  0
 23 24  1  0
 24 25  1  0
 25 26  1  0
 26 27  1  0
 27 28  1  0
 28 29  1  0
 24 30  1  0
 30 31  2  0
 31 32  1  0
 32 33  2  0
 33 34  1  0
 34 35  2  0
 32 36  1  0
 36 37  1  0
 36 38  1  0
 36 39  1  0
 14 40  1  0
 40 41  2  0
 41 42  1  0
 18  2  1  0
 29 24  1  0
 35 30  1  0
 42 12  2  0
M  END
$$$$
