
     RDKit          3D

 42 45  0  0  0  0  0  0  0  0999 V2000
  -20.0620  -42.2268   -8.5587 C   0  0  0  0  0  0  0  0  0  0  0  0
  -18.9644  -43.0490   -8.0097 C   0  0  2  0  0  0  0  0  0  0  0  0
  -19.4165  -44.1106   -7.0199 C   0  0  0  0  0  0  0  0  0  0  0  0
  -19.6734  -43.6360   -5.6681 C   0  0  0  0  0  0  0  0  0  0  0  0
  -18.8127  -42.9025   -5.0697 O   0  0  0  0  0  0  0  0  0  0  0  0
  -20.8377  -43.9109   -4.8927 N   0  0  0  0  0  0  0  0  0  0  0  0
  -21.9479  -44.7075   -5.3122 C   0  0  0  0  0  0  0  0  0  0  0  0
  -23.0649  -43.8480   -5.8978 C   0  0  0  0  0  0  0  0  0  0  0  0
  -23.4676  -42.7708   -4.8935 C   0  0  0  0  0  0  0  0  0  0  0  0
  -24.2054  -41.6506   -5.5453 C   0  0  0  0  0  0  0  0  0  0  0  0
  -23.4746  -40.5311   -5.7275 O   0  0  0  0  0  0  0  0  0  0  0  0
  -22.2891  -40.0067   -6.1416 C   0  0  0  0  0  0  0  0  0  0  0  0
  -20.9877  -40.3177   -5.7538 C   0  0  0  0  0  0  0  0  0  0  0  0
  -19.9620  -39.6269   -6.3390 C   0  0  0  0  0  0  0  0  0  0  0  0
  -18.4813  -39.6925   -6.1766 C   0  0  0  0  0  0  0  0  0  0  0  0
  -17.6950  -39.7868   -7.4623 C   0  0  2  0  0  0  0  0  0  0  0  0
  -17.2214  -41.0969   -7.8133 N   0  0  0  0  0  0  0  0  0  0  0  0
  -17.7368  -42.3778   -7.5827 C   0  0  0  0  0  0  0  0  0  0  0  0
  -16.9905  -43.1588   -6.8415 O   0  0  0  0  0  0  0  0  0  0  0  0
  -16.4979  -38.8325   -7.4295 C   0  0  2  0  0  0  0  0  0  0  0  0
  -17.0632  -37.5173   -7.5857 O   0  0  0  0  0  0  0  0  0  0  0  0
  -15.5752  -38.9584   -8.6264 C   0  0  0  0  0  0  0  0  0  0  0  0
  -14.4627  -39.8173   -8.5253 N   0  0  0  0  0  0  0  0  0  0  0  0
  -13.8080  -40.1270   -9.7856 C   0  0  0  0  0  0  0  0  0  0  0  0
  -12.4581  -39.4946   -9.8181 C   0  0  0  0  0  0  0  0  0  0  0  0
  -11.2972  -40.3083   -9.4101 C   0  0  0  0  0  0  0  0  0  0  0  0
  -11.3676  -41.7787   -9.7212 C   0  0  0  0  0  0  0  0  0  0  0  0
  -12.4843  -41.9139  -10.7752 C   0  0  0  0  0  0  0  0  0  0  0  0
  -13.7644  -41.6181  -10.0322 C   0  0  0  0  0  0  0  0  0  0  0  0
  -14.6058  -39.5103  -10.8702 C   0  0  0  0  0  0  0  0  0  0  0  0
  -14.5215  -38.1557  -11.1244 C   0  0  0  0  0  0  0  0  0  0  0  0
  -15.2604  -37.5016  -12.0992 C   0  0  0  0  0  0  0  0  0  0  0  0
  -16.1347  -38.2439  -12.8655 C   0  0  0  0  0  0  0  0  0  0  0  0
  -16.2633  -39.5982  -12.6603 C   0  0  0  0  0  0  0  0  0  0  0  0
  -15.4883  -40.2120  -11.6557 C   0  0  0  0  0  0  0  0  0  0  0  0
  -15.1181  -36.0310  -12.3224 C   0  0  0  0  0  0  0  0  0  0  0  0
  -15.0436  -35.3459  -10.9724 C   0  0  0  0  0  0  0  0  0  0  0  0
  -13.8410  -35.7365  -13.0699 C   0  0  0  0  0  0  0  0  0  0  0  0
  -16.2778  -35.4981  -13.1420 C   0  0  0  0  0  0  0  0  0  0  0  0
  -20.2434  -38.6265   -7.3079 C   0  0  0  0  0  0  0  0  0  0  0  0
  -21.5062  -38.2946   -7.7118 C   0  0  0  0  0  0  0  0  0  0  0  0
  -22.5171  -39.0023   -7.1106 C   0  0  0  0  0  0  0  0  0  0  0  0
  2  1  1  1
  2  3  1  0
  3  4  1  0
  4  5  2  0
  4  6  1  0
  6  7  1  0
  7  8  1  0
  8  9  1  0
  9 10  1  0
 10 11  1  0
 11 12  1  0
 12 13  1  0
 13 14  2  0
 14 15  1  0
 16 15  1  1
 16 17  1  0
 17 18  1  0
 18 19  2  0
 16 20  1  0
 20 21  1  6
 20 22  1  0
 22 23  1  0
 23 24  1  0
 24 25  1  0
 25 26  1  0
 26 27  1  0
 27 28  1  0
 28 29  1  0
 24 30  1  0
 30 31  2  0
 31 32  1  0
 32 33  2  0
 33 34  1  0
 34 35  2  0
 32 36  1  0
 36 37  1  0
 36 38  1  0
 36 39  1  0
 14 40  1  0
 40 41  2  0
 41 42  1  0
 18  2  1  0
 29 24  1  0
 35 30  1  0
 42 12  2  0
M  END
$$$$
