
     RDKit          3D

 42 45  0  0  0  0  0  0  0  0999 V2000
  -20.1734  -42.3917   -9.3318 C   0  0  0  0  0  0  0  0  0  0  0  0
  -19.1413  -43.3266   -8.8388 C   0  0  2  0  0  0  0  0  0  0  0  0
  -19.6764  -44.4235   -7.9325 C   0  0  0  0  0  0  0  0  0  0  0  0
  -19.9143  -44.0323   -6.5508 C   0  0  0  0  0  0  0  0  0  0  0  0
  -19.0112  -43.4065   -5.8952 O   0  0  0  0  0  0  0  0  0  0  0  0
  -21.1030  -44.2811   -5.8042 N   0  0  0  0  0  0  0  0  0  0  0  0
  -22.2612  -44.9653   -6.2874 C   0  0  0  0  0  0  0  0  0  0  0  0
  -23.3096  -43.9892   -6.8143 C   0  0  0  0  0  0  0  0  0  0  0  0
  -23.6474  -42.9629   -5.7355 C   0  0  0  0  0  0  0  0  0  0  0  0
  -24.2987  -41.7491   -6.3070 C   0  0  0  0  0  0  0  0  0  0  0  0
  -23.4901  -40.6732   -6.4022 O   0  0  0  0  0  0  0  0  0  0  0  0
  -22.2667  -40.2040   -6.7699 C   0  0  0  0  0  0  0  0  0  0  0  0
  -20.9943  -40.6329   -6.3989 C   0  0  0  0  0  0  0  0  0  0  0  0
  -19.9170  -39.9745   -6.9258 C   0  0  0  0  0  0  0  0  0  0  0  0
  -18.4462  -40.1552   -6.7605 C   0  0  0  0  0  0  0  0  0  0  0  0
  -17.6547  -40.2099   -8.0453 C   0  0  2  0  0  0  0  0  0  0  0  0
  -17.2693  -41.5208   -8.4894 N   0  0  0  0  0  0  0  0  0  0  0  0
  -17.8747  -42.7759   -8.3566 C   0  0  0  0  0  0  0  0  0  0  0  0
  -17.1923  -43.6593   -7.6710 O   0  0  0  0  0  0  0  0  0  0  0  0
  -16.3947  -39.3467   -7.9357 C   0  0  2  0  0  0  0  0  0  0  0  0
  -16.8768  -37.9976   -7.7894 O   0  0  0  0  0  0  0  0  0  0  0  0
  -15.5748  -39.2864   -9.2100 C   0  0  0  0  0  0  0  0  0  0  0  0
  -14.5121  -40.1987   -9.3649 N   0  0  0  0  0  0  0  0  0  0  0  0
  -13.7960  -40.1005  -10.6260 C   0  0  0  0  0  0  0  0  0  0  0  0
  -12.6045  -40.9966  -10.5970 C   0  0  0  0  0  0  0  0  0  0  0  0
  -12.7354  -42.3491  -11.1714 C   0  0  0  0  0  0  0  0  0  0  0  0
  -13.6650  -42.4907  -12.3458 C   0  0  0  0  0  0  0  0  0  0  0  0
  -13.8809  -41.0548  -12.8636 C   0  0  0  0  0  0  0  0  0  0  0  0
  -14.7080  -40.3736  -11.8006 C   0  0  0  0  0  0  0  0  0  0  0  0
  -13.2958  -38.7123  -10.7522 C   0  0  0  0  0  0  0  0  0  0  0  0
  -13.6267  -37.9409  -11.8487 C   0  0  0  0  0  0  0  0  0  0  0  0
  -13.1710  -36.6468  -12.0529 C   0  0  0  0  0  0  0  0  0  0  0  0
  -12.3362  -36.0900  -11.1065 C   0  0  0  0  0  0  0  0  0  0  0  0
  -11.9707  -36.8084   -9.9915 C   0  0  0  0  0  0  0  0  0  0  0  0
  -12.4625  -38.1199   -9.8343 C   0  0  0  0  0  0  0  0  0  0  0  0
  -13.5707  -35.8670  -13.2632 C   0  0  0  0  0  0  0  0  0  0  0  0
  -12.3154  -35.4712  -14.0149 C   0  0  0  0  0  0  0  0  0  0  0  0
  -14.4173  -36.7176  -14.1775 C   0  0  0  0  0  0  0  0  0  0  0  0
  -14.3805  -34.6458  -12.8714 C   0  0  0  0  0  0  0  0  0  0  0  0
  -20.1180  -38.8887   -7.8200 C   0  0  0  0  0  0  0  0  0  0  0  0
  -21.3503  -38.4407   -8.2053 C   0  0  0  0  0  0  0  0  0  0  0  0
  -22.4142  -39.1180   -7.6635 C   0  0  0  0  0  0  0  0  0  0  0  0
  2  1  1  1
  2  3  1  0
  3  4  1  0
  4  5  2  0
  4  6  1  0
  6  7  1  0
  7  8  1  0
  8  9  1  0
  9 10  1  0
 10 11  1  0
 11 12  1  0
 12 13  1  0
 13 14  2  0
 14 15  1  0
 16 15  1  1
 16 17  1  0
 17 18  1  0
 18 19  2  0
 16 20  1  0
 20 21  1  6
 20 22  1  0
 22 23  1  0
 23 24  1  0
 24 25  1  0
 25 26  1  0
 26 27  1  0
 27 28  1  0
 28 29  1  0
 24 30  1  0
 30 31  2  0
 31 32  1  0
 32 33  2  0
 33 34  1  0
 34 35  2  0
 32 36  1  0
 36 37  1  0
 36 38  1  0
 36 39  1  0
 14 40  1  0
 40 41  2  0
 41 42  1  0
 18  2  1  0
 29 24  1  0
 35 30  1  0
 42 12  2  0
M  END
$$$$
