
     RDKit          3D

 42 45  0  0  0  0  0  0  0  0999 V2000
  -20.7846  -41.9967   -8.7450 C   0  0  0  0  0  0  0  0  0  0  0  0
  -19.5736  -42.8213   -8.5563 C   0  0  2  0  0  0  0  0  0  0  0  0
  -19.7622  -43.9979   -7.6123 C   0  0  0  0  0  0  0  0  0  0  0  0
  -19.7066  -43.6765   -6.1937 C   0  0  0  0  0  0  0  0  0  0  0  0
  -18.7447  -42.9708   -5.7316 O   0  0  0  0  0  0  0  0  0  0  0  0
  -20.6529  -44.0809   -5.2072 N   0  0  0  0  0  0  0  0  0  0  0  0
  -21.8145  -44.8788   -5.4461 C   0  0  0  0  0  0  0  0  0  0  0  0
  -23.0536  -44.0141   -5.6616 C   0  0  0  0  0  0  0  0  0  0  0  0
  -23.2324  -43.0647   -4.4794 C   0  0  0  0  0  0  0  0  0  0  0  0
  -24.1232  -41.9173   -4.8172 C   0  0  0  0  0  0  0  0  0  0  0  0
  -23.4767  -40.7537   -5.0377 O   0  0  0  0  0  0  0  0  0  0  0  0
  -22.4306  -40.1374   -5.6522 C   0  0  0  0  0  0  0  0  0  0  0  0
  -21.0689  -40.4286   -5.6098 C   0  0  0  0  0  0  0  0  0  0  0  0
  -20.2212  -39.6365   -6.3348 C   0  0  0  0  0  0  0  0  0  0  0  0
  -18.7423  -39.6526   -6.5245 C   0  0  0  0  0  0  0  0  0  0  0  0
  -18.2752  -39.5794   -7.9586 C   0  0  2  0  0  0  0  0  0  0  0  0
  -17.8709  -40.8242   -8.5510 N   0  0  0  0  0  0  0  0  0  0  0  0
  -18.2935  -42.1436   -8.3508 C   0  0  0  0  0  0  0  0  0  0  0  0
  -17.3803  -42.9627   -7.8912 O   0  0  0  0  0  0  0  0  0  0  0  0
  -17.1221  -38.5813   -8.0963 C   0  0  2  0  0  0  0  0  0  0  0  0
  -17.7070  -37.2937   -7.8249 O   0  0  0  0  0  0  0  0  0  0  0  0
  -16.5990  -38.4338   -9.5120 C   0  0  0  0  0  0  0  0  0  0  0  0
  -15.7247  -37.3653   -9.7937 N   0  0  0  0  0  0  0  0  0  0  0  0
  -15.4667  -37.1372  -11.2058 C   0  0  0  0  0  0  0  0  0  0  0  0
  -16.6348  -37.5984  -12.0098 C   0  0  0  0  0  0  0  0  0  0  0  0
  -17.6565  -36.6039  -12.3884 C   0  0  0  0  0  0  0  0  0  0  0  0
  -17.1671  -35.2037  -12.6403 C   0  0  0  0  0  0  0  0  0  0  0  0
  -15.6441  -35.3390  -12.8366 C   0  0  0  0  0  0  0  0  0  0  0  0
  -15.1020  -35.6945  -11.4736 C   0  0  0  0  0  0  0  0  0  0  0  0
  -14.3104  -37.9776  -11.5932 C   0  0  0  0  0  0  0  0  0  0  0  0
  -13.0199  -37.5040  -11.4633 C   0  0  0  0  0  0  0  0  0  0  0  0
  -11.8902  -38.2180  -11.8346 C   0  0  0  0  0  0  0  0  0  0  0  0
  -12.0590  -39.4794  -12.3667 C   0  0  0  0  0  0  0  0  0  0  0  0
  -13.3203  -40.0070  -12.5210 C   0  0  0  0  0  0  0  0  0  0  0  0
  -14.4337  -39.2376  -12.1273 C   0  0  0  0  0  0  0  0  0  0  0  0
  -10.5209  -37.6447  -11.6645 C   0  0  0  0  0  0  0  0  0  0  0  0
   -9.8550  -37.5810  -13.0247 C   0  0  0  0  0  0  0  0  0  0  0  0
  -10.6057  -36.2414  -11.1168 C   0  0  0  0  0  0  0  0  0  0  0  0
   -9.7058  -38.4803  -10.6960 C   0  0  0  0  0  0  0  0  0  0  0  0
  -20.7397  -38.5554   -7.0972 C   0  0  0  0  0  0  0  0  0  0  0  0
  -22.0680  -38.2402   -7.1617 C   0  0  0  0  0  0  0  0  0  0  0  0
  -22.8973  -39.0500   -6.4264 C   0  0  0  0  0  0  0  0  0  0  0  0
  2  1  1  1
  2  3  1  0
  3  4  1  0
  4  5  2  0
  4  6  1  0
  6  7  1  0
  7  8  1  0
  8  9  1  0
  9 10  1  0
 10 11  1  0
 11 12  1  0
 12 13  1  0
 13 14  2  0
 14 15  1  0
 16 15  1  1
 16 17  1  0
 17 18  1  0
 18 19  2  0
 16 20  1  0
 20 21  1  6
 20 22  1  0
 22 23  1  0
 23 24  1  0
 24 25  1  0
 25 26  1  0
 26 27  1  0
 27 28  1  0
 28 29  1  0
 24 30  1  0
 30 31  2  0
 31 32  1  0
 32 33  2  0
 33 34  1  0
 34 35  2  0
 32 36  1  0
 36 37  1  0
 36 38  1  0
 36 39  1  0
 14 40  1  0
 40 41  2  0
 41 42  1  0
 18  2  1  0
 29 24  1  0
 35 30  1  0
 42 12  2  0
M  END
$$$$
