
     RDKit          3D

 42 45  0  0  0  0  0  0  0  0999 V2000
  -12.7085  -41.0742  -10.1939 C   0  0  0  0  0  0  0  0  0  0  0  0
  -13.6729  -42.0733  -10.6978 C   0  0  2  0  0  0  0  0  0  0  0  0
  -13.5033  -42.4157  -12.1692 C   0  0  0  0  0  0  0  0  0  0  0  0
  -14.0783  -41.4595  -13.1039 C   0  0  0  0  0  0  0  0  0  0  0  0
  -15.2801  -41.0496  -12.9466 O   0  0  0  0  0  0  0  0  0  0  0  0
  -13.4194  -40.8976  -14.2363 N   0  0  0  0  0  0  0  0  0  0  0  0
  -12.0816  -41.1864  -14.6487 C   0  0  0  0  0  0  0  0  0  0  0  0
  -11.0930  -40.1596  -14.1029 C   0  0  0  0  0  0  0  0  0  0  0  0
  -11.5351  -38.7541  -14.5031 C   0  0  0  0  0  0  0  0  0  0  0  0
  -10.8978  -37.7074  -13.6532 C   0  0  0  0  0  0  0  0  0  0  0  0
  -11.7103  -37.1777  -12.7153 O   0  0  0  0  0  0  0  0  0  0  0  0
  -12.6299  -37.4237  -11.7429 C   0  0  0  0  0  0  0  0  0  0  0  0
  -13.8191  -38.1474  -11.7969 C   0  0  0  0  0  0  0  0  0  0  0  0
  -14.5659  -38.2395  -10.6543 C   0  0  0  0  0  0  0  0  0  0  0  0
  -15.8581  -38.9171  -10.3471 C   0  0  0  0  0  0  0  0  0  0  0  0
  -15.8554  -39.7796   -9.1076 C   0  0  2  0  0  0  0  0  0  0  0  0
  -15.7313  -41.1938   -9.3278 N   0  0  0  0  0  0  0  0  0  0  0  0
  -15.0789  -41.9394  -10.3168 C   0  0  0  0  0  0  0  0  0  0  0  0
  -15.8565  -42.6803  -11.0667 O   0  0  0  0  0  0  0  0  0  0  0  0
  -17.1171  -39.5284   -8.2773 C   0  0  2  0  0  0  0  0  0  0  0  0
  -16.7574  -38.4803   -7.3574 O   0  0  0  0  0  0  0  0  0  0  0  0
  -17.4939  -40.6784   -7.3634 C   0  0  0  0  0  0  0  0  0  0  0  0
  -18.1742  -41.7795   -7.9204 N   0  0  0  0  0  0  0  0  0  0  0  0
  -19.5806  -41.8770   -7.5663 C   0  0  0  0  0  0  0  0  0  0  0  0
  -20.1135  -43.2037   -7.9899 C   0  0  0  0  0  0  0  0  0  0  0  0
  -20.1417  -44.2931   -6.9956 C   0  0  0  0  0  0  0  0  0  0  0  0
  -20.3796  -43.8890   -5.5660 C   0  0  0  0  0  0  0  0  0  0  0  0
  -20.9523  -42.4598   -5.6419 C   0  0  0  0  0  0  0  0  0  0  0  0
  -19.7997  -41.5979   -6.0966 C   0  0  0  0  0  0  0  0  0  0  0  0
  -20.3112  -40.8459   -8.3385 C   0  0  0  0  0  0  0  0  0  0  0  0
  -20.6746  -39.6505   -7.7503 C   0  0  0  0  0  0  0  0  0  0  0  0
  -21.3873  -38.6522   -8.3978 C   0  0  0  0  0  0  0  0  0  0  0  0
  -21.7587  -38.8593   -9.7100 C   0  0  0  0  0  0  0  0  0  0  0  0
  -21.4257  -40.0301  -10.3514 C   0  0  0  0  0  0  0  0  0  0  0  0
  -20.7008  -41.0114   -9.6457 C   0  0  0  0  0  0  0  0  0  0  0  0
  -21.7464  -37.3803   -7.7006 C   0  0  0  0  0  0  0  0  0  0  0  0
  -22.2622  -37.7210   -6.3167 C   0  0  0  0  0  0  0  0  0  0  0  0
  -20.5263  -36.5065   -7.5453 C   0  0  0  0  0  0  0  0  0  0  0  0
  -22.7821  -36.6072   -8.4945 C   0  0  0  0  0  0  0  0  0  0  0  0
  -14.1203  -37.6053   -9.4635 C   0  0  0  0  0  0  0  0  0  0  0  0
  -12.9608  -36.8874   -9.3738 C   0  0  0  0  0  0  0  0  0  0  0  0
  -12.2298  -36.8106  -10.5330 C   0  0  0  0  0  0  0  0  0  0  0  0
  2  1  1  6
  2  3  1  0
  3  4  1  0
  4  5  2  0
  4  6  1  0
  6  7  1  0
  7  8  1  0
  8  9  1  0
  9 10  1  0
 10 11  1  0
 11 12  1  0
 12 13  1  0
 13 14  2  0
 14 15  1  0
 16 15  1  6
 16 17  1  0
 17 18  1  0
 18 19  2  0
 16 20  1  0
 20 21  1  1
 20 22  1  0
 22 23  1  0
 23 24  1  0
 24 25  1  0
 25 26  1  0
 26 27  1  0
 27 28  1  0
 28 29  1  0
 24 30  1  0
 30 31  2  0
 31 32  1  0
 32 33  2  0
 33 34  1  0
 34 35  2  0
 32 36  1  0
 36 37  1  0
 36 38  1  0
 36 39  1  0
 14 40  1  0
 40 41  2  0
 41 42  1  0
 18  2  1  0
 29 24  1  0
 35 30  1  0
 42 12  2  0
M  END
$$$$
