
     RDKit          3D

 42 45  0  0  0  0  0  0  0  0999 V2000
  -20.5128  -41.8323   -8.9607 C   0  0  0  0  0  0  0  0  0  0  0  0
  -19.4388  -42.7378   -8.5038 C   0  0  2  0  0  0  0  0  0  0  0  0
  -19.8638  -43.7074   -7.4129 C   0  0  0  0  0  0  0  0  0  0  0  0
  -19.9053  -43.1549   -6.0668 C   0  0  0  0  0  0  0  0  0  0  0  0
  -18.9115  -42.4880   -5.6146 O   0  0  0  0  0  0  0  0  0  0  0  0
  -20.9856  -43.2794   -5.1450 N   0  0  0  0  0  0  0  0  0  0  0  0
  -22.2097  -43.9767   -5.3868 C   0  0  0  0  0  0  0  0  0  0  0  0
  -23.3038  -43.0336   -5.8796 C   0  0  0  0  0  0  0  0  0  0  0  0
  -23.4752  -41.8815   -4.8925 C   0  0  0  0  0  0  0  0  0  0  0  0
  -24.1781  -40.7201   -5.5098 C   0  0  0  0  0  0  0  0  0  0  0  0
  -23.3725  -39.6882   -5.8363 O   0  0  0  0  0  0  0  0  0  0  0  0
  -22.2029  -39.3029   -6.4156 C   0  0  0  0  0  0  0  0  0  0  0  0
  -20.8990  -39.7274   -6.1697 C   0  0  0  0  0  0  0  0  0  0  0  0
  -19.8926  -39.1676   -6.9083 C   0  0  0  0  0  0  0  0  0  0  0  0
  -18.4162  -39.3753   -6.9202 C   0  0  0  0  0  0  0  0  0  0  0  0
  -17.8074  -39.6003   -8.2837 C   0  0  2  0  0  0  0  0  0  0  0  0
  -17.5074  -40.9647   -8.6193 N   0  0  0  0  0  0  0  0  0  0  0  0
  -18.1096  -42.1768   -8.2619 C   0  0  0  0  0  0  0  0  0  0  0  0
  -17.3550  -42.9982   -7.5748 O   0  0  0  0  0  0  0  0  0  0  0  0
  -16.5303  -38.7709   -8.4439 C   0  0  2  0  0  0  0  0  0  0  0  0
  -16.9743  -37.4013   -8.4704 O   0  0  0  0  0  0  0  0  0  0  0  0
  -15.8482  -38.9411   -9.7875 C   0  0  0  0  0  0  0  0  0  0  0  0
  -15.1599  -40.1444  -10.0402 N   0  0  0  0  0  0  0  0  0  0  0  0
  -13.8280  -39.9854  -10.6001 C   0  0  0  0  0  0  0  0  0  0  0  0
  -12.9054  -39.4537   -9.5562 C   0  0  0  0  0  0  0  0  0  0  0  0
  -12.0937  -40.4163   -8.7877 C   0  0  0  0  0  0  0  0  0  0  0  0
  -11.6520  -41.6544   -9.5196 C   0  0  0  0  0  0  0  0  0  0  0  0
  -11.8394  -41.3267  -11.0142 C   0  0  0  0  0  0  0  0  0  0  0  0
  -13.3336  -41.2726  -11.2205 C   0  0  0  0  0  0  0  0  0  0  0  0
  -13.9093  -38.9664  -11.6716 C   0  0  0  0  0  0  0  0  0  0  0  0
  -13.4293  -37.6880  -11.4665 C   0  0  0  0  0  0  0  0  0  0  0  0
  -13.4997  -36.6723  -12.4085 C   0  0  0  0  0  0  0  0  0  0  0  0
  -14.0835  -36.9493  -13.6271 C   0  0  0  0  0  0  0  0  0  0  0  0
  -14.5803  -38.2047  -13.8918 C   0  0  0  0  0  0  0  0  0  0  0  0
  -14.4828  -39.1997  -12.8983 C   0  0  0  0  0  0  0  0  0  0  0  0
  -12.9578  -35.3099  -12.1204 C   0  0  0  0  0  0  0  0  0  0  0  0
  -11.5207  -35.4527  -11.6601 C   0  0  0  0  0  0  0  0  0  0  0  0
  -12.9688  -34.4672  -13.3718 C   0  0  0  0  0  0  0  0  0  0  0  0
  -13.7998  -34.6082  -11.0720 C   0  0  0  0  0  0  0  0  0  0  0  0
  -20.1954  -38.1842   -7.8881 C   0  0  0  0  0  0  0  0  0  0  0  0
  -21.4611  -37.7436   -8.1557 C   0  0  0  0  0  0  0  0  0  0  0  0
  -22.4526  -38.3209   -7.4020 C   0  0  0  0  0  0  0  0  0  0  0  0
  2  1  1  1
  2  3  1  0
  3  4  1  0
  4  5  2  0
  4  6  1  0
  6  7  1  0
  7  8  1  0
  8  9  1  0
  9 10  1  0
 10 11  1  0
 11 12  1  0
 12 13  1  0
 13 14  2  0
 14 15  1  0
 16 15  1  1
 16 17  1  0
 17 18  1  0
 18 19  2  0
 16 20  1  0
 20 21  1  6
 20 22  1  0
 22 23  1  0
 23 24  1  0
 24 25  1  0
 25 26  1  0
 26 27  1  0
 27 28  1  0
 28 29  1  0
 24 30  1  0
 30 31  2  0
 31 32  1  0
 32 33  2  0
 33 34  1  0
 34 35  2  0
 32 36  1  0
 36 37  1  0
 36 38  1  0
 36 39  1  0
 14 40  1  0
 40 41  2  0
 41 42  1  0
 18  2  1  0
 29 24  1  0
 35 30  1  0
 42 12  2  0
M  END
$$$$
