
     RDKit          3D

 42 46  0  0  0  0  0  0  0  0999 V2000
  -21.1740  -39.1233  -11.5846 C   0  0  0  0  0  0  0  0  0  0  0  0
  -19.7367  -39.4355  -11.7862 C   0  0  0  0  0  0  0  0  0  0  0  0
  -18.9443  -39.8103  -10.7275 C   0  0  0  0  0  0  0  0  0  0  0  0
  -17.5663  -40.1229  -10.8432 C   0  0  0  0  0  0  0  0  0  0  0  0
  -16.9749  -40.0497  -12.0921 C   0  0  0  0  0  0  0  0  0  0  0  0
  -17.7663  -39.6761  -13.1525 C   0  0  0  0  0  0  0  0  0  0  0  0
  -17.5212  -39.5280  -14.5627 N   0  0  0  0  0  0  0  0  0  0  0  0
  -16.6261  -38.7219  -15.3007 C   0  0  0  0  0  0  0  0  0  0  0  0
  -15.1401  -38.9372  -15.1145 C   0  0  0  0  0  0  0  0  0  0  0  0
  -14.3197  -38.6687  -14.1625 C   0  0  0  0  0  0  0  0  0  0  0  0
  -12.8462  -38.8542  -13.9248 C   0  0  0  0  0  0  0  0  0  0  0  0
  -12.4061  -38.1395  -12.7605 O   0  0  0  0  0  0  0  0  0  0  0  0
  -13.1494  -37.5724  -11.7174 C   0  0  0  0  0  0  0  0  0  0  0  0
  -14.0500  -38.1925  -10.8654 C   0  0  0  0  0  0  0  0  0  0  0  0
  -14.6666  -37.4157   -9.9240 C   0  0  0  0  0  0  0  0  0  0  0  0
  -15.7128  -37.7731   -8.9201 C   0  0  0  0  0  0  0  0  0  0  0  0
  -15.5212  -38.9965   -8.0886 C   0  0  2  0  0  0  0  0  0  0  0  0
  -15.9181  -40.1945   -8.7600 N   0  0  0  0  0  0  0  0  0  0  0  0
  -17.0462  -40.5160   -9.5236 C   0  0  0  0  0  0  0  0  0  0  0  0
  -17.8114  -41.3936   -8.8604 O   0  0  0  0  0  0  0  0  0  0  0  0
  -15.9896  -38.8604   -6.6722 C   0  0  2  0  0  0  0  0  0  0  0  0
  -14.8880  -38.5339   -5.8873 O   0  0  0  0  0  0  0  0  0  0  0  0
  -16.7721  -40.0074   -6.1455 C   0  0  0  0  0  0  0  0  0  0  0  0
  -18.1857  -39.8664   -6.2830 N   0  0  0  0  0  0  0  0  0  0  0  0
  -18.9316  -41.0907   -6.3185 C   0  0  0  0  0  0  0  0  0  0  0  0
  -18.6283  -42.2042   -7.1989 C   0  0  0  0  0  0  0  0  0  0  0  0
  -18.1265  -42.3188   -5.7666 C   0  0  0  0  0  0  0  0  0  0  0  0
  -20.2757  -40.9881   -5.6997 C   0  0  0  0  0  0  0  0  0  0  0  0
  -21.1893  -40.0107   -6.1146 C   0  0  0  0  0  0  0  0  0  0  0  0
  -22.4294  -39.8540   -5.5914 C   0  0  0  0  0  0  0  0  0  0  0  0
  -22.8288  -40.6979   -4.5922 C   0  0  0  0  0  0  0  0  0  0  0  0
  -21.9783  -41.6825   -4.1369 C   0  0  0  0  0  0  0  0  0  0  0  0
  -20.7283  -41.8098   -4.6930 C   0  0  0  0  0  0  0  0  0  0  0  0
  -23.2946  -38.7737   -6.1379 C   0  0  0  0  0  0  0  0  0  0  0  0
  -22.8211  -37.4219   -5.6488 C   0  0  0  0  0  0  0  0  0  0  0  0
  -24.7257  -38.9246   -5.6484 C   0  0  0  0  0  0  0  0  0  0  0  0
  -23.2721  -38.7511   -7.6485 C   0  0  0  0  0  0  0  0  0  0  0  0
  -14.3634  -36.0332   -9.8527 C   0  0  0  0  0  0  0  0  0  0  0  0
  -13.4766  -35.3927  -10.6753 C   0  0  0  0  0  0  0  0  0  0  0  0
  -12.8741  -36.1971  -11.6129 C   0  0  0  0  0  0  0  0  0  0  0  0
  -11.9559  -35.5537  -12.4208 F   0  0  0  0  0  0  0  0  0  0  0  0
  -19.1149  -39.3865  -12.9388 N   0  0  0  0  0  0  0  0  0  0  0  0
  1  2  1  0
  2  3  2  0
  3  4  1  0
  4  5  2  0
  5  6  1  0
  6  7  1  0
  7  8  1  0
  8  9  1  0
  9 10  2  0
 10 11  1  0
 11 12  1  0
 12 13  1  0
 13 14  2  0
 14 15  1  0
 15 16  1  0
 17 16  1  6
 17 18  1  0
 18 19  1  0
 19 20  2  0
 17 21  1  0
 21 22  1  1
 21 23  1  0
 23 24  1  0
 24 25  1  0
 25 26  1  0
 26 27  1  0
 25 28  1  0
 28 29  2  0
 29 30  1  0
 30 31  2  0
 31 32  1  0
 32 33  2  0
 30 34  1  0
 34 35  1  0
 34 36  1  0
 34 37  1  0
 15 38  2  0
 38 39  1  0
 39 40  2  0
 40 41  1  0
  6 42  2  0
 19  4  1  0
 27 25  1  0
 33 28  1  0
 40 13  1  0
 42  2  1  0
M  END
$$$$
