
     RDKit          3D

 42 46  0  0  0  0  0  0  0  0999 V2000
  -17.2693  -34.3089  -10.6812 C   0  0  0  0  0  0  0  0  0  0  0  0
  -16.8580  -35.6330  -11.2120 C   0  0  0  0  0  0  0  0  0  0  0  0
  -17.1393  -36.7858  -10.5184 C   0  0  0  0  0  0  0  0  0  0  0  0
  -16.7786  -38.0832  -10.9618 C   0  0  0  0  0  0  0  0  0  0  0  0
  -16.1035  -38.2066  -12.1634 C   0  0  0  0  0  0  0  0  0  0  0  0
  -15.8224  -37.0546  -12.8593 C   0  0  0  0  0  0  0  0  0  0  0  0
  -15.1867  -36.7960  -14.1240 N   0  0  0  0  0  0  0  0  0  0  0  0
  -13.8996  -37.0883  -14.6276 C   0  0  0  0  0  0  0  0  0  0  0  0
  -13.4954  -38.5387  -14.7761 C   0  0  0  0  0  0  0  0  0  0  0  0
  -13.1837  -39.4607  -13.9369 C   0  0  0  0  0  0  0  0  0  0  0  0
  -12.7741  -40.9052  -14.0253 C   0  0  0  0  0  0  0  0  0  0  0  0
  -12.3055  -41.3984  -12.7614 O   0  0  0  0  0  0  0  0  0  0  0  0
  -12.4396  -40.8556  -11.4771 C   0  0  0  0  0  0  0  0  0  0  0  0
  -13.6025  -40.5280  -10.7975 C   0  0  0  0  0  0  0  0  0  0  0  0
  -13.4735  -39.9941   -9.5453 C   0  0  0  0  0  0  0  0  0  0  0  0
  -14.5180  -39.4918   -8.6037 C   0  0  0  0  0  0  0  0  0  0  0  0
  -15.7196  -40.3376   -8.3474 C   0  0  2  0  0  0  0  0  0  0  0  0
  -16.7238  -40.1991   -9.3552 N   0  0  0  0  0  0  0  0  0  0  0  0
  -17.2676  -39.0791   -9.9947 C   0  0  0  0  0  0  0  0  0  0  0  0
  -18.5383  -38.9044   -9.6073 O   0  0  0  0  0  0  0  0  0  0  0  0
  -16.2104  -40.3010   -6.9325 C   0  0  2  0  0  0  0  0  0  0  0  0
  -15.5325  -41.2851   -6.2195 O   0  0  0  0  0  0  0  0  0  0  0  0
  -17.6849  -40.3600   -6.7665 C   0  0  0  0  0  0  0  0  0  0  0  0
  -18.2111  -39.4037   -5.8468 N   0  0  0  0  0  0  0  0  0  0  0  0
  -19.5588  -38.9806   -6.0938 C   0  0  0  0  0  0  0  0  0  0  0  0
  -20.1817  -37.8331   -5.4594 C   0  0  0  0  0  0  0  0  0  0  0  0
  -19.6449  -37.6184   -6.8673 C   0  0  0  0  0  0  0  0  0  0  0  0
  -20.4067  -40.0251   -6.7184 C   0  0  0  0  0  0  0  0  0  0  0  0
  -21.6768  -39.7180   -7.2231 C   0  0  0  0  0  0  0  0  0  0  0  0
  -22.5074  -40.6201   -7.7999 C   0  0  0  0  0  0  0  0  0  0  0  0
  -22.0921  -41.9189   -7.9024 C   0  0  0  0  0  0  0  0  0  0  0  0
  -20.8527  -42.2888   -7.4257 C   0  0  0  0  0  0  0  0  0  0  0  0
  -20.0388  -41.3447   -6.8474 C   0  0  0  0  0  0  0  0  0  0  0  0
  -23.8274  -40.1465   -8.2976 C   0  0  0  0  0  0  0  0  0  0  0  0
  -24.9263  -40.5443   -7.3358 C   0  0  0  0  0  0  0  0  0  0  0  0
  -24.1713  -40.7975   -9.6274 C   0  0  0  0  0  0  0  0  0  0  0  0
  -23.8628  -38.6429   -8.4416 C   0  0  0  0  0  0  0  0  0  0  0  0
  -12.1802  -39.8044   -8.9976 C   0  0  0  0  0  0  0  0  0  0  0  0
  -11.0142  -40.1214   -9.6403 C   0  0  0  0  0  0  0  0  0  0  0  0
  -11.1741  -40.6536  -10.8975 C   0  0  0  0  0  0  0  0  0  0  0  0
   -9.9962  -41.0019  -11.5308 F   0  0  0  0  0  0  0  0  0  0  0  0
  -16.2181  -35.8208  -12.3401 N   0  0  0  0  0  0  0  0  0  0  0  0
  1  2  1  0
  2  3  2  0
  3  4  1  0
  4  5  2  0
  5  6  1  0
  6  7  1  0
  7  8  1  0
  8  9  1  0
  9 10  2  0
 10 11  1  0
 11 12  1  0
 12 13  1  0
 13 14  2  0
 14 15  1  0
 15 16  1  0
 17 16  1  1
 17 18  1  0
 18 19  1  0
 19 20  2  0
 17 21  1  0
 21 22  1  1
 21 23  1  0
 23 24  1  0
 24 25  1  0
 25 26  1  0
 26 27  1  0
 25 28  1  0
 28 29  2  0
 29 30  1  0
 30 31  2  0
 31 32  1  0
 32 33  2  0
 30 34  1  0
 34 35  1  0
 34 36  1  0
 34 37  1  0
 15 38  2  0
 38 39  1  0
 39 40  2  0
 40 41  1  0
  6 42  2  0
 19  4  1  0
 27 25  1  0
 33 28  1  0
 40 13  1  0
 42  2  1  0
M  END
$$$$
