
     RDKit          3D

 42 46  0  0  0  0  0  0  0  0999 V2000
  -17.3046  -46.0333   -7.8400 C   0  0  0  0  0  0  0  0  0  0  0  0
  -18.4301  -45.1087   -8.1269 C   0  0  0  0  0  0  0  0  0  0  0  0
  -18.1921  -43.8182   -8.5358 C   0  0  0  0  0  0  0  0  0  0  0  0
  -19.2142  -42.8801   -8.8274 C   0  0  0  0  0  0  0  0  0  0  0  0
  -20.5331  -43.2779   -8.6960 C   0  0  0  0  0  0  0  0  0  0  0  0
  -20.7731  -44.5689   -8.2883 C   0  0  0  0  0  0  0  0  0  0  0  0
  -21.9761  -45.3302   -8.0795 N   0  0  0  0  0  0  0  0  0  0  0  0
  -23.0924  -45.1462   -7.2334 C   0  0  0  0  0  0  0  0  0  0  0  0
  -23.9597  -43.9236   -7.4390 C   0  0  0  0  0  0  0  0  0  0  0  0
  -23.7948  -42.6717   -7.2004 C   0  0  0  0  0  0  0  0  0  0  0  0
  -24.6145  -41.4233   -7.3784 C   0  0  0  0  0  0  0  0  0  0  0  0
  -24.0203  -40.3024   -6.7071 O   0  0  0  0  0  0  0  0  0  0  0  0
  -22.7274  -40.1431   -6.1921 C   0  0  0  0  0  0  0  0  0  0  0  0
  -21.5160  -40.2511   -6.8570 C   0  0  0  0  0  0  0  0  0  0  0  0
  -20.3754  -40.0622   -6.1268 C   0  0  0  0  0  0  0  0  0  0  0  0
  -18.9437  -40.1713   -6.5373 C   0  0  0  0  0  0  0  0  0  0  0  0
  -18.5033  -39.4947   -7.7915 C   0  0  2  0  0  0  0  0  0  0  0  0
  -18.7800  -40.2621   -8.9654 N   0  0  0  0  0  0  0  0  0  0  0  0
  -18.6010  -41.6169   -9.2683 C   0  0  0  0  0  0  0  0  0  0  0  0
  -17.6301  -41.7560  -10.1812 O   0  0  0  0  0  0  0  0  0  0  0  0
  -17.1349  -38.8894   -7.7192 C   0  0  2  0  0  0  0  0  0  0  0  0
  -17.2362  -37.6855   -7.0287 O   0  0  0  0  0  0  0  0  0  0  0  0
  -16.4205  -38.7696   -9.0155 C   0  0  0  0  0  0  0  0  0  0  0  0
  -15.2396  -37.9696   -8.9635 N   0  0  0  0  0  0  0  0  0  0  0  0
  -14.4314  -37.9772  -10.1480 C   0  0  0  0  0  0  0  0  0  0  0  0
  -14.2547  -36.8311  -11.0211 C   0  0  0  0  0  0  0  0  0  0  0  0
  -13.1403  -37.0954  -10.0187 C   0  0  0  0  0  0  0  0  0  0  0  0
  -14.1228  -39.3382  -10.6505 C   0  0  0  0  0  0  0  0  0  0  0  0
  -12.7990  -39.7787  -10.7764 C   0  0  0  0  0  0  0  0  0  0  0  0
  -12.4426  -41.0037  -11.2332 C   0  0  0  0  0  0  0  0  0  0  0  0
  -13.4288  -41.8775  -11.5991 C   0  0  0  0  0  0  0  0  0  0  0  0
  -14.7529  -41.5073  -11.4999 C   0  0  0  0  0  0  0  0  0  0  0  0
  -15.0744  -40.2561  -11.0318 C   0  0  0  0  0  0  0  0  0  0  0  0
  -10.9938  -41.3355  -11.3062 C   0  0  0  0  0  0  0  0  0  0  0  0
  -10.2211  -40.1879  -11.9200 C   0  0  0  0  0  0  0  0  0  0  0  0
  -10.7569  -42.5366  -12.2072 C   0  0  0  0  0  0  0  0  0  0  0  0
  -10.4127  -41.6026   -9.9372 C   0  0  0  0  0  0  0  0  0  0  0  0
  -20.4731  -39.7633   -4.7449 C   0  0  0  0  0  0  0  0  0  0  0  0
  -21.6527  -39.6453   -4.0610 C   0  0  0  0  0  0  0  0  0  0  0  0
  -22.7821  -39.8427   -4.8191 C   0  0  0  0  0  0  0  0  0  0  0  0
  -23.9718  -39.6916   -4.1325 F   0  0  0  0  0  0  0  0  0  0  0  0
  -19.6989  -45.4199   -8.0234 N   0  0  0  0  0  0  0  0  0  0  0  0
  1  2  1  0
  2  3  2  0
  3  4  1  0
  4  5  2  0
  5  6  1  0
  6  7  1  0
  7  8  1  0
  8  9  1  0
  9 10  2  0
 10 11  1  0
 11 12  1  0
 12 13  1  0
 13 14  2  0
 14 15  1  0
 15 16  1  0
 17 16  1  1
 17 18  1  0
 18 19  1  0
 19 20  2  0
 17 21  1  0
 21 22  1  6
 21 23  1  0
 23 24  1  0
 24 25  1  0
 25 26  1  0
 26 27  1  0
 25 28  1  0
 28 29  2  0
 29 30  1  0
 30 31  2  0
 31 32  1  0
 32 33  2  0
 30 34  1  0
 34 35  1  0
 34 36  1  0
 34 37  1  0
 15 38  2  0
 38 39  1  0
 39 40  2  0
 40 41  1  0
  6 42  2  0
 19  4  1  0
 27 25  1  0
 33 28  1  0
 40 13  1  0
 42  2  1  0
M  END
$$$$
