
     RDKit          3D

 42 46  0  0  0  0  0  0  0  0999 V2000
  -19.5121  -44.1824  -11.0608 C   0  0  0  0  0  0  0  0  0  0  0  0
  -18.2809  -43.4086  -10.7614 C   0  0  0  0  0  0  0  0  0  0  0  0
  -18.2550  -42.5022   -9.7284 C   0  0  0  0  0  0  0  0  0  0  0  0
  -17.1180  -41.7286   -9.3839 C   0  0  0  0  0  0  0  0  0  0  0  0
  -15.9606  -41.8888  -10.1254 C   0  0  0  0  0  0  0  0  0  0  0  0
  -15.9843  -42.7960  -11.1582 C   0  0  0  0  0  0  0  0  0  0  0  0
  -14.9929  -43.2468  -12.0986 N   0  0  0  0  0  0  0  0  0  0  0  0
  -14.2173  -42.5752  -13.0697 C   0  0  0  0  0  0  0  0  0  0  0  0
  -13.2301  -41.5268  -12.6056 C   0  0  0  0  0  0  0  0  0  0  0  0
  -13.3579  -40.3360  -12.1397 C   0  0  0  0  0  0  0  0  0  0  0  0
  -12.4224  -39.2562  -11.6694 C   0  0  0  0  0  0  0  0  0  0  0  0
  -13.1102  -38.0120  -11.4725 O   0  0  0  0  0  0  0  0  0  0  0  0
  -14.4823  -37.7466  -11.3777 C   0  0  0  0  0  0  0  0  0  0  0  0
  -15.4020  -38.2739  -10.4846 C   0  0  0  0  0  0  0  0  0  0  0  0
  -16.7016  -37.8650  -10.6008 C   0  0  0  0  0  0  0  0  0  0  0  0
  -17.9138  -38.2915   -9.8400 C   0  0  0  0  0  0  0  0  0  0  0  0
  -17.8441  -38.3456   -8.3510 C   0  0  2  0  0  0  0  0  0  0  0  0
  -17.2536  -39.5530   -7.8642 N   0  0  0  0  0  0  0  0  0  0  0  0
  -17.4351  -40.8965   -8.2120 C   0  0  0  0  0  0  0  0  0  0  0  0
  -18.0481  -41.5476   -7.2141 O   0  0  0  0  0  0  0  0  0  0  0  0
  -19.0990  -37.9112   -7.6577 C   0  0  2  0  0  0  0  0  0  0  0  0
  -18.8430  -36.6943   -7.0334 O   0  0  0  0  0  0  0  0  0  0  0  0
  -19.7131  -38.9201   -6.7576 C   0  0  0  0  0  0  0  0  0  0  0  0
  -19.6907  -38.5650   -5.3753 N   0  0  0  0  0  0  0  0  0  0  0  0
  -19.3581  -39.6239   -4.4672 C   0  0  0  0  0  0  0  0  0  0  0  0
  -18.0024  -39.9710   -4.0819 C   0  0  0  0  0  0  0  0  0  0  0  0
  -18.7833  -39.1070   -3.1021 C   0  0  0  0  0  0  0  0  0  0  0  0
  -20.4524  -40.6055   -4.2696 C   0  0  0  0  0  0  0  0  0  0  0  0
  -21.6840  -40.4549   -4.9196 C   0  0  0  0  0  0  0  0  0  0  0  0
  -22.7289  -41.3068   -4.7820 C   0  0  0  0  0  0  0  0  0  0  0  0
  -22.5861  -42.3885   -3.9577 C   0  0  0  0  0  0  0  0  0  0  0  0
  -21.3994  -42.5961   -3.2877 C   0  0  0  0  0  0  0  0  0  0  0  0
  -20.3626  -41.7098   -3.4535 C   0  0  0  0  0  0  0  0  0  0  0  0
  -23.9762  -41.0223   -5.5419 C   0  0  0  0  0  0  0  0  0  0  0  0
  -23.6785  -40.9176   -7.0222 C   0  0  0  0  0  0  0  0  0  0  0  0
  -24.5678  -39.6834   -5.1324 C   0  0  0  0  0  0  0  0  0  0  0  0
  -25.0049  -42.1131   -5.3546 C   0  0  0  0  0  0  0  0  0  0  0  0
  -17.0518  -36.9311  -11.6076 C   0  0  0  0  0  0  0  0  0  0  0  0
  -16.1677  -36.3890  -12.5007 C   0  0  0  0  0  0  0  0  0  0  0  0
  -14.8697  -36.8198  -12.3621 C   0  0  0  0  0  0  0  0  0  0  0  0
  -13.9742  -36.2466  -13.2448 F   0  0  0  0  0  0  0  0  0  0  0  0
  -17.1536  -43.5114  -11.4217 N   0  0  0  0  0  0  0  0  0  0  0  0
  1  2  1  0
  2  3  2  0
  3  4  1  0
  4  5  2  0
  5  6  1  0
  6  7  1  0
  7  8  1  0
  8  9  1  0
  9 10  2  0
 10 11  1  0
 11 12  1  0
 12 13  1  0
 13 14  2  0
 14 15  1  0
 15 16  1  0
 17 16  1  6
 17 18  1  0
 18 19  1  0
 19 20  2  0
 17 21  1  0
 21 22  1  1
 21 23  1  0
 23 24  1  0
 24 25  1  0
 25 26  1  0
 26 27  1  0
 25 28  1  0
 28 29  2  0
 29 30  1  0
 30 31  2  0
 31 32  1  0
 32 33  2  0
 30 34  1  0
 34 35  1  0
 34 36  1  0
 34 37  1  0
 15 38  2  0
 38 39  1  0
 39 40  2  0
 40 41  1  0
  6 42  2  0
 19  4  1  0
 27 25  1  0
 33 28  1  0
 40 13  1  0
 42  2  1  0
M  END
$$$$
