
     RDKit          3D

 42 46  0  0  0  0  0  0  0  0999 V2000
  -18.4814  -46.1384   -6.8067 C   0  0  0  0  0  0  0  0  0  0  0  0
  -19.1450  -45.0539   -7.5733 C   0  0  0  0  0  0  0  0  0  0  0  0
  -18.4424  -43.9393   -7.9648 C   0  0  0  0  0  0  0  0  0  0  0  0
  -19.0078  -42.8654   -8.6976 C   0  0  0  0  0  0  0  0  0  0  0  0
  -20.3457  -42.9343   -9.0442 C   0  0  0  0  0  0  0  0  0  0  0  0
  -21.0499  -44.0491   -8.6546 C   0  0  0  0  0  0  0  0  0  0  0  0
  -22.4082  -44.4787   -8.8564 N   0  0  0  0  0  0  0  0  0  0  0  0
  -23.6548  -43.9086   -8.5149 C   0  0  0  0  0  0  0  0  0  0  0  0
  -24.0343  -42.5807   -9.1327 C   0  0  0  0  0  0  0  0  0  0  0  0
  -23.6319  -41.3737   -8.9521 C   0  0  0  0  0  0  0  0  0  0  0  0
  -23.9712  -40.0266   -9.5286 C   0  0  0  0  0  0  0  0  0  0  0  0
  -23.3679  -38.9640   -8.7757 O   0  0  0  0  0  0  0  0  0  0  0  0
  -22.3413  -39.0050   -7.8236 C   0  0  0  0  0  0  0  0  0  0  0  0
  -21.0514  -39.4914   -7.9682 C   0  0  0  0  0  0  0  0  0  0  0  0
  -20.2281  -39.4329   -6.8780 C   0  0  0  0  0  0  0  0  0  0  0  0
  -18.8286  -39.9241   -6.7045 C   0  0  0  0  0  0  0  0  0  0  0  0
  -17.8167  -39.5913   -7.7485 C   0  0  2  0  0  0  0  0  0  0  0  0
  -17.8655  -40.4725   -8.8730 N   0  0  0  0  0  0  0  0  0  0  0  0
  -17.9642  -41.8651   -8.9741 C   0  0  0  0  0  0  0  0  0  0  0  0
  -16.8131  -42.3719   -9.4360 O   0  0  0  0  0  0  0  0  0  0  0  0
  -16.4489  -39.2985   -7.2122 C   0  0  2  0  0  0  0  0  0  0  0  0
  -16.5204  -38.1160   -6.4821 O   0  0  0  0  0  0  0  0  0  0  0  0
  -15.3540  -39.3092   -8.2153 C   0  0  0  0  0  0  0  0  0  0  0  0
  -14.4941  -40.4455   -8.1340 N   0  0  0  0  0  0  0  0  0  0  0  0
  -13.3376  -40.4112   -8.9811 C   0  0  0  0  0  0  0  0  0  0  0  0
  -11.9842  -40.6669   -8.5229 C   0  0  0  0  0  0  0  0  0  0  0  0
  -12.6966  -41.8253   -9.2062 C   0  0  0  0  0  0  0  0  0  0  0  0
  -13.5569  -39.6941  -10.2608 C   0  0  0  0  0  0  0  0  0  0  0  0
  -13.2914  -38.3235  -10.3755 C   0  0  0  0  0  0  0  0  0  0  0  0
  -13.4738  -37.6030  -11.5086 C   0  0  0  0  0  0  0  0  0  0  0  0
  -13.9478  -38.2423  -12.6207 C   0  0  0  0  0  0  0  0  0  0  0  0
  -14.2294  -39.5910  -12.5761 C   0  0  0  0  0  0  0  0  0  0  0  0
  -14.0311  -40.2873  -11.4083 C   0  0  0  0  0  0  0  0  0  0  0  0
  -13.1416  -36.1527  -11.4839 C   0  0  0  0  0  0  0  0  0  0  0  0
  -11.8429  -35.9226  -10.7415 C   0  0  0  0  0  0  0  0  0  0  0  0
  -14.2040  -35.3653  -10.7343 C   0  0  0  0  0  0  0  0  0  0  0  0
  -12.9810  -35.5930  -12.8781 C   0  0  0  0  0  0  0  0  0  0  0  0
  -20.7138  -38.8825   -5.6657 C   0  0  0  0  0  0  0  0  0  0  0  0
  -21.9790  -38.3903   -5.4922 C   0  0  0  0  0  0  0  0  0  0  0  0
  -22.7848  -38.4643   -6.6033 C   0  0  0  0  0  0  0  0  0  0  0  0
  -24.0511  -37.9375   -6.4339 F   0  0  0  0  0  0  0  0  0  0  0  0
  -20.4050  -45.0555   -7.9337 N   0  0  0  0  0  0  0  0  0  0  0  0
  1  2  1  0
  2  3  2  0
  3  4  1  0
  4  5  2  0
  5  6  1  0
  6  7  1  0
  7  8  1  0
  8  9  1  0
  9 10  2  0
 10 11  1  0
 11 12  1  0
 12 13  1  0
 13 14  2  0
 14 15  1  0
 15 16  1  0
 17 16  1  1
 17 18  1  0
 18 19  1  0
 19 20  2  0
 17 21  1  0
 21 22  1  6
 21 23  1  0
 23 24  1  0
 24 25  1  0
 25 26  1  0
 26 27  1  0
 25 28  1  0
 28 29  2  0
 29 30  1  0
 30 31  2  0
 31 32  1  0
 32 33  2  0
 30 34  1  0
 34 35  1  0
 34 36  1  0
 34 37  1  0
 15 38  2  0
 38 39  1  0
 39 40  2  0
 40 41  1  0
  6 42  2  0
 19  4  1  0
 27 25  1  0
 33 28  1  0
 40 13  1  0
 42  2  1  0
M  END
$$$$
