
     RDKit          3D

 42 46  0  0  0  0  0  0  0  0999 V2000
  -15.2616  -44.1227  -11.2080 C   0  0  0  0  0  0  0  0  0  0  0  0
  -14.6225  -42.8621  -10.7534 C   0  0  0  0  0  0  0  0  0  0  0  0
  -15.2459  -42.0494   -9.8368 C   0  0  0  0  0  0  0  0  0  0  0  0
  -14.6978  -40.8331   -9.3570 C   0  0  0  0  0  0  0  0  0  0  0  0
  -13.4621  -40.4320   -9.8334 C   0  0  0  0  0  0  0  0  0  0  0  0
  -12.8364  -41.2444  -10.7494 C   0  0  0  0  0  0  0  0  0  0  0  0
  -11.5661  -41.1777  -11.4220 N   0  0  0  0  0  0  0  0  0  0  0  0
  -10.9875  -40.2207  -12.2852 C   0  0  0  0  0  0  0  0  0  0  0  0
  -10.7208  -38.8319  -11.7474 C   0  0  0  0  0  0  0  0  0  0  0  0
  -11.4793  -37.8400  -11.4438 C   0  0  0  0  0  0  0  0  0  0  0  0
  -11.2728  -36.4478  -10.9135 C   0  0  0  0  0  0  0  0  0  0  0  0
  -12.4775  -35.6712  -10.9885 O   0  0  0  0  0  0  0  0  0  0  0  0
  -13.8012  -36.0800  -11.1959 C   0  0  0  0  0  0  0  0  0  0  0  0
  -14.5522  -36.9769  -10.4524 C   0  0  0  0  0  0  0  0  0  0  0  0
  -15.8317  -37.2250  -10.8662 C   0  0  0  0  0  0  0  0  0  0  0  0
  -16.8509  -38.1701  -10.3201 C   0  0  0  0  0  0  0  0  0  0  0  0
  -17.1002  -38.1854   -8.8496 C   0  0  2  0  0  0  0  0  0  0  0  0
  -16.1494  -38.9751   -8.1314 N   0  0  0  0  0  0  0  0  0  0  0  0
  -15.6138  -40.2470   -8.3652 C   0  0  0  0  0  0  0  0  0  0  0  0
  -16.0679  -41.1095   -7.4458 O   0  0  0  0  0  0  0  0  0  0  0  0
  -18.5343  -38.3901   -8.4682 C   0  0  2  0  0  0  0  0  0  0  0  0
  -19.1927  -37.1727   -8.6123 O   0  0  0  0  0  0  0  0  0  0  0  0
  -18.7585  -39.0312   -7.1476 C   0  0  0  0  0  0  0  0  0  0  0  0
  -19.2135  -40.3821   -7.2203 N   0  0  0  0  0  0  0  0  0  0  0  0
  -19.6118  -40.9713   -5.9751 C   0  0  0  0  0  0  0  0  0  0  0  0
  -19.0284  -42.1800   -5.4222 C   0  0  0  0  0  0  0  0  0  0  0  0
  -18.5115  -40.8626   -4.8622 C   0  0  0  0  0  0  0  0  0  0  0  0
  -20.9346  -40.5061   -5.4915 C   0  0  0  0  0  0  0  0  0  0  0  0
  -22.0968  -40.7284   -6.2411 C   0  0  0  0  0  0  0  0  0  0  0  0
  -23.3355  -40.3270   -5.8657 C   0  0  0  0  0  0  0  0  0  0  0  0
  -23.4753  -39.6600   -4.6801 C   0  0  0  0  0  0  0  0  0  0  0  0
  -22.3717  -39.4085   -3.8934 C   0  0  0  0  0  0  0  0  0  0  0  0
  -21.1320  -39.8318   -4.3083 C   0  0  0  0  0  0  0  0  0  0  0  0
  -24.4808  -40.6399   -6.7628 C   0  0  0  0  0  0  0  0  0  0  0  0
  -24.2301  -41.9354   -7.5043 C   0  0  0  0  0  0  0  0  0  0  0  0
  -24.6456  -39.5671   -7.8268 C   0  0  0  0  0  0  0  0  0  0  0  0
  -25.7698  -40.7934   -5.9895 C   0  0  0  0  0  0  0  0  0  0  0  0
  -16.3340  -36.5641  -12.0148 C   0  0  0  0  0  0  0  0  0  0  0  0
  -15.6203  -35.6707  -12.7668 C   0  0  0  0  0  0  0  0  0  0  0  0
  -14.3373  -35.4427  -12.3294 C   0  0  0  0  0  0  0  0  0  0  0  0
  -13.6303  -34.5165  -13.0723 F   0  0  0  0  0  0  0  0  0  0  0  0
  -13.4570  -42.4243  -11.1627 N   0  0  0  0  0  0  0  0  0  0  0  0
  1  2  1  0
  2  3  2  0
  3  4  1  0
  4  5  2  0
  5  6  1  0
  6  7  1  0
  7  8  1  0
  8  9  1  0
  9 10  2  0
 10 11  1  0
 11 12  1  0
 12 13  1  0
 13 14  2  0
 14 15  1  0
 15 16  1  0
 17 16  1  6
 17 18  1  0
 18 19  1  0
 19 20  2  0
 17 21  1  0
 21 22  1  1
 21 23  1  0
 23 24  1  0
 24 25  1  0
 25 26  1  0
 26 27  1  0
 25 28  1  0
 28 29  2  0
 29 30  1  0
 30 31  2  0
 31 32  1  0
 32 33  2  0
 30 34  1  0
 34 35  1  0
 34 36  1  0
 34 37  1  0
 15 38  2  0
 38 39  1  0
 39 40  2  0
 40 41  1  0
  6 42  2  0
 19  4  1  0
 27 25  1  0
 33 28  1  0
 40 13  1  0
 42  2  1  0
M  END
$$$$
