
     RDKit          3D

 42 46  0  0  0  0  0  0  0  0999 V2000
  -21.1303  -40.5940  -12.5035 C   0  0  0  0  0  0  0  0  0  0  0  0
  -19.7077  -40.8507  -12.1650 C   0  0  0  0  0  0  0  0  0  0  0  0
  -19.2658  -40.7524  -10.8672 C   0  0  0  0  0  0  0  0  0  0  0  0
  -17.9247  -40.9825  -10.4692 C   0  0  0  0  0  0  0  0  0  0  0  0
  -16.9982  -41.3275  -11.4375 C   0  0  0  0  0  0  0  0  0  0  0  0
  -17.4387  -41.4276  -12.7361 C   0  0  0  0  0  0  0  0  0  0  0  0
  -16.7950  -41.7879  -13.9714 N   0  0  0  0  0  0  0  0  0  0  0  0
  -15.6973  -41.2436  -14.6748 C   0  0  0  0  0  0  0  0  0  0  0  0
  -14.3358  -41.2650  -14.0155 C   0  0  0  0  0  0  0  0  0  0  0  0
  -13.8131  -40.6068  -13.0433 C   0  0  0  0  0  0  0  0  0  0  0  0
  -12.4771  -40.5826  -12.3529 C   0  0  0  0  0  0  0  0  0  0  0  0
  -12.3631  -39.4610  -11.4647 O   0  0  0  0  0  0  0  0  0  0  0  0
  -13.3528  -38.6084  -10.9589 C   0  0  0  0  0  0  0  0  0  0  0  0
  -14.4815  -38.9388  -10.2253 C   0  0  0  0  0  0  0  0  0  0  0  0
  -15.3133  -37.9195   -9.8523 C   0  0  0  0  0  0  0  0  0  0  0  0
  -16.6153  -37.9615   -9.1222 C   0  0  0  0  0  0  0  0  0  0  0  0
  -16.7144  -38.7780   -7.8780 C   0  0  2  0  0  0  0  0  0  0  0  0
  -16.9458  -40.1645   -8.1382 N   0  0  0  0  0  0  0  0  0  0  0  0
  -17.8189  -40.8258   -9.0096 C   0  0  0  0  0  0  0  0  0  0  0  0
  -18.7732  -41.4541   -8.3097 O   0  0  0  0  0  0  0  0  0  0  0  0
  -17.5635  -38.1684   -6.8049 C   0  0  2  0  0  0  0  0  0  0  0  0
  -17.0304  -36.9209   -6.4953 O   0  0  0  0  0  0  0  0  0  0  0  0
  -17.7985  -39.0234   -5.6138 C   0  0  0  0  0  0  0  0  0  0  0  0
  -18.5961  -40.1793   -5.8687 N   0  0  0  0  0  0  0  0  0  0  0  0
  -19.4199  -40.6181   -4.7800 C   0  0  0  0  0  0  0  0  0  0  0  0
  -18.9100  -41.2413   -3.5722 C   0  0  0  0  0  0  0  0  0  0  0  0
  -19.2350  -39.7572   -3.4816 C   0  0  0  0  0  0  0  0  0  0  0  0
  -20.8502  -40.7746   -5.1400 C   0  0  0  0  0  0  0  0  0  0  0  0
  -21.2348  -41.5096   -6.2688 C   0  0  0  0  0  0  0  0  0  0  0  0
  -22.5193  -41.6890   -6.6615 C   0  0  0  0  0  0  0  0  0  0  0  0
  -23.5159  -41.1209   -5.9171 C   0  0  0  0  0  0  0  0  0  0  0  0
  -23.2064  -40.3846   -4.7936 C   0  0  0  0  0  0  0  0  0  0  0  0
  -21.8916  -40.2255   -4.4275 C   0  0  0  0  0  0  0  0  0  0  0  0
  -22.7775  -42.5018   -7.8809 C   0  0  0  0  0  0  0  0  0  0  0  0
  -24.0871  -42.0919   -8.5193 C   0  0  0  0  0  0  0  0  0  0  0  0
  -22.9182  -43.9745   -7.5317 C   0  0  0  0  0  0  0  0  0  0  0  0
  -21.6867  -42.3241   -8.9113 C   0  0  0  0  0  0  0  0  0  0  0  0
  -14.9931  -36.5884  -10.2181 C   0  0  0  0  0  0  0  0  0  0  0  0
  -13.8853  -36.2293  -10.9372 C   0  0  0  0  0  0  0  0  0  0  0  0
  -13.0691  -37.2739  -11.3005 C   0  0  0  0  0  0  0  0  0  0  0  0
  -11.9353  -36.9044  -11.9989 F   0  0  0  0  0  0  0  0  0  0  0  0
  -18.7807  -41.1808  -13.0305 N   0  0  0  0  0  0  0  0  0  0  0  0
  1  2  1  0
  2  3  2  0
  3  4  1  0
  4  5  2  0
  5  6  1  0
  6  7  1  0
  7  8  1  0
  8  9  1  0
  9 10  2  0
 10 11  1  0
 11 12  1  0
 12 13  1  0
 13 14  2  0
 14 15  1  0
 15 16  1  0
 17 16  1  6
 17 18  1  0
 18 19  1  0
 19 20  2  0
 17 21  1  0
 21 22  1  1
 21 23  1  0
 23 24  1  0
 24 25  1  0
 25 26  1  0
 26 27  1  0
 25 28  1  0
 28 29  2  0
 29 30  1  0
 30 31  2  0
 31 32  1  0
 32 33  2  0
 30 34  1  0
 34 35  1  0
 34 36  1  0
 34 37  1  0
 15 38  2  0
 38 39  1  0
 39 40  2  0
 40 41  1  0
  6 42  2  0
 19  4  1  0
 27 25  1  0
 33 28  1  0
 40 13  1  0
 42  2  1  0
M  END
$$$$
