
     RDKit          3D

 42 46  0  0  0  0  0  0  0  0999 V2000
  -18.3683  -45.9485   -7.3161 C   0  0  0  0  0  0  0  0  0  0  0  0
  -19.0042  -44.7933   -7.9983 C   0  0  0  0  0  0  0  0  0  0  0  0
  -18.2581  -43.7019   -8.3741 C   0  0  0  0  0  0  0  0  0  0  0  0
  -18.7951  -42.5643   -9.0280 C   0  0  0  0  0  0  0  0  0  0  0  0
  -20.1499  -42.5423   -9.3092 C   0  0  0  0  0  0  0  0  0  0  0  0
  -20.8976  -43.6338   -8.9352 C   0  0  0  0  0  0  0  0  0  0  0  0
  -22.2866  -43.9773   -9.0872 N   0  0  0  0  0  0  0  0  0  0  0  0
  -23.4804  -43.3561   -8.6576 C   0  0  0  0  0  0  0  0  0  0  0  0
  -23.8119  -41.9810   -9.1947 C   0  0  0  0  0  0  0  0  0  0  0  0
  -23.3323  -40.8082   -8.9804 C   0  0  0  0  0  0  0  0  0  0  0  0
  -23.6206  -39.4183   -9.4775 C   0  0  0  0  0  0  0  0  0  0  0  0
  -22.9215  -38.4281   -8.7088 O   0  0  0  0  0  0  0  0  0  0  0  0
  -21.8545  -38.5716   -7.8127 C   0  0  0  0  0  0  0  0  0  0  0  0
  -20.6032  -39.1212   -8.0443 C   0  0  0  0  0  0  0  0  0  0  0  0
  -19.7265  -39.1608   -6.9956 C   0  0  0  0  0  0  0  0  0  0  0  0
  -18.3510  -39.7366   -6.9156 C   0  0  0  0  0  0  0  0  0  0  0  0
  -17.3728  -39.4106   -7.9935 C   0  0  2  0  0  0  0  0  0  0  0  0
  -17.5264  -40.2328   -9.1527 N   0  0  0  0  0  0  0  0  0  0  0  0
  -17.7100  -41.6113   -9.3115 C   0  0  0  0  0  0  0  0  0  0  0  0
  -16.6135  -42.1584   -9.8536 O   0  0  0  0  0  0  0  0  0  0  0  0
  -15.9663  -39.2201   -7.5144 C   0  0  2  0  0  0  0  0  0  0  0  0
  -15.9245  -38.0467   -6.7676 O   0  0  0  0  0  0  0  0  0  0  0  0
  -14.9190  -39.2905   -8.5648 C   0  0  0  0  0  0  0  0  0  0  0  0
  -14.5596  -40.6176   -8.9478 N   0  0  0  0  0  0  0  0  0  0  0  0
  -13.3566  -40.7373   -9.7190 C   0  0  0  0  0  0  0  0  0  0  0  0
  -12.0803  -41.1662   -9.1766 C   0  0  0  0  0  0  0  0  0  0  0  0
  -12.8926  -42.2237   -9.9101 C   0  0  0  0  0  0  0  0  0  0  0  0
  -13.3980  -40.0017  -11.0064 C   0  0  0  0  0  0  0  0  0  0  0  0
  -13.5936  -38.6151  -11.0400 C   0  0  0  0  0  0  0  0  0  0  0  0
  -13.6489  -37.8795  -12.1768 C   0  0  0  0  0  0  0  0  0  0  0  0
  -13.5063  -38.5192  -13.3770 C   0  0  0  0  0  0  0  0  0  0  0  0
  -13.3106  -39.8832  -13.4151 C   0  0  0  0  0  0  0  0  0  0  0  0
  -13.2602  -40.5945  -12.2405 C   0  0  0  0  0  0  0  0  0  0  0  0
  -13.8559  -36.4108  -12.0576 C   0  0  0  0  0  0  0  0  0  0  0  0
  -14.3386  -36.0583  -10.6670 C   0  0  0  0  0  0  0  0  0  0  0  0
  -14.9366  -35.9355  -13.0150 C   0  0  0  0  0  0  0  0  0  0  0  0
  -12.5782  -35.6447  -12.3100 C   0  0  0  0  0  0  0  0  0  0  0  0
  -20.1209  -38.6432   -5.7367 C   0  0  0  0  0  0  0  0  0  0  0  0
  -21.3458  -38.0905   -5.4773 C   0  0  0  0  0  0  0  0  0  0  0  0
  -22.2070  -38.0663   -6.5484 C   0  0  0  0  0  0  0  0  0  0  0  0
  -23.4312  -37.4789   -6.2914 F   0  0  0  0  0  0  0  0  0  0  0  0
  -20.2780  -44.7078   -8.2942 N   0  0  0  0  0  0  0  0  0  0  0  0
  1  2  1  0
  2  3  2  0
  3  4  1  0
  4  5  2  0
  5  6  1  0
  6  7  1  0
  7  8  1  0
  8  9  1  0
  9 10  2  0
 10 11  1  0
 11 12  1  0
 12 13  1  0
 13 14  2  0
 14 15  1  0
 15 16  1  0
 17 16  1  1
 17 18  1  0
 18 19  1  0
 19 20  2  0
 17 21  1  0
 21 22  1  6
 21 23  1  0
 23 24  1  0
 24 25  1  0
 25 26  1  0
 26 27  1  0
 25 28  1  0
 28 29  2  0
 29 30  1  0
 30 31  2  0
 31 32  1  0
 32 33  2  0
 30 34  1  0
 34 35  1  0
 34 36  1  0
 34 37  1  0
 15 38  2  0
 38 39  1  0
 39 40  2  0
 40 41  1  0
  6 42  2  0
 19  4  1  0
 27 25  1  0
 33 28  1  0
 40 13  1  0
 42  2  1  0
M  END
$$$$
