
     RDKit          3D

 42 46  0  0  0  0  0  0  0  0999 V2000
  -17.3957  -45.7008   -8.3865 C   0  0  0  0  0  0  0  0  0  0  0  0
  -18.5683  -44.7903   -8.3991 C   0  0  0  0  0  0  0  0  0  0  0  0
  -18.4265  -43.4674   -8.7441 C   0  0  0  0  0  0  0  0  0  0  0  0
  -19.4983  -42.5401   -8.7784 C   0  0  0  0  0  0  0  0  0  0  0  0
  -20.7665  -42.9837   -8.4470 C   0  0  0  0  0  0  0  0  0  0  0  0
  -20.9105  -44.3070   -8.1029 C   0  0  0  0  0  0  0  0  0  0  0  0
  -22.0454  -45.1154   -7.7437 N   0  0  0  0  0  0  0  0  0  0  0  0
  -22.9958  -45.0248   -6.7024 C   0  0  0  0  0  0  0  0  0  0  0  0
  -23.9043  -43.8157   -6.6580 C   0  0  0  0  0  0  0  0  0  0  0  0
  -23.7185  -42.5801   -6.3576 C   0  0  0  0  0  0  0  0  0  0  0  0
  -24.5757  -41.3459   -6.2926 C   0  0  0  0  0  0  0  0  0  0  0  0
  -23.8884  -40.2600   -5.6534 O   0  0  0  0  0  0  0  0  0  0  0  0
  -22.5271  -40.1016   -5.3640 C   0  0  0  0  0  0  0  0  0  0  0  0
  -21.4519  -40.1269   -6.2385 C   0  0  0  0  0  0  0  0  0  0  0  0
  -20.2025  -39.9588   -5.7088 C   0  0  0  0  0  0  0  0  0  0  0  0
  -18.8654  -39.9971   -6.3726 C   0  0  0  0  0  0  0  0  0  0  0  0
  -18.6657  -39.2195   -7.6296 C   0  0  2  0  0  0  0  0  0  0  0  0
  -19.1354  -39.9077   -8.7912 N   0  0  0  0  0  0  0  0  0  0  0  0
  -18.9926  -41.2314   -9.2232 C   0  0  0  0  0  0  0  0  0  0  0  0
  -18.1978  -41.2766  -10.3010 O   0  0  0  0  0  0  0  0  0  0  0  0
  -17.3157  -38.5823   -7.7541 C   0  0  2  0  0  0  0  0  0  0  0  0
  -17.1210  -37.7725   -6.6394 O   0  0  0  0  0  0  0  0  0  0  0  0
  -17.0525  -37.8902   -9.0413 C   0  0  0  0  0  0  0  0  0  0  0  0
  -16.1453  -38.5772   -9.9028 N   0  0  0  0  0  0  0  0  0  0  0  0
  -15.8037  -37.8946  -11.1167 C   0  0  0  0  0  0  0  0  0  0  0  0
  -16.7405  -37.1131  -11.9032 C   0  0  0  0  0  0  0  0  0  0  0  0
  -15.8241  -36.3326  -10.9719 C   0  0  0  0  0  0  0  0  0  0  0  0
  -14.5453  -38.3755  -11.7373 C   0  0  0  0  0  0  0  0  0  0  0  0
  -13.4709  -37.5047  -11.9598 C   0  0  0  0  0  0  0  0  0  0  0  0
  -12.2959  -37.8715  -12.5267 C   0  0  0  0  0  0  0  0  0  0  0  0
  -12.1344  -39.1736  -12.9120 C   0  0  0  0  0  0  0  0  0  0  0  0
  -13.1527  -40.0830  -12.7216 C   0  0  0  0  0  0  0  0  0  0  0  0
  -14.3295  -39.6726  -12.1430 C   0  0  0  0  0  0  0  0  0  0  0  0
  -11.2397  -36.8368  -12.6940 C   0  0  0  0  0  0  0  0  0  0  0  0
  -11.2956  -36.2478  -14.0871 C   0  0  0  0  0  0  0  0  0  0  0  0
   -9.8550  -37.4459  -12.5461 C   0  0  0  0  0  0  0  0  0  0  0  0
  -11.4066  -35.7044  -11.7077 C   0  0  0  0  0  0  0  0  0  0  0  0
  -20.0571  -39.7633   -4.3127 C   0  0  0  0  0  0  0  0  0  0  0  0
  -21.0977  -39.7287   -3.4243 C   0  0  0  0  0  0  0  0  0  0  0  0
  -22.3409  -39.9028   -3.9841 C   0  0  0  0  0  0  0  0  0  0  0  0
  -23.3915  -39.8356   -3.0888 F   0  0  0  0  0  0  0  0  0  0  0  0
  -19.7935  -45.1441   -8.0973 N   0  0  0  0  0  0  0  0  0  0  0  0
  1  2  1  0
  2  3  2  0
  3  4  1  0
  4  5  2  0
  5  6  1  0
  6  7  1  0
  7  8  1  0
  8  9  1  0
  9 10  2  0
 10 11  1  0
 11 12  1  0
 12 13  1  0
 13 14  2  0
 14 15  1  0
 15 16  1  0
 17 16  1  1
 17 18  1  0
 18 19  1  0
 19 20  2  0
 17 21  1  0
 21 22  1  1
 21 23  1  0
 23 24  1  0
 24 25  1  0
 25 26  1  0
 26 27  1  0
 25 28  1  0
 28 29  2  0
 29 30  1  0
 30 31  2  0
 31 32  1  0
 32 33  2  0
 30 34  1  0
 34 35  1  0
 34 36  1  0
 34 37  1  0
 15 38  2  0
 38 39  1  0
 39 40  2  0
 40 41  1  0
  6 42  2  0
 19  4  1  0
 27 25  1  0
 33 28  1  0
 40 13  1  0
 42  2  1  0
M  END
$$$$
