
     RDKit          3D

 42 46  0  0  0  0  0  0  0  0999 V2000
  -18.0904  -46.8502   -6.4612 C   0  0  0  0  0  0  0  0  0  0  0  0
  -18.9712  -45.7736   -6.9799 C   0  0  0  0  0  0  0  0  0  0  0  0
  -18.4368  -44.6317   -7.5275 C   0  0  0  0  0  0  0  0  0  0  0  0
  -19.2137  -43.5632   -8.0419 C   0  0  0  0  0  0  0  0  0  0  0  0
  -20.5928  -43.6669   -7.9950 C   0  0  0  0  0  0  0  0  0  0  0  0
  -21.1292  -44.8090   -7.4488 C   0  0  0  0  0  0  0  0  0  0  0  0
  -22.4778  -45.2763   -7.2662 N   0  0  0  0  0  0  0  0  0  0  0  0
  -23.5887  -44.7502   -6.5699 C   0  0  0  0  0  0  0  0  0  0  0  0
  -24.1609  -43.4241   -7.0209 C   0  0  0  0  0  0  0  0  0  0  0  0
  -23.7531  -42.2086   -6.9323 C   0  0  0  0  0  0  0  0  0  0  0  0
  -24.2754  -40.8629   -7.3547 C   0  0  0  0  0  0  0  0  0  0  0  0
  -23.5084  -39.7954   -6.7785 O   0  0  0  0  0  0  0  0  0  0  0  0
  -22.2522  -39.8213   -6.1594 C   0  0  0  0  0  0  0  0  0  0  0  0
  -21.0457  -40.2658   -6.6773 C   0  0  0  0  0  0  0  0  0  0  0  0
  -19.9473  -40.2007   -5.8655 C   0  0  0  0  0  0  0  0  0  0  0  0
  -18.5449  -40.6520   -6.1099 C   0  0  0  0  0  0  0  0  0  0  0  0
  -17.8813  -40.2710   -7.3902 C   0  0  2  0  0  0  0  0  0  0  0  0
  -18.2275  -41.1342   -8.4758 N   0  0  0  0  0  0  0  0  0  0  0  0
  -18.3170  -42.5272   -8.5792 C   0  0  0  0  0  0  0  0  0  0  0  0
  -17.3335  -42.9909   -9.3622 O   0  0  0  0  0  0  0  0  0  0  0  0
  -16.4249  -39.9459   -7.2584 C   0  0  2  0  0  0  0  0  0  0  0  0
  -16.3185  -38.6224   -6.8420 O   0  0  0  0  0  0  0  0  0  0  0  0
  -15.5902  -40.2615   -8.4453 C   0  0  0  0  0  0  0  0  0  0  0  0
  -15.1819  -39.1188   -9.1968 N   0  0  0  0  0  0  0  0  0  0  0  0
  -15.2094  -39.2707  -10.6224 C   0  0  0  0  0  0  0  0  0  0  0  0
  -15.3749  -40.5419  -11.3033 C   0  0  0  0  0  0  0  0  0  0  0  0
  -16.6212  -39.6785  -11.1716 C   0  0  0  0  0  0  0  0  0  0  0  0
  -14.6447  -38.1121  -11.3564 C   0  0  0  0  0  0  0  0  0  0  0  0
  -14.8426  -36.8023  -10.9008 C   0  0  0  0  0  0  0  0  0  0  0  0
  -14.3631  -35.6975  -11.5221 C   0  0  0  0  0  0  0  0  0  0  0  0
  -13.6371  -35.8563  -12.6700 C   0  0  0  0  0  0  0  0  0  0  0  0
  -13.4051  -37.1186  -13.1730 C   0  0  0  0  0  0  0  0  0  0  0  0
  -13.9079  -38.2145  -12.5141 C   0  0  0  0  0  0  0  0  0  0  0  0
  -14.6475  -34.3682  -10.9169 C   0  0  0  0  0  0  0  0  0  0  0  0
  -16.1332  -34.2052  -10.6785 C   0  0  0  0  0  0  0  0  0  0  0  0
  -14.2432  -33.2455  -11.8585 C   0  0  0  0  0  0  0  0  0  0  0  0
  -13.9461  -34.1977   -9.5895 C   0  0  0  0  0  0  0  0  0  0  0  0
  -20.0801  -39.6859   -4.5518 C   0  0  0  0  0  0  0  0  0  0  0  0
  -21.2549  -39.2353   -4.0131 C   0  0  0  0  0  0  0  0  0  0  0  0
  -22.3421  -39.3150   -4.8503 C   0  0  0  0  0  0  0  0  0  0  0  0
  -23.5199  -38.8299   -4.3144 F   0  0  0  0  0  0  0  0  0  0  0  0
  -20.2812  -45.8074   -6.9667 N   0  0  0  0  0  0  0  0  0  0  0  0
  1  2  1  0
  2  3  2  0
  3  4  1  0
  4  5  2  0
  5  6  1  0
  6  7  1  0
  7  8  1  0
  8  9  1  0
  9 10  2  0
 10 11  1  0
 11 12  1  0
 12 13  1  0
 13 14  2  0
 14 15  1  0
 15 16  1  0
 17 16  1  1
 17 18  1  0
 18 19  1  0
 19 20  2  0
 17 21  1  0
 21 22  1  6
 21 23  1  0
 23 24  1  0
 24 25  1  0
 25 26  1  0
 26 27  1  0
 25 28  1  0
 28 29  2  0
 29 30  1  0
 30 31  2  0
 31 32  1  0
 32 33  2  0
 30 34  1  0
 34 35  1  0
 34 36  1  0
 34 37  1  0
 15 38  2  0
 38 39  1  0
 39 40  2  0
 40 41  1  0
  6 42  2  0
 19  4  1  0
 27 25  1  0
 33 28  1  0
 40 13  1  0
 42  2  1  0
M  END
$$$$
