
     RDKit          3D

 42 46  0  0  0  0  0  0  0  0999 V2000
  -20.2844  -45.5856   -6.8591 C   0  0  0  0  0  0  0  0  0  0  0  0
  -19.4782  -44.9560   -7.9351 C   0  0  0  0  0  0  0  0  0  0  0  0
  -18.6986  -43.8542   -7.6752 C   0  0  0  0  0  0  0  0  0  0  0  0
  -17.9036  -43.2006   -8.6503 C   0  0  0  0  0  0  0  0  0  0  0  0
  -17.9055  -43.6940   -9.9431 C   0  0  0  0  0  0  0  0  0  0  0  0
  -18.6836  -44.7969  -10.2046 C   0  0  0  0  0  0  0  0  0  0  0  0
  -18.9062  -45.5904  -11.3841 N   0  0  0  0  0  0  0  0  0  0  0  0
  -19.3989  -45.2780  -12.6708 C   0  0  0  0  0  0  0  0  0  0  0  0
  -18.6135  -44.3105  -13.5288 C   0  0  0  0  0  0  0  0  0  0  0  0
  -18.4263  -43.0399  -13.4848 C   0  0  0  0  0  0  0  0  0  0  0  0
  -17.6664  -42.0332  -14.3041 C   0  0  0  0  0  0  0  0  0  0  0  0
  -18.0055  -40.6886  -13.9339 O   0  0  0  0  0  0  0  0  0  0  0  0
  -18.6743  -40.2078  -12.8009 C   0  0  0  0  0  0  0  0  0  0  0  0
  -18.3396  -40.3774  -11.4665 C   0  0  0  0  0  0  0  0  0  0  0  0
  -19.1654  -39.8169  -10.5318 C   0  0  0  0  0  0  0  0  0  0  0  0
  -19.1072  -39.8758   -9.0407 C   0  0  0  0  0  0  0  0  0  0  0  0
  -17.8074  -39.6024   -8.3620 C   0  0  2  0  0  0  0  0  0  0  0  0
  -16.9462  -40.7429   -8.3271 N   0  0  0  0  0  0  0  0  0  0  0  0
  -17.1776  -42.0880   -8.0168 C   0  0  0  0  0  0  0  0  0  0  0  0
  -16.5795  -42.3987   -6.8587 O   0  0  0  0  0  0  0  0  0  0  0  0
  -17.9293  -38.8414   -7.0775 C   0  0  2  0  0  0  0  0  0  0  0  0
  -16.6486  -38.6638   -6.5628 O   0  0  0  0  0  0  0  0  0  0  0  0
  -18.8902  -39.4003   -6.0929 C   0  0  0  0  0  0  0  0  0  0  0  0
  -18.4479  -39.3334   -4.7375 N   0  0  0  0  0  0  0  0  0  0  0  0
  -19.3313  -39.9106   -3.7665 C   0  0  0  0  0  0  0  0  0  0  0  0
  -18.9032  -40.4199   -2.4765 C   0  0  0  0  0  0  0  0  0  0  0  0
  -19.5042  -39.0217   -2.4854 C   0  0  0  0  0  0  0  0  0  0  0  0
  -20.6384  -40.3329   -4.3263 C   0  0  0  0  0  0  0  0  0  0  0  0
  -21.3455  -39.5088   -5.2112 C   0  0  0  0  0  0  0  0  0  0  0  0
  -22.5452  -39.8257   -5.7558 C   0  0  0  0  0  0  0  0  0  0  0  0
  -23.1151  -41.0250   -5.4290 C   0  0  0  0  0  0  0  0  0  0  0  0
  -22.4720  -41.8837   -4.5635 C   0  0  0  0  0  0  0  0  0  0  0  0
  -21.2563  -41.5267   -4.0319 C   0  0  0  0  0  0  0  0  0  0  0  0
  -23.1765  -38.8522   -6.6874 C   0  0  0  0  0  0  0  0  0  0  0  0
  -22.3673  -37.5742   -6.7413 C   0  0  0  0  0  0  0  0  0  0  0  0
  -24.5619  -38.4571   -6.2026 C   0  0  0  0  0  0  0  0  0  0  0  0
  -23.2653  -39.4011   -8.0923 C   0  0  0  0  0  0  0  0  0  0  0  0
  -20.3078  -39.0927  -10.9547 C   0  0  0  0  0  0  0  0  0  0  0  0
  -20.6627  -38.9036  -12.2629 C   0  0  0  0  0  0  0  0  0  0  0  0
  -19.8164  -39.4799  -13.1800 C   0  0  0  0  0  0  0  0  0  0  0  0
  -20.1603  -39.2601  -14.5003 F   0  0  0  0  0  0  0  0  0  0  0  0
  -19.4339  -45.3714   -9.1772 N   0  0  0  0  0  0  0  0  0  0  0  0
  1  2  1  0
  2  3  2  0
  3  4  1  0
  4  5  2  0
  5  6  1  0
  6  7  1  0
  7  8  1  0
  8  9  1  0
  9 10  2  0
 10 11  1  0
 11 12  1  0
 12 13  1  0
 13 14  2  0
 14 15  1  0
 15 16  1  0
 17 16  1  1
 17 18  1  0
 18 19  1  0
 19 20  2  0
 17 21  1  0
 21 22  1  1
 21 23  1  0
 23 24  1  0
 24 25  1  0
 25 26  1  0
 26 27  1  0
 25 28  1  0
 28 29  2  0
 29 30  1  0
 30 31  2  0
 31 32  1  0
 32 33  2  0
 30 34  1  0
 34 35  1  0
 34 36  1  0
 34 37  1  0
 15 38  2  0
 38 39  1  0
 39 40  2  0
 40 41  1  0
  6 42  2  0
 19  4  1  0
 27 25  1  0
 33 28  1  0
 40 13  1  0
 42  2  1  0
M  END
$$$$
