
     RDKit          3D

 42 46  0  0  0  0  0  0  0  0999 V2000
  -17.9169  -46.1780   -6.2008 C   0  0  0  0  0  0  0  0  0  0  0  0
  -18.6276  -45.0848   -6.9107 C   0  0  0  0  0  0  0  0  0  0  0  0
  -17.9476  -43.9735   -7.3488 C   0  0  0  0  0  0  0  0  0  0  0  0
  -18.5580  -42.8918   -8.0323 C   0  0  0  0  0  0  0  0  0  0  0  0
  -19.9185  -42.9491   -8.2783 C   0  0  0  0  0  0  0  0  0  0  0  0
  -20.6001  -44.0606   -7.8420 C   0  0  0  0  0  0  0  0  0  0  0  0
  -21.9730  -44.4792   -7.9435 N   0  0  0  0  0  0  0  0  0  0  0  0
  -23.1862  -43.9017   -7.5071 C   0  0  0  0  0  0  0  0  0  0  0  0
  -23.6006  -42.5679   -8.0889 C   0  0  0  0  0  0  0  0  0  0  0  0
  -23.1765  -41.3648   -7.9336 C   0  0  0  0  0  0  0  0  0  0  0  0
  -23.5475  -40.0124   -8.4771 C   0  0  0  0  0  0  0  0  0  0  0  0
  -22.8814  -38.9580   -7.7667 O   0  0  0  0  0  0  0  0  0  0  0  0
  -21.7868  -39.0114   -6.8942 C   0  0  0  0  0  0  0  0  0  0  0  0
  -20.5151  -39.5066   -7.1371 C   0  0  0  0  0  0  0  0  0  0  0  0
  -19.6122  -39.4596   -6.1113 C   0  0  0  0  0  0  0  0  0  0  0  0
  -18.2075  -39.9620   -6.0452 C   0  0  0  0  0  0  0  0  0  0  0  0
  -17.2739  -39.6314   -7.1605 C   0  0  2  0  0  0  0  0  0  0  0  0
  -17.4135  -40.5066   -8.2821 N   0  0  0  0  0  0  0  0  0  0  0  0
  -17.5303  -41.8979   -8.3818 C   0  0  0  0  0  0  0  0  0  0  0  0
  -16.4208  -42.4108   -8.9308 O   0  0  0  0  0  0  0  0  0  0  0  0
  -15.8677  -39.3514   -6.7267 C   0  0  2  0  0  0  0  0  0  0  0  0
  -15.9126  -38.3759   -5.7353 O   0  0  0  0  0  0  0  0  0  0  0  0
  -14.9122  -39.0401   -7.8201 C   0  0  0  0  0  0  0  0  0  0  0  0
  -14.8250  -40.0468   -8.8281 N   0  0  0  0  0  0  0  0  0  0  0  0
  -13.7136  -39.9313   -9.7268 C   0  0  0  0  0  0  0  0  0  0  0  0
  -12.5352  -40.7776   -9.6783 C   0  0  0  0  0  0  0  0  0  0  0  0
  -13.5895  -41.1456  -10.7124 C   0  0  0  0  0  0  0  0  0  0  0  0
  -13.6565  -38.6324  -10.4407 C   0  0  0  0  0  0  0  0  0  0  0  0
  -14.8280  -37.9551  -10.8028 C   0  0  0  0  0  0  0  0  0  0  0  0
  -14.8524  -36.7705  -11.4605 C   0  0  0  0  0  0  0  0  0  0  0  0
  -13.6633  -36.1864  -11.7996 C   0  0  0  0  0  0  0  0  0  0  0  0
  -12.4730  -36.8001  -11.4728 C   0  0  0  0  0  0  0  0  0  0  0  0
  -12.4895  -38.0010  -10.8053 C   0  0  0  0  0  0  0  0  0  0  0  0
  -16.1748  -36.1643  -11.7735 C   0  0  0  0  0  0  0  0  0  0  0  0
  -17.1271  -37.2186  -12.2951 C   0  0  0  0  0  0  0  0  0  0  0  0
  -16.0481  -35.1246  -12.8751 C   0  0  0  0  0  0  0  0  0  0  0  0
  -16.8049  -35.5379  -10.5514 C   0  0  0  0  0  0  0  0  0  0  0  0
  -20.0016  -38.9117   -4.8636 C   0  0  0  0  0  0  0  0  0  0  0  0
  -21.2465  -38.4110   -4.5938 C   0  0  0  0  0  0  0  0  0  0  0  0
  -22.1337  -38.4735   -5.6418 C   0  0  0  0  0  0  0  0  0  0  0  0
  -23.3797  -37.9383   -5.3758 F   0  0  0  0  0  0  0  0  0  0  0  0
  -19.9109  -45.0754   -7.1759 N   0  0  0  0  0  0  0  0  0  0  0  0
  1  2  1  0
  2  3  2  0
  3  4  1  0
  4  5  2  0
  5  6  1  0
  6  7  1  0
  7  8  1  0
  8  9  1  0
  9 10  2  0
 10 11  1  0
 11 12  1  0
 12 13  1  0
 13 14  2  0
 14 15  1  0
 15 16  1  0
 17 16  1  1
 17 18  1  0
 18 19  1  0
 19 20  2  0
 17 21  1  0
 21 22  1  1
 21 23  1  0
 23 24  1  0
 24 25  1  0
 25 26  1  0
 26 27  1  0
 25 28  1  0
 28 29  2  0
 29 30  1  0
 30 31  2  0
 31 32  1  0
 32 33  2  0
 30 34  1  0
 34 35  1  0
 34 36  1  0
 34 37  1  0
 15 38  2  0
 38 39  1  0
 39 40  2  0
 40 41  1  0
  6 42  2  0
 19  4  1  0
 27 25  1  0
 33 28  1  0
 40 13  1  0
 42  2  1  0
M  END
$$$$
