
     RDKit          3D

 42 46  0  0  0  0  0  0  0  0999 V2000
  -22.2141  -37.5112  -10.4805 C   0  0  0  0  0  0  0  0  0  0  0  0
  -20.9246  -38.1010  -10.9202 C   0  0  0  0  0  0  0  0  0  0  0  0
  -20.2653  -39.0144  -10.1326 C   0  0  0  0  0  0  0  0  0  0  0  0
  -19.0324  -39.6187  -10.4859 C   0  0  0  0  0  0  0  0  0  0  0  0
  -18.4506  -39.2755  -11.6936 C   0  0  0  0  0  0  0  0  0  0  0  0
  -19.1093  -38.3630  -12.4834 C   0  0  0  0  0  0  0  0  0  0  0  0
  -18.8393  -37.8053  -13.7820 N   0  0  0  0  0  0  0  0  0  0  0  0
  -17.7565  -37.0595  -14.2988 C   0  0  0  0  0  0  0  0  0  0  0  0
  -16.3911  -37.7094  -14.3477 C   0  0  0  0  0  0  0  0  0  0  0  0
  -15.5236  -38.0140  -13.4499 C   0  0  0  0  0  0  0  0  0  0  0  0
  -14.1614  -38.6517  -13.4394 C   0  0  0  0  0  0  0  0  0  0  0  0
  -13.5315  -38.5279  -12.1556 O   0  0  0  0  0  0  0  0  0  0  0  0
  -14.0791  -38.1833  -10.9132 C   0  0  0  0  0  0  0  0  0  0  0  0
  -15.1140  -38.7996  -10.2273 C   0  0  0  0  0  0  0  0  0  0  0  0
  -15.4813  -38.2643   -9.0238 C   0  0  0  0  0  0  0  0  0  0  0  0
  -16.5809  -38.6586   -8.0934 C   0  0  0  0  0  0  0  0  0  0  0  0
  -16.7388  -40.0987   -7.7385 C   0  0  2  0  0  0  0  0  0  0  0  0
  -17.4615  -40.8397   -8.7244 N   0  0  0  0  0  0  0  0  0  0  0  0
  -18.6382  -40.5671   -9.4317 C   0  0  0  0  0  0  0  0  0  0  0  0
  -19.6169  -41.3855   -9.0220 O   0  0  0  0  0  0  0  0  0  0  0  0
  -17.1427  -40.3439   -6.3169 C   0  0  2  0  0  0  0  0  0  0  0  0
  -16.2837  -39.6181   -5.4973 O   0  0  0  0  0  0  0  0  0  0  0  0
  -17.2682  -41.7710   -5.9259 C   0  0  0  0  0  0  0  0  0  0  0  0
  -17.8496  -42.6053   -6.9275 N   0  0  0  0  0  0  0  0  0  0  0  0
  -19.1972  -43.0277   -6.6786 C   0  0  0  0  0  0  0  0  0  0  0  0
  -19.5807  -44.3961   -6.3830 C   0  0  0  0  0  0  0  0  0  0  0  0
  -19.4426  -43.4603   -5.1907 C   0  0  0  0  0  0  0  0  0  0  0  0
  -20.2209  -42.0630   -7.1494 C   0  0  0  0  0  0  0  0  0  0  0  0
  -21.0991  -41.4452   -6.2498 C   0  0  0  0  0  0  0  0  0  0  0  0
  -22.0612  -40.5607   -6.6080 C   0  0  0  0  0  0  0  0  0  0  0  0
  -22.1955  -40.2410   -7.9308 C   0  0  0  0  0  0  0  0  0  0  0  0
  -21.3632  -40.8132   -8.8689 C   0  0  0  0  0  0  0  0  0  0  0  0
  -20.3992  -41.7058   -8.4662 C   0  0  0  0  0  0  0  0  0  0  0  0
  -22.9177  -39.9785   -5.5395 C   0  0  0  0  0  0  0  0  0  0  0  0
  -23.8845  -38.9740   -6.1287 C   0  0  0  0  0  0  0  0  0  0  0  0
  -22.0790  -39.2165   -4.5265 C   0  0  0  0  0  0  0  0  0  0  0  0
  -23.7290  -41.0402   -4.8341 C   0  0  0  0  0  0  0  0  0  0  0  0
  -14.7994  -37.1244   -8.5299 C   0  0  0  0  0  0  0  0  0  0  0  0
  -13.7718  -36.4963   -9.1801 C   0  0  0  0  0  0  0  0  0  0  0  0
  -13.4258  -37.0541  -10.3878 C   0  0  0  0  0  0  0  0  0  0  0  0
  -12.3672  -36.4367  -11.0264 F   0  0  0  0  0  0  0  0  0  0  0  0
  -20.3200  -37.8211  -12.0488 N   0  0  0  0  0  0  0  0  0  0  0  0
  1  2  1  0
  2  3  2  0
  3  4  1  0
  4  5  2  0
  5  6  1  0
  6  7  1  0
  7  8  1  0
  8  9  1  0
  9 10  2  0
 10 11  1  0
 11 12  1  0
 12 13  1  0
 13 14  2  0
 14 15  1  0
 15 16  1  0
 17 16  1  6
 17 18  1  0
 18 19  1  0
 19 20  2  0
 17 21  1  0
 21 22  1  1
 21 23  1  0
 23 24  1  0
 24 25  1  0
 25 26  1  0
 26 27  1  0
 25 28  1  0
 28 29  2  0
 29 30  1  0
 30 31  2  0
 31 32  1  0
 32 33  2  0
 30 34  1  0
 34 35  1  0
 34 36  1  0
 34 37  1  0
 15 38  2  0
 38 39  1  0
 39 40  2  0
 40 41  1  0
  6 42  2  0
 19  4  1  0
 27 25  1  0
 33 28  1  0
 40 13  1  0
 42  2  1  0
M  END
$$$$
