
     RDKit          3D

 42 46  0  0  0  0  0  0  0  0999 V2000
  -18.8068  -46.8998   -6.4876 C   0  0  0  0  0  0  0  0  0  0  0  0
  -19.3964  -45.7258   -7.1791 C   0  0  0  0  0  0  0  0  0  0  0  0
  -18.6339  -44.6150   -7.4513 C   0  0  0  0  0  0  0  0  0  0  0  0
  -19.1271  -43.4589   -8.1069 C   0  0  0  0  0  0  0  0  0  0  0  0
  -20.4536  -43.4379   -8.5005 C   0  0  0  0  0  0  0  0  0  0  0  0
  -21.2176  -44.5486   -8.2302 C   0  0  0  0  0  0  0  0  0  0  0  0
  -22.5848  -44.8981   -8.5111 N   0  0  0  0  0  0  0  0  0  0  0  0
  -23.8176  -44.3031   -8.1617 C   0  0  0  0  0  0  0  0  0  0  0  0
  -24.1185  -42.9121   -8.6753 C   0  0  0  0  0  0  0  0  0  0  0  0
  -23.6721  -41.7439   -8.3793 C   0  0  0  0  0  0  0  0  0  0  0  0
  -23.9336  -40.3392   -8.8488 C   0  0  0  0  0  0  0  0  0  0  0  0
  -23.3130  -39.3720   -7.9889 O   0  0  0  0  0  0  0  0  0  0  0  0
  -22.3234  -39.5393   -7.0118 C   0  0  0  0  0  0  0  0  0  0  0  0
  -21.0508  -40.0695   -7.1565 C   0  0  0  0  0  0  0  0  0  0  0  0
  -20.2650  -40.1401   -6.0397 C   0  0  0  0  0  0  0  0  0  0  0  0
  -18.8945  -40.7069   -5.8647 C   0  0  0  0  0  0  0  0  0  0  0  0
  -17.8331  -40.3333   -6.8438 C   0  0  2  0  0  0  0  0  0  0  0  0
  -17.8792  -41.1137   -8.0406 N   0  0  0  0  0  0  0  0  0  0  0  0
  -18.0330  -42.4869   -8.2636 C   0  0  0  0  0  0  0  0  0  0  0  0
  -16.8887  -43.0045   -8.7305 O   0  0  0  0  0  0  0  0  0  0  0  0
  -16.4740  -40.1487   -6.2412 C   0  0  2  0  0  0  0  0  0  0  0  0
  -16.4780  -38.9481   -5.5377 O   0  0  0  0  0  0  0  0  0  0  0  0
  -15.3345  -40.2778   -7.1846 C   0  0  0  0  0  0  0  0  0  0  0  0
  -15.1915  -39.1807   -8.0864 N   0  0  0  0  0  0  0  0  0  0  0  0
  -13.9951  -39.1782   -8.8768 C   0  0  0  0  0  0  0  0  0  0  0  0
  -12.6920  -39.5859   -8.3839 C   0  0  0  0  0  0  0  0  0  0  0  0
  -13.4624  -40.6196   -9.1929 C   0  0  0  0  0  0  0  0  0  0  0  0
  -14.0901  -38.3440  -10.0996 C   0  0  0  0  0  0  0  0  0  0  0  0
  -12.9410  -37.8316  -10.7155 C   0  0  0  0  0  0  0  0  0  0  0  0
  -12.9519  -37.0586  -11.8285 C   0  0  0  0  0  0  0  0  0  0  0  0
  -14.1561  -36.7501  -12.3984 C   0  0  0  0  0  0  0  0  0  0  0  0
  -15.3259  -37.2224  -11.8427 C   0  0  0  0  0  0  0  0  0  0  0  0
  -15.2736  -38.0038  -10.7137 C   0  0  0  0  0  0  0  0  0  0  0  0
  -11.6496  -36.5910  -12.3757 C   0  0  0  0  0  0  0  0  0  0  0  0
  -11.8516  -35.9266  -13.7206 C   0  0  0  0  0  0  0  0  0  0  0  0
  -10.7108  -37.7618  -12.6177 C   0  0  0  0  0  0  0  0  0  0  0  0
  -10.9876  -35.5875  -11.4605 C   0  0  0  0  0  0  0  0  0  0  0  0
  -20.7696  -39.6724   -4.8008 C   0  0  0  0  0  0  0  0  0  0  0  0
  -22.0182  -39.1399   -4.6260 C   0  0  0  0  0  0  0  0  0  0  0  0
  -22.7866  -39.0837   -5.7643 C   0  0  0  0  0  0  0  0  0  0  0  0
  -24.0347  -38.5165   -5.5907 F   0  0  0  0  0  0  0  0  0  0  0  0
  -20.6417  -45.6402   -7.5781 N   0  0  0  0  0  0  0  0  0  0  0  0
  1  2  1  0
  2  3  2  0
  3  4  1  0
  4  5  2  0
  5  6  1  0
  6  7  1  0
  7  8  1  0
  8  9  1  0
  9 10  2  0
 10 11  1  0
 11 12  1  0
 12 13  1  0
 13 14  2  0
 14 15  1  0
 15 16  1  0
 17 16  1  1
 17 18  1  0
 18 19  1  0
 19 20  2  0
 17 21  1  0
 21 22  1  6
 21 23  1  0
 23 24  1  0
 24 25  1  0
 25 26  1  0
 26 27  1  0
 25 28  1  0
 28 29  2  0
 29 30  1  0
 30 31  2  0
 31 32  1  0
 32 33  2  0
 30 34  1  0
 34 35  1  0
 34 36  1  0
 34 37  1  0
 15 38  2  0
 38 39  1  0
 39 40  2  0
 40 41  1  0
  6 42  2  0
 19  4  1  0
 27 25  1  0
 33 28  1  0
 40 13  1  0
 42  2  1  0
M  END
$$$$
