
     RDKit          3D

 42 46  0  0  0  0  0  0  0  0999 V2000
  -16.5650  -44.1158  -12.5316 C   0  0  0  0  0  0  0  0  0  0  0  0
  -15.5488  -43.2355  -11.9018 C   0  0  0  0  0  0  0  0  0  0  0  0
  -15.8259  -42.5675  -10.7330 C   0  0  0  0  0  0  0  0  0  0  0  0
  -14.9072  -41.7114  -10.0749 C   0  0  0  0  0  0  0  0  0  0  0  0
  -13.6544  -41.5318  -10.6344 C   0  0  0  0  0  0  0  0  0  0  0  0
  -13.3750  -42.2003  -11.8029 C   0  0  0  0  0  0  0  0  0  0  0  0
  -12.2039  -42.2868  -12.6345 N   0  0  0  0  0  0  0  0  0  0  0  0
  -11.4482  -41.3168  -13.3300 C   0  0  0  0  0  0  0  0  0  0  0  0
  -10.7421  -40.2434  -12.5310 C   0  0  0  0  0  0  0  0  0  0  0  0
  -11.1487  -39.2086  -11.8865 C   0  0  0  0  0  0  0  0  0  0  0  0
  -10.4996  -38.1144  -11.0843 C   0  0  0  0  0  0  0  0  0  0  0  0
  -11.4268  -37.0613  -10.7824 O   0  0  0  0  0  0  0  0  0  0  0  0
  -12.8249  -37.0407  -10.8665 C   0  0  0  0  0  0  0  0  0  0  0  0
  -13.7376  -37.8780  -10.2442 C   0  0  0  0  0  0  0  0  0  0  0  0
  -15.0647  -37.6642  -10.4955 C   0  0  0  0  0  0  0  0  0  0  0  0
  -16.2640  -38.4232  -10.0312 C   0  0  0  0  0  0  0  0  0  0  0  0
  -16.3784  -38.7696   -8.5849 C   0  0  2  0  0  0  0  0  0  0  0  0
  -15.6411  -39.9425   -8.2327 N   0  0  0  0  0  0  0  0  0  0  0  0
  -15.5225  -41.1978   -8.8405 C   0  0  0  0  0  0  0  0  0  0  0  0
  -16.1271  -42.1277   -8.0888 O   0  0  0  0  0  0  0  0  0  0  0  0
  -17.7711  -38.6899   -8.0389 C   0  0  2  0  0  0  0  0  0  0  0  0
  -17.8729  -37.5167   -7.2975 O   0  0  0  0  0  0  0  0  0  0  0  0
  -18.2400  -39.8943   -7.3076 C   0  0  0  0  0  0  0  0  0  0  0  0
  -18.2033  -41.0979   -8.0739 N   0  0  0  0  0  0  0  0  0  0  0  0
  -19.4423  -41.4840   -8.6840 C   0  0  0  0  0  0  0  0  0  0  0  0
  -19.5552  -42.4614   -9.7512 C   0  0  0  0  0  0  0  0  0  0  0  0
  -19.8631  -42.9569   -8.3455 C   0  0  0  0  0  0  0  0  0  0  0  0
  -20.5484  -40.5249   -8.4459 C   0  0  0  0  0  0  0  0  0  0  0  0
  -20.8331  -40.0560   -7.1570 C   0  0  0  0  0  0  0  0  0  0  0  0
  -21.8299  -39.1859   -6.8643 C   0  0  0  0  0  0  0  0  0  0  0  0
  -22.6178  -38.7274   -7.8836 C   0  0  0  0  0  0  0  0  0  0  0  0
  -22.3915  -39.1490   -9.1764 C   0  0  0  0  0  0  0  0  0  0  0  0
  -21.3705  -40.0319   -9.4332 C   0  0  0  0  0  0  0  0  0  0  0  0
  -22.0101  -38.7702   -5.4469 C   0  0  0  0  0  0  0  0  0  0  0  0
  -23.4626  -38.4432   -5.1747 C   0  0  0  0  0  0  0  0  0  0  0  0
  -21.2267  -37.5020   -5.1495 C   0  0  0  0  0  0  0  0  0  0  0  0
  -21.5959  -39.8620   -4.4881 C   0  0  0  0  0  0  0  0  0  0  0  0
  -15.4498  -36.6110  -11.3620 C   0  0  0  0  0  0  0  0  0  0  0  0
  -14.5743  -35.7650  -11.9874 C   0  0  0  0  0  0  0  0  0  0  0  0
  -13.2478  -36.0048  -11.7186 C   0  0  0  0  0  0  0  0  0  0  0  0
  -12.3684  -35.1290  -12.3264 F   0  0  0  0  0  0  0  0  0  0  0  0
  -14.3464  -43.0218  -12.3772 N   0  0  0  0  0  0  0  0  0  0  0  0
  1  2  1  0
  2  3  2  0
  3  4  1  0
  4  5  2  0
  5  6  1  0
  6  7  1  0
  7  8  1  0
  8  9  1  0
  9 10  2  0
 10 11  1  0
 11 12  1  0
 12 13  1  0
 13 14  2  0
 14 15  1  0
 15 16  1  0
 17 16  1  6
 17 18  1  0
 18 19  1  0
 19 20  2  0
 17 21  1  0
 21 22  1  1
 21 23  1  0
 23 24  1  0
 24 25  1  0
 25 26  1  0
 26 27  1  0
 25 28  1  0
 28 29  2  0
 29 30  1  0
 30 31  2  0
 31 32  1  0
 32 33  2  0
 30 34  1  0
 34 35  1  0
 34 36  1  0
 34 37  1  0
 15 38  2  0
 38 39  1  0
 39 40  2  0
 40 41  1  0
  6 42  2  0
 19  4  1  0
 27 25  1  0
 33 28  1  0
 40 13  1  0
 42  2  1  0
M  END
$$$$
