
     RDKit          3D

 42 46  0  0  0  0  0  0  0  0999 V2000
  -17.0668  -40.6047  -13.8458 C   0  0  0  0  0  0  0  0  0  0  0  0
  -17.2439  -41.7031  -12.8629 C   0  0  0  0  0  0  0  0  0  0  0  0
  -17.5829  -41.4308  -11.5590 C   0  0  0  0  0  0  0  0  0  0  0  0
  -17.7687  -42.4257  -10.5662 C   0  0  0  0  0  0  0  0  0  0  0  0
  -17.6014  -43.7527  -10.9214 C   0  0  0  0  0  0  0  0  0  0  0  0
  -17.2636  -44.0270  -12.2256 C   0  0  0  0  0  0  0  0  0  0  0  0
  -17.0469  -45.2498  -12.9525 N   0  0  0  0  0  0  0  0  0  0  0  0
  -16.1405  -46.3196  -12.7805 C   0  0  0  0  0  0  0  0  0  0  0  0
  -16.2301  -47.1446  -11.5154 C   0  0  0  0  0  0  0  0  0  0  0  0
  -15.9226  -46.9187  -10.2882 C   0  0  0  0  0  0  0  0  0  0  0  0
  -15.9853  -47.6940   -9.0009 C   0  0  0  0  0  0  0  0  0  0  0  0
  -15.2742  -47.0259   -7.9482 O   0  0  0  0  0  0  0  0  0  0  0  0
  -14.8104  -45.7064   -7.8709 C   0  0  0  0  0  0  0  0  0  0  0  0
  -15.5359  -44.5305   -7.9824 C   0  0  0  0  0  0  0  0  0  0  0  0
  -14.8487  -43.3524   -7.8835 C   0  0  0  0  0  0  0  0  0  0  0  0
  -15.3307  -41.9456   -8.0204 C   0  0  0  0  0  0  0  0  0  0  0  0
  -16.5598  -41.5332   -7.2828 C   0  0  2  0  0  0  0  0  0  0  0  0
  -17.7648  -41.8918   -7.9631 N   0  0  0  0  0  0  0  0  0  0  0  0
  -18.1586  -41.7814   -9.3017 C   0  0  0  0  0  0  0  0  0  0  0  0
  -19.1221  -40.8577   -9.4193 O   0  0  0  0  0  0  0  0  0  0  0  0
  -16.5134  -40.1395   -6.7355 C   0  0  2  0  0  0  0  0  0  0  0  0
  -15.4683  -40.0748   -5.8190 O   0  0  0  0  0  0  0  0  0  0  0  0
  -17.7989  -39.6189   -6.2046 C   0  0  0  0  0  0  0  0  0  0  0  0
  -18.7276  -39.2124   -7.2092 N   0  0  0  0  0  0  0  0  0  0  0  0
  -19.8982  -38.5335   -6.7349 C   0  0  0  0  0  0  0  0  0  0  0  0
  -20.2505  -38.3995   -5.3331 C   0  0  0  0  0  0  0  0  0  0  0  0
  -19.5721  -37.1991   -5.9772 C   0  0  0  0  0  0  0  0  0  0  0  0
  -20.9370  -38.3382   -7.7755 C   0  0  0  0  0  0  0  0  0  0  0  0
  -20.5904  -37.9728   -9.0826 C   0  0  0  0  0  0  0  0  0  0  0  0
  -21.4840  -37.7712  -10.0811 C   0  0  0  0  0  0  0  0  0  0  0  0
  -22.8147  -37.9310   -9.8097 C   0  0  0  0  0  0  0  0  0  0  0  0
  -23.2243  -38.2901   -8.5434 C   0  0  0  0  0  0  0  0  0  0  0  0
  -22.2876  -38.4858   -7.5573 C   0  0  0  0  0  0  0  0  0  0  0  0
  -20.9678  -37.3920  -11.4243 C   0  0  0  0  0  0  0  0  0  0  0  0
  -19.4607  -37.2560  -11.3899 C   0  0  0  0  0  0  0  0  0  0  0  0
  -21.5066  -36.0359  -11.8498 C   0  0  0  0  0  0  0  0  0  0  0  0
  -21.3134  -38.4284  -12.4680 C   0  0  0  0  0  0  0  0  0  0  0  0
  -13.4480  -43.3775   -7.6693 C   0  0  0  0  0  0  0  0  0  0  0  0
  -12.7044  -44.5204   -7.5505 C   0  0  0  0  0  0  0  0  0  0  0  0
  -13.4205  -45.6889   -7.6565 C   0  0  0  0  0  0  0  0  0  0  0  0
  -12.6717  -46.8404   -7.5043 F   0  0  0  0  0  0  0  0  0  0  0  0
  -17.1015  -42.9778  -13.1318 N   0  0  0  0  0  0  0  0  0  0  0  0
  1  2  1  0
  2  3  2  0
  3  4  1  0
  4  5  2  0
  5  6  1  0
  6  7  1  0
  7  8  1  0
  8  9  1  0
  9 10  2  0
 10 11  1  0
 11 12  1  0
 12 13  1  0
 13 14  2  0
 14 15  1  0
 15 16  1  0
 17 16  1  6
 17 18  1  0
 18 19  1  0
 19 20  2  0
 17 21  1  0
 21 22  1  1
 21 23  1  0
 23 24  1  0
 24 25  1  0
 25 26  1  0
 26 27  1  0
 25 28  1  0
 28 29  2  0
 29 30  1  0
 30 31  2  0
 31 32  1  0
 32 33  2  0
 30 34  1  0
 34 35  1  0
 34 36  1  0
 34 37  1  0
 15 38  2  0
 38 39  1  0
 39 40  2  0
 40 41  1  0
  6 42  2  0
 19  4  1  0
 27 25  1  0
 33 28  1  0
 40 13  1  0
 42  2  1  0
M  END
$$$$
