
     RDKit          3D

 42 46  0  0  0  0  0  0  0  0999 V2000
  -17.2026  -46.2593   -8.5478 C   0  0  0  0  0  0  0  0  0  0  0  0
  -18.1588  -45.1340   -8.7014 C   0  0  0  0  0  0  0  0  0  0  0  0
  -17.7076  -43.8435   -8.8437 C   0  0  0  0  0  0  0  0  0  0  0  0
  -18.5595  -42.7204   -8.9946 C   0  0  0  0  0  0  0  0  0  0  0  0
  -19.9280  -42.9254   -9.0007 C   0  0  0  0  0  0  0  0  0  0  0  0
  -20.3811  -44.2158   -8.8597 C   0  0  0  0  0  0  0  0  0  0  0  0
  -21.6935  -44.8058   -8.8546 N   0  0  0  0  0  0  0  0  0  0  0  0
  -22.8301  -44.6084   -8.0392 C   0  0  0  0  0  0  0  0  0  0  0  0
  -23.4944  -43.2491   -8.0443 C   0  0  0  0  0  0  0  0  0  0  0  0
  -23.1682  -42.1032   -7.5625 C   0  0  0  0  0  0  0  0  0  0  0  0
  -23.7837  -40.7312   -7.5335 C   0  0  0  0  0  0  0  0  0  0  0  0
  -23.0843  -39.8587   -6.6338 O   0  0  0  0  0  0  0  0  0  0  0  0
  -21.8231  -39.9996   -6.0409 C   0  0  0  0  0  0  0  0  0  0  0  0
  -20.5947  -40.1712   -6.6599 C   0  0  0  0  0  0  0  0  0  0  0  0
  -19.4951  -40.2991   -5.8571 C   0  0  0  0  0  0  0  0  0  0  0  0
  -18.0681  -40.5526   -6.2171 C   0  0  0  0  0  0  0  0  0  0  0  0
  -17.4443  -39.7347   -7.2972 C   0  0  2  0  0  0  0  0  0  0  0  0
  -17.7427  -40.2215   -8.6077 N   0  0  0  0  0  0  0  0  0  0  0  0
  -17.7396  -41.5089   -9.1570 C   0  0  0  0  0  0  0  0  0  0  0  0
  -16.7351  -41.6279  -10.0358 O   0  0  0  0  0  0  0  0  0  0  0  0
  -16.0118  -39.3734   -7.0494 C   0  0  2  0  0  0  0  0  0  0  0  0
  -15.8983  -37.9895   -7.1401 O   0  0  0  0  0  0  0  0  0  0  0  0
  -15.0170  -40.1039   -7.8752 C   0  0  0  0  0  0  0  0  0  0  0  0
  -14.6544  -39.4373   -9.0841 N   0  0  0  0  0  0  0  0  0  0  0  0
  -13.9753  -40.2420  -10.0575 C   0  0  0  0  0  0  0  0  0  0  0  0
  -13.7036  -41.6588   -9.8970 C   0  0  0  0  0  0  0  0  0  0  0  0
  -14.9114  -41.2944  -10.7483 C   0  0  0  0  0  0  0  0  0  0  0  0
  -13.2040  -39.4537  -11.0493 C   0  0  0  0  0  0  0  0  0  0  0  0
  -13.5114  -38.1104  -11.3011 C   0  0  0  0  0  0  0  0  0  0  0  0
  -12.8554  -37.3320  -12.1956 C   0  0  0  0  0  0  0  0  0  0  0  0
  -11.8240  -37.8803  -12.9066 C   0  0  0  0  0  0  0  0  0  0  0  0
  -11.4693  -39.1974  -12.7073 C   0  0  0  0  0  0  0  0  0  0  0  0
  -12.1586  -39.9544  -11.7909 C   0  0  0  0  0  0  0  0  0  0  0  0
  -13.2896  -35.9174  -12.3520 C   0  0  0  0  0  0  0  0  0  0  0  0
  -14.0618  -35.7432  -13.6421 C   0  0  0  0  0  0  0  0  0  0  0  0
  -12.0899  -34.9888  -12.4470 C   0  0  0  0  0  0  0  0  0  0  0  0
  -14.1846  -35.4794  -11.2162 C   0  0  0  0  0  0  0  0  0  0  0  0
  -19.6491  -40.2469   -4.4493 C   0  0  0  0  0  0  0  0  0  0  0  0
  -20.8460  -40.0741   -3.8084 C   0  0  0  0  0  0  0  0  0  0  0  0
  -21.9338  -39.9510   -4.6396 C   0  0  0  0  0  0  0  0  0  0  0  0
  -23.1360  -39.7450   -3.9901 F   0  0  0  0  0  0  0  0  0  0  0  0
  -19.4633  -45.2576   -8.7159 N   0  0  0  0  0  0  0  0  0  0  0  0
  1  2  1  0
  2  3  2  0
  3  4  1  0
  4  5  2  0
  5  6  1  0
  6  7  1  0
  7  8  1  0
  8  9  1  0
  9 10  2  0
 10 11  1  0
 11 12  1  0
 12 13  1  0
 13 14  2  0
 14 15  1  0
 15 16  1  0
 17 16  1  1
 17 18  1  0
 18 19  1  0
 19 20  2  0
 17 21  1  0
 21 22  1  6
 21 23  1  0
 23 24  1  0
 24 25  1  0
 25 26  1  0
 26 27  1  0
 25 28  1  0
 28 29  2  0
 29 30  1  0
 30 31  2  0
 31 32  1  0
 32 33  2  0
 30 34  1  0
 34 35  1  0
 34 36  1  0
 34 37  1  0
 15 38  2  0
 38 39  1  0
 39 40  2  0
 40 41  1  0
  6 42  2  0
 19  4  1  0
 27 25  1  0
 33 28  1  0
 40 13  1  0
 42  2  1  0
M  END
$$$$
