
     RDKit          3D

 42 46  0  0  0  0  0  0  0  0999 V2000
  -17.7137  -46.8900   -7.1449 C   0  0  0  0  0  0  0  0  0  0  0  0
  -18.6146  -45.7777   -7.5389 C   0  0  0  0  0  0  0  0  0  0  0  0
  -18.1101  -44.5289   -7.8130 C   0  0  0  0  0  0  0  0  0  0  0  0
  -18.9074  -43.4204   -8.1944 C   0  0  0  0  0  0  0  0  0  0  0  0
  -20.2759  -43.5963   -8.3003 C   0  0  0  0  0  0  0  0  0  0  0  0
  -20.7822  -44.8452   -8.0279 C   0  0  0  0  0  0  0  0  0  0  0  0
  -22.1085  -45.4020   -8.0651 N   0  0  0  0  0  0  0  0  0  0  0  0
  -23.3066  -45.0704   -7.3940 C   0  0  0  0  0  0  0  0  0  0  0  0
  -23.9224  -43.7116   -7.6463 C   0  0  0  0  0  0  0  0  0  0  0  0
  -23.6032  -42.5169   -7.2968 C   0  0  0  0  0  0  0  0  0  0  0  0
  -24.1731  -41.1419   -7.5126 C   0  0  0  0  0  0  0  0  0  0  0  0
  -23.5289  -40.1674   -6.6786 O   0  0  0  0  0  0  0  0  0  0  0  0
  -22.3313  -40.2504   -5.9569 C   0  0  0  0  0  0  0  0  0  0  0  0
  -21.0586  -40.5312   -6.4291 C   0  0  0  0  0  0  0  0  0  0  0  0
  -20.0404  -40.5689   -5.5173 C   0  0  0  0  0  0  0  0  0  0  0  0
  -18.5960  -40.8988   -5.7044 C   0  0  0  0  0  0  0  0  0  0  0  0
  -17.8511  -40.2515   -6.8228 C   0  0  2  0  0  0  0  0  0  0  0  0
  -18.0465  -40.9091   -8.0769 N   0  0  0  0  0  0  0  0  0  0  0  0
  -18.0367  -42.2601   -8.4430 C   0  0  0  0  0  0  0  0  0  0  0  0
  -16.9618  -42.5202   -9.1995 O   0  0  0  0  0  0  0  0  0  0  0  0
  -16.4354  -39.8885   -6.4937 C   0  0  2  0  0  0  0  0  0  0  0  0
  -16.4647  -38.8466   -5.5718 O   0  0  0  0  0  0  0  0  0  0  0  0
  -15.5571  -39.6212   -7.6609 C   0  0  0  0  0  0  0  0  0  0  0  0
  -16.0459  -40.1441   -8.8957 N   0  0  0  0  0  0  0  0  0  0  0  0
  -15.2770  -39.8106  -10.0593 C   0  0  0  0  0  0  0  0  0  0  0  0
  -13.8302  -39.6941  -10.0739 C   0  0  0  0  0  0  0  0  0  0  0  0
  -14.4078  -41.0055  -10.5867 C   0  0  0  0  0  0  0  0  0  0  0  0
  -16.0753  -39.1877  -11.1431 C   0  0  0  0  0  0  0  0  0  0  0  0
  -16.4488  -37.8390  -11.0814 C   0  0  0  0  0  0  0  0  0  0  0  0
  -17.1814  -37.2058  -12.0294 C   0  0  0  0  0  0  0  0  0  0  0  0
  -17.5901  -37.9174  -13.1233 C   0  0  0  0  0  0  0  0  0  0  0  0
  -17.2566  -39.2493  -13.2465 C   0  0  0  0  0  0  0  0  0  0  0  0
  -16.5120  -39.8560  -12.2639 C   0  0  0  0  0  0  0  0  0  0  0  0
  -17.4972  -35.7652  -11.8319 C   0  0  0  0  0  0  0  0  0  0  0  0
  -18.9654  -35.5073  -12.0936 C   0  0  0  0  0  0  0  0  0  0  0  0
  -16.7317  -34.9013  -12.8210 C   0  0  0  0  0  0  0  0  0  0  0  0
  -17.1944  -35.3157  -10.4215 C   0  0  0  0  0  0  0  0  0  0  0  0
  -20.3183  -40.3188   -4.1503 C   0  0  0  0  0  0  0  0  0  0  0  0
  -21.5615  -40.0344   -3.6535 C   0  0  0  0  0  0  0  0  0  0  0  0
  -22.5656  -40.0057   -4.5918 C   0  0  0  0  0  0  0  0  0  0  0  0
  -23.8138  -39.6871   -4.0917 F   0  0  0  0  0  0  0  0  0  0  0  0
  -19.9159  -45.8755   -7.6583 N   0  0  0  0  0  0  0  0  0  0  0  0
  1  2  1  0
  2  3  2  0
  3  4  1  0
  4  5  2  0
  5  6  1  0
  6  7  1  0
  7  8  1  0
  8  9  1  0
  9 10  2  0
 10 11  1  0
 11 12  1  0
 12 13  1  0
 13 14  2  0
 14 15  1  0
 15 16  1  0
 17 16  1  1
 17 18  1  0
 18 19  1  0
 19 20  2  0
 17 21  1  0
 21 22  1  1
 21 23  1  0
 23 24  1  0
 24 25  1  0
 25 26  1  0
 26 27  1  0
 25 28  1  0
 28 29  2  0
 29 30  1  0
 30 31  2  0
 31 32  1  0
 32 33  2  0
 30 34  1  0
 34 35  1  0
 34 36  1  0
 34 37  1  0
 15 38  2  0
 38 39  1  0
 39 40  2  0
 40 41  1  0
  6 42  2  0
 19  4  1  0
 27 25  1  0
 33 28  1  0
 40 13  1  0
 42  2  1  0
M  END
$$$$
