
     RDKit          3D

 42 46  0  0  0  0  0  0  0  0999 V2000
  -20.4885  -40.4566  -12.9610 C   0  0  0  0  0  0  0  0  0  0  0  0
  -19.3506  -41.0182  -12.1903 C   0  0  0  0  0  0  0  0  0  0  0  0
  -19.1445  -40.6587  -10.8798 C   0  0  0  0  0  0  0  0  0  0  0  0
  -18.0815  -41.1528  -10.0823 C   0  0  0  0  0  0  0  0  0  0  0  0
  -17.1938  -42.0512  -10.6478 C   0  0  0  0  0  0  0  0  0  0  0  0
  -17.3992  -42.4130  -11.9582 C   0  0  0  0  0  0  0  0  0  0  0  0
  -16.7266  -43.3220  -12.8480 N   0  0  0  0  0  0  0  0  0  0  0  0
  -15.3982  -43.3910  -13.3236 C   0  0  0  0  0  0  0  0  0  0  0  0
  -14.2854  -43.6219  -12.3249 C   0  0  0  0  0  0  0  0  0  0  0  0
  -13.7380  -42.8863  -11.4245 C   0  0  0  0  0  0  0  0  0  0  0  0
  -12.6370  -43.0586  -10.4144 C   0  0  0  0  0  0  0  0  0  0  0  0
  -12.2732  -41.8074   -9.8127 O   0  0  0  0  0  0  0  0  0  0  0  0
  -12.9457  -40.5786   -9.8130 C   0  0  0  0  0  0  0  0  0  0  0  0
  -14.2279  -40.2984   -9.3670 C   0  0  0  0  0  0  0  0  0  0  0  0
  -14.6706  -39.0100   -9.4855 C   0  0  0  0  0  0  0  0  0  0  0  0
  -16.0020  -38.4186   -9.1575 C   0  0  0  0  0  0  0  0  0  0  0  0
  -16.6206  -38.7315   -7.8369 C   0  0  2  0  0  0  0  0  0  0  0  0
  -17.3029  -39.9876   -7.8246 N   0  0  0  0  0  0  0  0  0  0  0  0
  -18.1884  -40.5867   -8.7279 C   0  0  0  0  0  0  0  0  0  0  0  0
  -19.4172  -40.6384   -8.1963 O   0  0  0  0  0  0  0  0  0  0  0  0
  -17.3577  -37.5862   -7.2130 C   0  0  2  0  0  0  0  0  0  0  0  0
  -16.4300  -36.5933   -6.9135 O   0  0  0  0  0  0  0  0  0  0  0  0
  -18.2361  -37.9396   -6.0690 C   0  0  0  0  0  0  0  0  0  0  0  0
  -19.2906  -38.8442   -6.3958 N   0  0  0  0  0  0  0  0  0  0  0  0
  -20.4971  -38.2418   -6.8835 C   0  0  0  0  0  0  0  0  0  0  0  0
  -20.8701  -36.8589   -6.6482 C   0  0  0  0  0  0  0  0  0  0  0  0
  -20.2426  -37.1691   -7.9997 C   0  0  0  0  0  0  0  0  0  0  0  0
  -21.5329  -39.2238   -7.2871 C   0  0  0  0  0  0  0  0  0  0  0  0
  -21.8243  -40.3362   -6.4872 C   0  0  0  0  0  0  0  0  0  0  0  0
  -22.7511  -41.2758   -6.7949 C   0  0  0  0  0  0  0  0  0  0  0  0
  -23.4556  -41.1424   -7.9594 C   0  0  0  0  0  0  0  0  0  0  0  0
  -23.2182  -40.0702   -8.7927 C   0  0  0  0  0  0  0  0  0  0  0  0
  -22.2702  -39.1381   -8.4458 C   0  0  0  0  0  0  0  0  0  0  0  0
  -22.9576  -42.4014   -5.8439 C   0  0  0  0  0  0  0  0  0  0  0  0
  -21.8086  -43.3826   -5.9319 C   0  0  0  0  0  0  0  0  0  0  0  0
  -24.2122  -43.1847   -6.1943 C   0  0  0  0  0  0  0  0  0  0  0  0
  -23.0416  -41.9167   -4.4152 C   0  0  0  0  0  0  0  0  0  0  0  0
  -13.8159  -38.0272  -10.0441 C   0  0  0  0  0  0  0  0  0  0  0  0
  -12.5447  -38.2706  -10.4888 C   0  0  0  0  0  0  0  0  0  0  0  0
  -12.1274  -39.5739  -10.3599 C   0  0  0  0  0  0  0  0  0  0  0  0
  -10.8323  -39.8095  -10.7805 F   0  0  0  0  0  0  0  0  0  0  0  0
  -18.4753  -41.8712  -12.6632 N   0  0  0  0  0  0  0  0  0  0  0  0
  1  2  1  0
  2  3  2  0
  3  4  1  0
  4  5  2  0
  5  6  1  0
  6  7  1  0
  7  8  1  0
  8  9  1  0
  9 10  2  0
 10 11  1  0
 11 12  1  0
 12 13  1  0
 13 14  2  0
 14 15  1  0
 15 16  1  0
 17 16  1  6
 17 18  1  0
 18 19  1  0
 19 20  2  0
 17 21  1  0
 21 22  1  1
 21 23  1  0
 23 24  1  0
 24 25  1  0
 25 26  1  0
 26 27  1  0
 25 28  1  0
 28 29  2  0
 29 30  1  0
 30 31  2  0
 31 32  1  0
 32 33  2  0
 30 34  1  0
 34 35  1  0
 34 36  1  0
 34 37  1  0
 15 38  2  0
 38 39  1  0
 39 40  2  0
 40 41  1  0
  6 42  2  0
 19  4  1  0
 27 25  1  0
 33 28  1  0
 40 13  1  0
 42  2  1  0
M  END
$$$$
