
     RDKit          3D

 36 38  0  0  0  0  0  0  0  0999 V2000
  -24.6699  -38.4214   -6.9421 C   0  0  0  0  0  0  0  0  0  0  0  0
  -24.2200  -39.8387   -7.0777 C   0  0  0  0  0  0  0  0  0  0  0  0
  -24.5700  -40.5616   -5.7714 C   0  0  0  0  0  0  0  0  0  0  0  0
  -22.7695  -39.9393   -7.3560 C   0  0  0  0  0  0  0  0  0  0  0  0
  -22.3368  -40.8917   -8.2530 C   0  0  0  0  0  0  0  0  0  0  0  0
  -20.9711  -40.9742   -8.5005 C   0  0  0  0  0  0  0  0  0  0  0  0
  -20.0599  -40.1447   -7.8834 C   0  0  0  0  0  0  0  0  0  0  0  0
  -20.5007  -39.1941   -6.9866 C   0  0  0  0  0  0  0  0  0  0  0  0
  -19.6030  -38.2761   -6.2906 C   0  0  0  0  0  0  0  0  0  0  0  0
  -18.2076  -38.5845   -6.4567 N   0  0  0  0  0  0  0  0  0  0  0  0
  -17.8907  -39.0297   -7.7919 C   0  0  0  0  0  0  0  0  0  0  0  0
  -16.4607  -39.3508   -8.0451 C   0  0  1  0  0  0  0  0  0  0  0  0
  -16.2270  -40.5230   -7.2528 O   0  0  0  0  0  0  0  0  0  0  0  0
  -16.1032  -39.7852   -9.4357 C   0  0  2  0  0  0  0  0  0  0  0  0
  -15.6456  -38.6896  -10.3522 C   0  0  0  0  0  0  0  0  0  0  0  0
  -14.1207  -38.5406  -10.4468 C   0  0  0  0  0  0  0  0  0  0  0  0
  -13.8924  -37.3767   -9.4544 C   0  0  0  0  0  0  0  0  0  0  0  0
  -13.2344  -39.1851  -11.1234 C   0  0  0  0  0  0  0  0  0  0  0  0
  -13.1101  -40.3313  -12.1148 C   0  0  0  0  0  0  0  0  0  0  0  0
  -12.1045  -41.3639  -11.8521 C   0  0  0  0  0  0  0  0  0  0  0  0
  -11.2036  -41.2817  -10.6910 C   0  0  0  0  0  0  0  0  0  0  0  0
  -11.5322  -42.1514   -9.5090 C   0  0  0  0  0  0  0  0  0  0  0  0
  -11.2812  -43.6132   -9.7082 C   0  0  0  0  0  0  0  0  0  0  0  0
  -12.1171  -44.3959   -8.7219 C   0  0  0  0  0  0  0  0  0  0  0  0
  -13.3077  -44.9558   -9.2864 N   0  0  0  0  0  0  0  0  0  0  0  0
  -14.6430  -44.4206   -9.4021 C   0  0  0  0  0  0  0  0  0  0  0  0
  -15.1250  -43.2323   -9.8802 C   0  0  0  0  0  0  0  0  0  0  0  0
  -16.4958  -43.0587   -9.8044 C   0  0  0  0  0  0  0  0  0  0  0  0
  -17.3046  -44.0907   -9.2561 C   0  0  0  0  0  0  0  0  0  0  0  0
  -16.7959  -45.2786   -8.7846 C   0  0  0  0  0  0  0  0  0  0  0  0
  -17.6924  -46.3225   -8.2288 C   0  0  0  0  0  0  0  0  0  0  0  0
  -15.4851  -45.4011   -8.8736 N   0  0  0  0  0  0  0  0  0  0  0  0
  -17.3483  -41.9109  -10.1853 C   0  0  0  0  0  0  0  0  0  0  0  0
  -18.4658  -42.2750  -10.7770 O   0  0  0  0  0  0  0  0  0  0  0  0
  -17.2202  -40.5351  -10.0494 N   0  0  0  0  0  0  0  0  0  0  0  0
  -21.8511  -39.1165   -6.7458 C   0  0  0  0  0  0  0  0  0  0  0  0
  1  2  1  0
  2  3  1  0
  2  4  1  0
  4  5  2  0
  5  6  1  0
  6  7  2  0
  7  8  1  0
  8  9  1  0
  9 10  1  0
 10 11  1  0
 11 12  1  0
 12 13  1  1
 12 14  1  0
 14 15  1  6
 15 16  1  0
 16 17  1  0
 16 18  2  0
 18 19  1  0
 19 20  1  0
 20 21  1  0
 21 22  1  0
 22 23  1  0
 23 24  1  0
 24 25  1  0
 25 26  1  0
 26 27  2  0
 27 28  1  0
 28 29  2  0
 29 30  1  0
 30 31  1  0
 30 32  2  0
 28 33  1  0
 33 34  2  0
 33 35  1  0
  8 36  2  0
 32 26  1  0
 35 14  1  0
 36  4  1  0
M  END
$$$$
