
     RDKit          3D

 36 38  0  0  0  0  0  0  0  0999 V2000
  -21.5192  -40.1733   -3.6186 C   0  0  0  0  0  0  0  0  0  0  0  0
  -22.5493  -40.4685   -4.6586 C   0  0  0  0  0  0  0  0  0  0  0  0
  -22.9645  -41.9355   -4.4944 C   0  0  0  0  0  0  0  0  0  0  0  0
  -22.0461  -40.2199   -6.0284 C   0  0  0  0  0  0  0  0  0  0  0  0
  -22.7644  -39.3783   -6.8499 C   0  0  0  0  0  0  0  0  0  0  0  0
  -22.2790  -39.1582   -8.1341 C   0  0  0  0  0  0  0  0  0  0  0  0
  -21.1224  -39.7488   -8.5949 C   0  0  0  0  0  0  0  0  0  0  0  0
  -20.4091  -40.5902   -7.7669 C   0  0  0  0  0  0  0  0  0  0  0  0
  -19.1747  -41.2550   -8.1759 C   0  0  0  0  0  0  0  0  0  0  0  0
  -18.2738  -40.4117   -8.9154 N   0  0  0  0  0  0  0  0  0  0  0  0
  -17.0656  -40.1127   -8.1860 C   0  0  0  0  0  0  0  0  0  0  0  0
  -16.3558  -38.8698   -8.5903 C   0  0  1  0  0  0  0  0  0  0  0  0
  -14.9952  -39.1119   -8.2075 O   0  0  0  0  0  0  0  0  0  0  0  0
  -16.2667  -38.5924  -10.0618 C   0  0  2  0  0  0  0  0  0  0  0  0
  -17.1055  -37.4492  -10.5510 C   0  0  0  0  0  0  0  0  0  0  0  0
  -16.3511  -36.1176  -10.6702 C   0  0  0  0  0  0  0  0  0  0  0  0
  -16.7660  -35.4425   -9.3421 C   0  0  0  0  0  0  0  0  0  0  0  0
  -15.5673  -35.6522  -11.5800 C   0  0  0  0  0  0  0  0  0  0  0  0
  -14.9582  -36.0328  -12.9202 C   0  0  0  0  0  0  0  0  0  0  0  0
  -13.5157  -35.8487  -13.0991 C   0  0  0  0  0  0  0  0  0  0  0  0
  -12.6772  -35.2702  -12.0366 C   0  0  0  0  0  0  0  0  0  0  0  0
  -11.8459  -36.2263  -11.2264 C   0  0  0  0  0  0  0  0  0  0  0  0
  -10.6749  -36.8163  -11.9474 C   0  0  0  0  0  0  0  0  0  0  0  0
  -10.2687  -38.0998  -11.2606 C   0  0  0  0  0  0  0  0  0  0  0  0
  -10.7315  -39.2827  -11.9211 N   0  0  0  0  0  0  0  0  0  0  0  0
  -11.9506  -40.0390  -11.7644 C   0  0  0  0  0  0  0  0  0  0  0  0
  -13.2701  -39.6760  -11.7598 C   0  0  0  0  0  0  0  0  0  0  0  0
  -14.1801  -40.6977  -11.5515 C   0  0  0  0  0  0  0  0  0  0  0  0
  -13.7123  -42.0265  -11.3637 C   0  0  0  0  0  0  0  0  0  0  0  0
  -12.3796  -42.3666  -11.3757 C   0  0  0  0  0  0  0  0  0  0  0  0
  -11.9520  -43.7742  -11.1802 C   0  0  0  0  0  0  0  0  0  0  0  0
  -11.5471  -41.3623  -11.5748 N   0  0  0  0  0  0  0  0  0  0  0  0
  -15.6560  -40.6732  -11.4504 C   0  0  0  0  0  0  0  0  0  0  0  0
  -16.2303  -41.6818  -12.0704 O   0  0  0  0  0  0  0  0  0  0  0  0
  -16.5607  -39.8149  -10.8400 N   0  0  0  0  0  0  0  0  0  0  0  0
  -20.8928  -40.8041   -6.4990 C   0  0  0  0  0  0  0  0  0  0  0  0
  1  2  1  0
  2  3  1  0
  2  4  1  0
  4  5  2  0
  5  6  1  0
  6  7  2  0
  7  8  1  0
  8  9  1  0
  9 10  1  0
 10 11  1  0
 11 12  1  0
 12 13  1  6
 12 14  1  0
 14 15  1  6
 15 16  1  0
 16 17  1  0
 16 18  2  0
 18 19  1  0
 19 20  1  0
 20 21  1  0
 21 22  1  0
 22 23  1  0
 23 24  1  0
 24 25  1  0
 25 26  1  0
 26 27  2  0
 27 28  1  0
 28 29  2  0
 29 30  1  0
 30 31  1  0
 30 32  2  0
 28 33  1  0
 33 34  2  0
 33 35  1  0
  8 36  2  0
 32 26  1  0
 35 14  1  0
 36  4  1  0
M  END
$$$$
