
     RDKit          3D

 36 38  0  0  0  0  0  0  0  0999 V2000
  -22.1880  -41.3465   -4.8705 C   0  0  0  0  0  0  0  0  0  0  0  0
  -22.6694  -40.0018   -5.3062 C   0  0  0  0  0  0  0  0  0  0  0  0
  -24.1982  -40.0681   -5.4052 C   0  0  0  0  0  0  0  0  0  0  0  0
  -22.0810  -39.5914   -6.6011 C   0  0  0  0  0  0  0  0  0  0  0  0
  -22.8074  -39.8093   -7.7517 C   0  0  0  0  0  0  0  0  0  0  0  0
  -22.2386  -39.4204   -8.9593 C   0  0  0  0  0  0  0  0  0  0  0  0
  -20.9930  -38.8354   -9.0315 C   0  0  0  0  0  0  0  0  0  0  0  0
  -20.2719  -38.6209   -7.8756 C   0  0  0  0  0  0  0  0  0  0  0  0
  -18.9468  -38.0068   -7.8636 C   0  0  0  0  0  0  0  0  0  0  0  0
  -18.2445  -38.1561   -6.6169 N   0  0  0  0  0  0  0  0  0  0  0  0
  -17.8830  -39.5254   -6.3418 C   0  0  0  0  0  0  0  0  0  0  0  0
  -16.6240  -40.0024   -6.9739 C   0  0  1  0  0  0  0  0  0  0  0  0
  -16.2499  -41.1364   -6.1799 O   0  0  0  0  0  0  0  0  0  0  0  0
  -16.7358  -40.5618   -8.3613 C   0  0  2  0  0  0  0  0  0  0  0  0
  -15.7336  -40.0380   -9.3467 C   0  0  0  0  0  0  0  0  0  0  0  0
  -14.4985  -40.9315   -9.5271 C   0  0  0  0  0  0  0  0  0  0  0  0
  -13.4942  -40.2092   -8.5990 C   0  0  0  0  0  0  0  0  0  0  0  0
  -14.3037  -41.9990  -10.2208 C   0  0  0  0  0  0  0  0  0  0  0  0
  -15.0319  -42.9405  -11.1671 C   0  0  0  0  0  0  0  0  0  0  0  0
  -14.9397  -44.3805  -10.9131 C   0  0  0  0  0  0  0  0  0  0  0  0
  -14.1314  -44.9153   -9.8053 C   0  0  0  0  0  0  0  0  0  0  0  0
  -14.8703  -45.3548   -8.5714 C   0  0  0  0  0  0  0  0  0  0  0  0
  -15.6575  -46.6187   -8.7204 C   0  0  0  0  0  0  0  0  0  0  0  0
  -16.7327  -46.6579   -7.6590 C   0  0  0  0  0  0  0  0  0  0  0  0
  -18.0322  -46.2924   -8.1359 N   0  0  0  0  0  0  0  0  0  0  0  0
  -18.6891  -45.0092   -8.2046 C   0  0  0  0  0  0  0  0  0  0  0  0
  -18.3009  -43.7971   -8.7075 C   0  0  0  0  0  0  0  0  0  0  0  0
  -19.2094  -42.7627   -8.5678 C   0  0  0  0  0  0  0  0  0  0  0  0
  -20.4581  -43.0063   -7.9341 C   0  0  0  0  0  0  0  0  0  0  0  0
  -20.8264  -44.2356   -7.4391 C   0  0  0  0  0  0  0  0  0  0  0  0
  -22.1481  -44.4303   -6.7928 C   0  0  0  0  0  0  0  0  0  0  0  0
  -19.9302  -45.1920   -7.5912 N   0  0  0  0  0  0  0  0  0  0  0  0
  -19.1191  -41.3369   -8.9527 C   0  0  0  0  0  0  0  0  0  0  0  0
  -20.2368  -40.8724   -9.4690 O   0  0  0  0  0  0  0  0  0  0  0  0
  -18.1085  -40.3875   -8.8830 N   0  0  0  0  0  0  0  0  0  0  0  0
  -20.8385  -39.0066   -6.6850 C   0  0  0  0  0  0  0  0  0  0  0  0
  1  2  1  0
  2  3  1  0
  2  4  1  0
  4  5  2  0
  5  6  1  0
  6  7  2  0
  7  8  1  0
  8  9  1  0
  9 10  1  0
 10 11  1  0
 11 12  1  0
 12 13  1  1
 12 14  1  0
 14 15  1  6
 15 16  1  0
 16 17  1  0
 16 18  2  0
 18 19  1  0
 19 20  1  0
 20 21  1  0
 21 22  1  0
 22 23  1  0
 23 24  1  0
 24 25  1  0
 25 26  1  0
 26 27  2  0
 27 28  1  0
 28 29  2  0
 29 30  1  0
 30 31  1  0
 30 32  2  0
 28 33  1  0
 33 34  2  0
 33 35  1  0
  8 36  2  0
 32 26  1  0
 35 14  1  0
 36  4  1  0
M  END
$$$$
