
     RDKit          3D

 36 38  0  0  0  0  0  0  0  0999 V2000
  -23.0394  -40.2483   -3.2222 C   0  0  0  0  0  0  0  0  0  0  0  0
  -22.7620  -41.3578   -4.1823 C   0  0  0  0  0  0  0  0  0  0  0  0
  -21.6319  -42.2090   -3.5909 C   0  0  0  0  0  0  0  0  0  0  0  0
  -22.3877  -40.8545   -5.5233 C   0  0  0  0  0  0  0  0  0  0  0  0
  -23.1145  -41.2833   -6.6127 C   0  0  0  0  0  0  0  0  0  0  0  0
  -22.7477  -40.8029   -7.8649 C   0  0  0  0  0  0  0  0  0  0  0  0
  -21.6975  -39.9278   -8.0386 C   0  0  0  0  0  0  0  0  0  0  0  0
  -20.9746  -39.5034   -6.9433 C   0  0  0  0  0  0  0  0  0  0  0  0
  -19.8491  -38.5776   -7.0395 C   0  0  0  0  0  0  0  0  0  0  0  0
  -18.8256  -38.9952   -7.9602 N   0  0  0  0  0  0  0  0  0  0  0  0
  -17.5841  -39.3222   -7.3021 C   0  0  0  0  0  0  0  0  0  0  0  0
  -16.3554  -38.7528   -7.9173 C   0  0  1  0  0  0  0  0  0  0  0  0
  -15.3151  -39.6442   -7.4936 O   0  0  0  0  0  0  0  0  0  0  0  0
  -16.2698  -38.7936   -9.4144 C   0  0  2  0  0  0  0  0  0  0  0  0
  -16.4049  -37.4668  -10.1009 C   0  0  0  0  0  0  0  0  0  0  0  0
  -15.0685  -36.7978  -10.4515 C   0  0  0  0  0  0  0  0  0  0  0  0
  -14.9290  -35.8155   -9.2652 C   0  0  0  0  0  0  0  0  0  0  0  0
  -14.2469  -36.9779  -11.4268 C   0  0  0  0  0  0  0  0  0  0  0  0
  -14.0665  -37.8250  -12.6765 C   0  0  0  0  0  0  0  0  0  0  0  0
  -12.7752  -38.4866  -12.8806 C   0  0  0  0  0  0  0  0  0  0  0  0
  -11.6619  -38.3072  -11.9346 C   0  0  0  0  0  0  0  0  0  0  0  0
  -11.4025  -39.4274  -10.9653 C   0  0  0  0  0  0  0  0  0  0  0  0
  -10.8055  -40.6607  -11.5668 C   0  0  0  0  0  0  0  0  0  0  0  0
  -11.0899  -41.8377  -10.6624 C   0  0  0  0  0  0  0  0  0  0  0  0
  -12.1752  -42.6600  -11.1045 N   0  0  0  0  0  0  0  0  0  0  0  0
  -13.5887  -42.5955  -10.8203 C   0  0  0  0  0  0  0  0  0  0  0  0
  -14.4994  -41.5760  -10.8842 C   0  0  0  0  0  0  0  0  0  0  0  0
  -15.7914  -41.8911  -10.5014 C   0  0  0  0  0  0  0  0  0  0  0  0
  -16.0954  -43.2139  -10.0798 C   0  0  0  0  0  0  0  0  0  0  0  0
  -15.1620  -44.2229  -10.0272 C   0  0  0  0  0  0  0  0  0  0  0  0
  -15.5413  -45.5876   -9.5843 C   0  0  0  0  0  0  0  0  0  0  0  0
  -13.9434  -43.8784  -10.3982 N   0  0  0  0  0  0  0  0  0  0  0  0
  -17.0059  -41.0510  -10.4108 C   0  0  0  0  0  0  0  0  0  0  0  0
  -18.0873  -41.6628  -10.8444 O   0  0  0  0  0  0  0  0  0  0  0  0
  -17.2461  -39.7583   -9.9649 N   0  0  0  0  0  0  0  0  0  0  0  0
  -21.3413  -39.9808   -5.7084 C   0  0  0  0  0  0  0  0  0  0  0  0
  1  2  1  0
  2  3  1  0
  2  4  1  0
  4  5  2  0
  5  6  1  0
  6  7  2  0
  7  8  1  0
  8  9  1  0
  9 10  1  0
 10 11  1  0
 11 12  1  0
 12 13  1  1
 12 14  1  0
 14 15  1  6
 15 16  1  0
 16 17  1  0
 16 18  2  0
 18 19  1  0
 19 20  1  0
 20 21  1  0
 21 22  1  0
 22 23  1  0
 23 24  1  0
 24 25  1  0
 25 26  1  0
 26 27  2  0
 27 28  1  0
 28 29  2  0
 29 30  1  0
 30 31  1  0
 30 32  2  0
 28 33  1  0
 33 34  2  0
 33 35  1  0
  8 36  2  0
 32 26  1  0
 35 14  1  0
 36  4  1  0
M  END
$$$$
