
     RDKit          3D

 36 38  0  0  0  0  0  0  0  0999 V2000
  -23.9445  -38.9692   -4.8405 C   0  0  0  0  0  0  0  0  0  0  0  0
  -23.3078  -40.3157   -4.9460 C   0  0  0  0  0  0  0  0  0  0  0  0
  -22.5271  -40.5606   -3.6491 C   0  0  0  0  0  0  0  0  0  0  0  0
  -22.4122  -40.4188   -6.1203 C   0  0  0  0  0  0  0  0  0  0  0  0
  -22.9616  -40.2993   -7.3784 C   0  0  0  0  0  0  0  0  0  0  0  0
  -22.1066  -40.4014   -8.4700 C   0  0  0  0  0  0  0  0  0  0  0  0
  -20.7528  -40.6149   -8.3270 C   0  0  0  0  0  0  0  0  0  0  0  0
  -20.2104  -40.7337   -7.0645 C   0  0  0  0  0  0  0  0  0  0  0  0
  -18.7875  -40.9598   -6.8249 C   0  0  0  0  0  0  0  0  0  0  0  0
  -17.9616  -39.8098   -7.0806 N   0  0  0  0  0  0  0  0  0  0  0  0
  -16.5725  -40.1520   -7.2662 C   0  0  0  0  0  0  0  0  0  0  0  0
  -15.7410  -39.1313   -7.9582 C   0  0  1  0  0  0  0  0  0  0  0  0
  -14.3964  -39.5813   -7.7435 O   0  0  0  0  0  0  0  0  0  0  0  0
  -15.8589  -39.0654   -9.4523 C   0  0  2  0  0  0  0  0  0  0  0  0
  -16.9919  -38.2300   -9.9700 C   0  0  0  0  0  0  0  0  0  0  0  0
  -16.5978  -36.7952  -10.3475 C   0  0  0  0  0  0  0  0  0  0  0  0
  -17.0390  -36.0403   -9.0720 C   0  0  0  0  0  0  0  0  0  0  0  0
  -16.0384  -36.3060  -11.3995 C   0  0  0  0  0  0  0  0  0  0  0  0
  -15.4824  -36.7351  -12.7480 C   0  0  0  0  0  0  0  0  0  0  0  0
  -14.1508  -36.2568  -13.1285 C   0  0  0  0  0  0  0  0  0  0  0  0
  -13.3829  -35.3497  -12.2601 C   0  0  0  0  0  0  0  0  0  0  0  0
  -12.2728  -35.9586  -11.4486 C   0  0  0  0  0  0  0  0  0  0  0  0
  -11.0657  -36.3683  -12.2325 C   0  0  0  0  0  0  0  0  0  0  0  0
  -10.2981  -37.4075  -11.4483 C   0  0  0  0  0  0  0  0  0  0  0  0
  -10.5191  -38.7502  -11.8933 N   0  0  0  0  0  0  0  0  0  0  0  0
  -11.4981  -39.7316  -11.4917 C   0  0  0  0  0  0  0  0  0  0  0  0
  -12.8600  -39.6818  -11.3662 C   0  0  0  0  0  0  0  0  0  0  0  0
  -13.4713  -40.8404  -10.9199 C   0  0  0  0  0  0  0  0  0  0  0  0
  -12.6794  -41.9842  -10.6290 C   0  0  0  0  0  0  0  0  0  0  0  0
  -11.3111  -42.0100  -10.7663 C   0  0  0  0  0  0  0  0  0  0  0  0
  -10.5383  -43.2377  -10.4531 C   0  0  0  0  0  0  0  0  0  0  0  0
  -10.7696  -40.8845  -11.1918 N   0  0  0  0  0  0  0  0  0  0  0  0
  -14.8929  -41.1373  -10.6376 C   0  0  0  0  0  0  0  0  0  0  0  0
  -15.2602  -42.3316  -11.0504 O   0  0  0  0  0  0  0  0  0  0  0  0
  -15.9183  -40.4256  -10.0295 N   0  0  0  0  0  0  0  0  0  0  0  0
  -21.0594  -40.6318   -5.9893 C   0  0  0  0  0  0  0  0  0  0  0  0
  1  2  1  0
  2  3  1  0
  2  4  1  0
  4  5  2  0
  5  6  1  0
  6  7  2  0
  7  8  1  0
  8  9  1  0
  9 10  1  0
 10 11  1  0
 11 12  1  0
 12 13  1  6
 12 14  1  0
 14 15  1  1
 15 16  1  0
 16 17  1  0
 16 18  2  0
 18 19  1  0
 19 20  1  0
 20 21  1  0
 21 22  1  0
 22 23  1  0
 23 24  1  0
 24 25  1  0
 25 26  1  0
 26 27  2  0
 27 28  1  0
 28 29  2  0
 29 30  1  0
 30 31  1  0
 30 32  2  0
 28 33  1  0
 33 34  2  0
 33 35  1  0
  8 36  2  0
 32 26  1  0
 35 14  1  0
 36  4  1  0
M  END
$$$$
