
     RDKit          3D

 36 38  0  0  0  0  0  0  0  0999 V2000
  -23.7889  -41.6937   -5.3363 C   0  0  0  0  0  0  0  0  0  0  0  0
  -22.7174  -40.6792   -5.1077 C   0  0  0  0  0  0  0  0  0  0  0  0
  -23.1923  -39.7508   -3.9834 C   0  0  0  0  0  0  0  0  0  0  0  0
  -22.4143  -39.9027   -6.3312 C   0  0  0  0  0  0  0  0  0  0  0  0
  -23.3658  -39.8462   -7.3263 C   0  0  0  0  0  0  0  0  0  0  0  0
  -23.0637  -39.1148   -8.4696 C   0  0  0  0  0  0  0  0  0  0  0  0
  -21.8616  -38.4601   -8.6279 C   0  0  0  0  0  0  0  0  0  0  0  0
  -20.9141  -38.5216   -7.6276 C   0  0  0  0  0  0  0  0  0  0  0  0
  -19.6166  -37.8567   -7.7148 C   0  0  0  0  0  0  0  0  0  0  0  0
  -18.6810  -38.5128   -8.5889 N   0  0  0  0  0  0  0  0  0  0  0  0
  -17.8161  -39.4319   -7.8900 C   0  0  0  0  0  0  0  0  0  0  0  0
  -16.3617  -39.2903   -8.1670 C   0  0  1  0  0  0  0  0  0  0  0  0
  -15.7461  -40.1917   -7.2369 O   0  0  0  0  0  0  0  0  0  0  0  0
  -15.8793  -39.7741   -9.5024 C   0  0  2  0  0  0  0  0  0  0  0  0
  -14.9722  -38.8317  -10.2366 C   0  0  0  0  0  0  0  0  0  0  0  0
  -13.4761  -39.1206  -10.0498 C   0  0  0  0  0  0  0  0  0  0  0  0
  -13.1300  -38.0947   -8.9456 C   0  0  0  0  0  0  0  0  0  0  0  0
  -12.6892  -39.9738  -10.6080 C   0  0  0  0  0  0  0  0  0  0  0  0
  -12.6984  -41.0832  -11.6478 C   0  0  0  0  0  0  0  0  0  0  0  0
  -12.0847  -42.3655  -11.2932 C   0  0  0  0  0  0  0  0  0  0  0  0
  -11.4343  -42.5717   -9.9890 C   0  0  0  0  0  0  0  0  0  0  0  0
  -12.2084  -43.3408   -8.9541 C   0  0  0  0  0  0  0  0  0  0  0  0
  -12.3358  -44.8082   -9.2188 C   0  0  0  0  0  0  0  0  0  0  0  0
  -13.5267  -45.3446   -8.4584 C   0  0  0  0  0  0  0  0  0  0  0  0
  -14.6951  -45.5285   -9.2650 N   0  0  0  0  0  0  0  0  0  0  0  0
  -15.7843  -44.6327   -9.5718 C   0  0  0  0  0  0  0  0  0  0  0  0
  -15.8206  -43.3450  -10.0337 C   0  0  0  0  0  0  0  0  0  0  0  0
  -17.0792  -42.7902  -10.1868 C   0  0  0  0  0  0  0  0  0  0  0  0
  -18.2296  -43.5626   -9.8709 C   0  0  0  0  0  0  0  0  0  0  0  0
  -18.1667  -44.8573   -9.4107 C   0  0  0  0  0  0  0  0  0  0  0  0
  -19.4045  -45.6163   -9.1036 C   0  0  0  0  0  0  0  0  0  0  0  0
  -16.9482  -45.3457   -9.2772 N   0  0  0  0  0  0  0  0  0  0  0  0
  -17.4944  -41.4383  -10.6216 C   0  0  0  0  0  0  0  0  0  0  0  0
  -18.5349  -41.4546  -11.4270 O   0  0  0  0  0  0  0  0  0  0  0  0
  -17.0212  -40.1597  -10.3592 N   0  0  0  0  0  0  0  0  0  0  0  0
  -21.2177  -39.2451   -6.4999 C   0  0  0  0  0  0  0  0  0  0  0  0
  1  2  1  0
  2  3  1  0
  2  4  1  0
  4  5  2  0
  5  6  1  0
  6  7  2  0
  7  8  1  0
  8  9  1  0
  9 10  1  0
 10 11  1  0
 11 12  1  0
 12 13  1  1
 12 14  1  0
 14 15  1  6
 15 16  1  0
 16 17  1  0
 16 18  2  0
 18 19  1  0
 19 20  1  0
 20 21  1  0
 21 22  1  0
 22 23  1  0
 23 24  1  0
 24 25  1  0
 25 26  1  0
 26 27  2  0
 27 28  1  0
 28 29  2  0
 29 30  1  0
 30 31  1  0
 30 32  2  0
 28 33  1  0
 33 34  2  0
 33 35  1  0
  8 36  2  0
 32 26  1  0
 35 14  1  0
 36  4  1  0
M  END
$$$$
