
     RDKit          3D

 36 38  0  0  0  0  0  0  0  0999 V2000
  -12.3288  -34.8204  -11.1795 C   0  0  0  0  0  0  0  0  0  0  0  0
  -13.4118  -35.4988  -11.9519 C   0  0  0  0  0  0  0  0  0  0  0  0
  -14.7497  -34.9153  -11.4818 C   0  0  0  0  0  0  0  0  0  0  0  0
  -13.3913  -36.9677  -11.7687 C   0  0  0  0  0  0  0  0  0  0  0  0
  -13.3668  -37.7695  -12.8891 C   0  0  0  0  0  0  0  0  0  0  0  0
  -13.3505  -39.1468  -12.6989 C   0  0  0  0  0  0  0  0  0  0  0  0
  -13.3587  -39.7164  -11.4442 C   0  0  0  0  0  0  0  0  0  0  0  0
  -13.3836  -38.9073  -10.3275 C   0  0  0  0  0  0  0  0  0  0  0  0
  -13.3929  -39.4291   -8.9635 C   0  0  0  0  0  0  0  0  0  0  0  0
  -14.5737  -39.0890   -8.2154 N   0  0  0  0  0  0  0  0  0  0  0  0
  -15.7761  -39.6396   -8.7919 C   0  0  0  0  0  0  0  0  0  0  0  0
  -17.0554  -39.0889   -8.2703 C   0  0  1  0  0  0  0  0  0  0  0  0
  -17.9623  -39.2250   -9.3728 O   0  0  0  0  0  0  0  0  0  0  0  0
  -17.7204  -39.8574   -7.1668 C   0  0  2  0  0  0  0  0  0  0  0  0
  -18.1936  -39.0335   -6.0062 C   0  0  0  0  0  0  0  0  0  0  0  0
  -19.6764  -38.6418   -6.0723 C   0  0  0  0  0  0  0  0  0  0  0  0
  -19.5606  -37.2073   -6.6383 C   0  0  0  0  0  0  0  0  0  0  0  0
  -20.7502  -39.2882   -5.7759 C   0  0  0  0  0  0  0  0  0  0  0  0
  -21.2067  -40.6407   -5.2521 C   0  0  0  0  0  0  0  0  0  0  0  0
  -22.2720  -41.3373   -5.9778 C   0  0  0  0  0  0  0  0  0  0  0  0
  -22.9213  -40.7355   -7.1538 C   0  0  0  0  0  0  0  0  0  0  0  0
  -22.4944  -41.2429   -8.5036 C   0  0  0  0  0  0  0  0  0  0  0  0
  -22.9675  -42.6218   -8.8412 C   0  0  0  0  0  0  0  0  0  0  0  0
  -22.0719  -43.2021   -9.9114 C   0  0  0  0  0  0  0  0  0  0  0  0
  -21.0917  -44.1189   -9.4131 N   0  0  0  0  0  0  0  0  0  0  0  0
  -19.7431  -43.9020   -8.9471 C   0  0  0  0  0  0  0  0  0  0  0  0
  -19.2075  -43.0300   -8.0385 C   0  0  0  0  0  0  0  0  0  0  0  0
  -17.8359  -43.0980   -7.8673 C   0  0  0  0  0  0  0  0  0  0  0  0
  -17.0813  -44.0412   -8.6162 C   0  0  0  0  0  0  0  0  0  0  0  0
  -17.6440  -44.9098   -9.5222 C   0  0  0  0  0  0  0  0  0  0  0  0
  -16.8041  -45.8780  -10.2703 C   0  0  0  0  0  0  0  0  0  0  0  0
  -18.9529  -44.8094   -9.6557 N   0  0  0  0  0  0  0  0  0  0  0  0
  -16.9268  -42.3023   -7.0133 C   0  0  0  0  0  0  0  0  0  0  0  0
  -15.9970  -43.0312   -6.4338 O   0  0  0  0  0  0  0  0  0  0  0  0
  -16.8458  -40.9530   -6.6962 N   0  0  0  0  0  0  0  0  0  0  0  0
  -13.3991  -37.5472  -10.5210 C   0  0  0  0  0  0  0  0  0  0  0  0
  1  2  1  0
  2  3  1  0
  2  4  1  0
  4  5  2  0
  5  6  1  0
  6  7  2  0
  7  8  1  0
  8  9  1  0
  9 10  1  0
 10 11  1  0
 11 12  1  0
 12 13  1  6
 12 14  1  0
 14 15  1  1
 15 16  1  0
 16 17  1  0
 16 18  2  0
 18 19  1  0
 19 20  1  0
 20 21  1  0
 21 22  1  0
 22 23  1  0
 23 24  1  0
 24 25  1  0
 25 26  1  0
 26 27  2  0
 27 28  1  0
 28 29  2  0
 29 30  1  0
 30 31  1  0
 30 32  2  0
 28 33  1  0
 33 34  2  0
 33 35  1  0
  8 36  2  0
 32 26  1  0
 35 14  1  0
 36  4  1  0
M  END
$$$$
