
     RDKit          3D

 36 38  0  0  0  0  0  0  0  0999 V2000
  -22.9911  -40.4795   -2.8311 C   0  0  0  0  0  0  0  0  0  0  0  0
  -22.1360  -41.5067   -3.4969 C   0  0  0  0  0  0  0  0  0  0  0  0
  -20.7474  -41.4420   -2.8495 C   0  0  0  0  0  0  0  0  0  0  0  0
  -22.0399  -41.2903   -4.9582 C   0  0  0  0  0  0  0  0  0  0  0  0
  -22.7577  -42.1180   -5.7939 C   0  0  0  0  0  0  0  0  0  0  0  0
  -22.6537  -41.9025   -7.1635 C   0  0  0  0  0  0  0  0  0  0  0  0
  -21.8668  -40.9032   -7.6936 C   0  0  0  0  0  0  0  0  0  0  0  0
  -21.1510  -40.0789   -6.8507 C   0  0  0  0  0  0  0  0  0  0  0  0
  -20.2950  -38.9967   -7.3295 C   0  0  0  0  0  0  0  0  0  0  0  0
  -19.1102  -39.4462   -8.0106 N   0  0  0  0  0  0  0  0  0  0  0  0
  -17.8968  -39.0411   -7.3435 C   0  0  0  0  0  0  0  0  0  0  0  0
  -17.1064  -37.9810   -8.0243 C   0  0  1  0  0  0  0  0  0  0  0  0
  -15.8093  -38.0792   -7.4206 O   0  0  0  0  0  0  0  0  0  0  0  0
  -16.8332  -38.1773   -9.4862 C   0  0  2  0  0  0  0  0  0  0  0  0
  -17.5995  -37.2762  -10.4085 C   0  0  0  0  0  0  0  0  0  0  0  0
  -16.8302  -36.0239  -10.8516 C   0  0  0  0  0  0  0  0  0  0  0  0
  -17.4044  -34.9806   -9.8650 C   0  0  0  0  0  0  0  0  0  0  0  0
  -15.9370  -35.8408  -11.7613 C   0  0  0  0  0  0  0  0  0  0  0  0
  -15.1673  -36.6017  -12.8293 C   0  0  0  0  0  0  0  0  0  0  0  0
  -13.7129  -36.4325  -12.8833 C   0  0  0  0  0  0  0  0  0  0  0  0
  -13.0109  -35.5201  -11.9660 C   0  0  0  0  0  0  0  0  0  0  0  0
  -12.2913  -36.1431  -10.8016 C   0  0  0  0  0  0  0  0  0  0  0  0
  -11.0422  -36.8882  -11.1535 C   0  0  0  0  0  0  0  0  0  0  0  0
  -10.7305  -37.8756  -10.0525 C   0  0  0  0  0  0  0  0  0  0  0  0
  -11.1126  -39.2217  -10.3553 N   0  0  0  0  0  0  0  0  0  0  0  0
  -12.3451  -39.9328  -10.1144 C   0  0  0  0  0  0  0  0  0  0  0  0
  -13.6533  -39.6336  -10.3828 C   0  0  0  0  0  0  0  0  0  0  0  0
  -14.5866  -40.5693   -9.9726 C   0  0  0  0  0  0  0  0  0  0  0  0
  -14.1518  -41.7544   -9.3195 C   0  0  0  0  0  0  0  0  0  0  0  0
  -12.8295  -42.0338   -9.0637 C   0  0  0  0  0  0  0  0  0  0  0  0
  -12.4360  -43.2926   -8.3834 C   0  0  0  0  0  0  0  0  0  0  0  0
  -11.9743  -41.1144   -9.4692 N   0  0  0  0  0  0  0  0  0  0  0  0
  -16.0635  -40.5663  -10.0617 C   0  0  0  0  0  0  0  0  0  0  0  0
  -16.5605  -41.7383  -10.3949 O   0  0  0  0  0  0  0  0  0  0  0  0
  -17.0335  -39.5921   -9.8670 N   0  0  0  0  0  0  0  0  0  0  0  0
  -21.2575  -40.2958   -5.4983 C   0  0  0  0  0  0  0  0  0  0  0  0
  1  2  1  0
  2  3  1  0
  2  4  1  0
  4  5  2  0
  5  6  1  0
  6  7  2  0
  7  8  1  0
  8  9  1  0
  9 10  1  0
 10 11  1  0
 11 12  1  0
 12 13  1  1
 12 14  1  0
 14 15  1  6
 15 16  1  0
 16 17  1  0
 16 18  2  0
 18 19  1  0
 19 20  1  0
 20 21  1  0
 21 22  1  0
 22 23  1  0
 23 24  1  0
 24 25  1  0
 25 26  1  0
 26 27  2  0
 27 28  1  0
 28 29  2  0
 29 30  1  0
 30 31  1  0
 30 32  2  0
 28 33  1  0
 33 34  2  0
 33 35  1  0
  8 36  2  0
 32 26  1  0
 35 14  1  0
 36  4  1  0
M  END
$$$$
