
     RDKit          3D

 36 38  0  0  0  0  0  0  0  0999 V2000
  -12.7773  -34.7018  -11.9775 C   0  0  0  0  0  0  0  0  0  0  0  0
  -12.2573  -35.9474  -11.3390 C   0  0  0  0  0  0  0  0  0  0  0  0
  -10.7558  -36.0286  -11.6396 C   0  0  0  0  0  0  0  0  0  0  0  0
  -12.9530  -37.1583  -11.8302 C   0  0  0  0  0  0  0  0  0  0  0  0
  -12.4221  -37.8283  -12.9110 C   0  0  0  0  0  0  0  0  0  0  0  0
  -13.0897  -38.9619  -13.3611 C   0  0  0  0  0  0  0  0  0  0  0  0
  -14.2444  -39.4210  -12.7654 C   0  0  0  0  0  0  0  0  0  0  0  0
  -14.7698  -38.7447  -11.6842 C   0  0  0  0  0  0  0  0  0  0  0  0
  -15.9874  -39.1639  -10.9952 C   0  0  0  0  0  0  0  0  0  0  0  0
  -15.9224  -39.0369   -9.5636 N   0  0  0  0  0  0  0  0  0  0  0  0
  -16.4819  -40.1759   -8.8774 C   0  0  0  0  0  0  0  0  0  0  0  0
  -17.9603  -40.1719   -8.7146 C   0  0  1  0  0  0  0  0  0  0  0  0
  -18.3664  -41.4439   -9.2378 O   0  0  0  0  0  0  0  0  0  0  0  0
  -18.4839  -40.1827   -7.3089 C   0  0  2  0  0  0  0  0  0  0  0  0
  -18.7356  -38.8316   -6.7079 C   0  0  0  0  0  0  0  0  0  0  0  0
  -20.1913  -38.3554   -6.8111 C   0  0  0  0  0  0  0  0  0  0  0  0
  -20.0968  -37.4377   -8.0522 C   0  0  0  0  0  0  0  0  0  0  0  0
  -21.2361  -38.6261   -6.1084 C   0  0  0  0  0  0  0  0  0  0  0  0
  -21.6696  -39.4551   -4.9097 C   0  0  0  0  0  0  0  0  0  0  0  0
  -22.8644  -40.2921   -5.0461 C   0  0  0  0  0  0  0  0  0  0  0  0
  -23.6570  -40.3038   -6.2863 C   0  0  0  0  0  0  0  0  0  0  0  0
  -23.4652  -41.4766   -7.2080 C   0  0  0  0  0  0  0  0  0  0  0  0
  -24.0479  -42.7665   -6.7222 C   0  0  0  0  0  0  0  0  0  0  0  0
  -23.3541  -43.9142   -7.4190 C   0  0  0  0  0  0  0  0  0  0  0  0
  -22.3530  -44.5565   -6.6224 N   0  0  0  0  0  0  0  0  0  0  0  0
  -20.9404  -44.2943   -6.4848 C   0  0  0  0  0  0  0  0  0  0  0  0
  -20.2325  -43.1514   -6.2292 C   0  0  0  0  0  0  0  0  0  0  0  0
  -18.8555  -43.2852   -6.1946 C   0  0  0  0  0  0  0  0  0  0  0  0
  -18.2687  -44.5607   -6.4149 C   0  0  0  0  0  0  0  0  0  0  0  0
  -19.0029  -45.6962   -6.6672 C   0  0  0  0  0  0  0  0  0  0  0  0
  -18.3330  -47.0028   -6.8828 C   0  0  0  0  0  0  0  0  0  0  0  0
  -20.3107  -45.5231   -6.6936 N   0  0  0  0  0  0  0  0  0  0  0  0
  -17.7906  -42.2796   -5.9849 C   0  0  0  0  0  0  0  0  0  0  0  0
  -16.8182  -42.7145   -5.2124 O   0  0  0  0  0  0  0  0  0  0  0  0
  -17.5996  -40.9787   -6.4308 N   0  0  0  0  0  0  0  0  0  0  0  0
  -14.1061  -37.6256  -11.2432 C   0  0  0  0  0  0  0  0  0  0  0  0
  1  2  1  0
  2  3  1  0
  2  4  1  0
  4  5  2  0
  5  6  1  0
  6  7  2  0
  7  8  1  0
  8  9  1  0
  9 10  1  0
 10 11  1  0
 11 12  1  0
 12 13  1  6
 12 14  1  0
 14 15  1  1
 15 16  1  0
 16 17  1  0
 16 18  2  0
 18 19  1  0
 19 20  1  0
 20 21  1  0
 21 22  1  0
 22 23  1  0
 23 24  1  0
 24 25  1  0
 25 26  1  0
 26 27  2  0
 27 28  1  0
 28 29  2  0
 29 30  1  0
 30 31  1  0
 30 32  2  0
 28 33  1  0
 33 34  2  0
 33 35  1  0
  8 36  2  0
 32 26  1  0
 35 14  1  0
 36  4  1  0
M  END
$$$$
