
     RDKit          3D

 36 38  0  0  0  0  0  0  0  0999 V2000
  -21.2768  -40.2051  -11.9067 C   0  0  0  0  0  0  0  0  0  0  0  0
  -21.8542  -38.8654  -11.5882 C   0  0  0  0  0  0  0  0  0  0  0  0
  -21.7603  -38.0084  -12.8563 C   0  0  0  0  0  0  0  0  0  0  0  0
  -21.1517  -38.2086  -10.4626 C   0  0  0  0  0  0  0  0  0  0  0  0
  -21.8850  -37.8397   -9.3558 C   0  0  0  0  0  0  0  0  0  0  0  0
  -21.2099  -37.2216   -8.3092 C   0  0  0  0  0  0  0  0  0  0  0  0
  -19.8550  -36.9741   -8.3516 C   0  0  0  0  0  0  0  0  0  0  0  0
  -19.1279  -37.3461   -9.4631 C   0  0  0  0  0  0  0  0  0  0  0  0
  -17.6902  -37.1217   -9.5884 C   0  0  0  0  0  0  0  0  0  0  0  0
  -16.9467  -37.4120   -8.3915 N   0  0  0  0  0  0  0  0  0  0  0  0
  -17.2837  -38.6946   -7.8237 C   0  0  0  0  0  0  0  0  0  0  0  0
  -16.2911  -39.7805   -8.0420 C   0  0  1  0  0  0  0  0  0  0  0  0
  -16.2809  -40.4913   -6.7965 O   0  0  0  0  0  0  0  0  0  0  0  0
  -16.6530  -40.8327   -9.0481 C   0  0  2  0  0  0  0  0  0  0  0  0
  -15.6995  -40.9764  -10.1970 C   0  0  0  0  0  0  0  0  0  0  0  0
  -14.6567  -42.0886  -10.0173 C   0  0  0  0  0  0  0  0  0  0  0  0
  -13.4471  -41.2596   -9.5263 C   0  0  0  0  0  0  0  0  0  0  0  0
  -14.7213  -43.3633  -10.1896 C   0  0  0  0  0  0  0  0  0  0  0  0
  -15.6985  -44.4489  -10.6120 C   0  0  0  0  0  0  0  0  0  0  0  0
  -15.8147  -45.6392   -9.7657 C   0  0  0  0  0  0  0  0  0  0  0  0
  -14.9823  -45.8122   -8.5642 C   0  0  0  0  0  0  0  0  0  0  0  0
  -15.6353  -45.5423   -7.2366 C   0  0  0  0  0  0  0  0  0  0  0  0
  -16.6309  -46.5703   -6.7993 C   0  0  0  0  0  0  0  0  0  0  0  0
  -17.5677  -45.9504   -5.7882 C   0  0  0  0  0  0  0  0  0  0  0  0
  -18.8361  -45.5678   -6.3309 N   0  0  0  0  0  0  0  0  0  0  0  0
  -19.2773  -44.3279   -6.9230 C   0  0  0  0  0  0  0  0  0  0  0  0
  -18.7566  -43.5385   -7.9123 C   0  0  0  0  0  0  0  0  0  0  0  0
  -19.4609  -42.3827   -8.2007 C   0  0  0  0  0  0  0  0  0  0  0  0
  -20.6507  -42.0881   -7.4812 C   0  0  0  0  0  0  0  0  0  0  0  0
  -21.1557  -42.9000   -6.4924 C   0  0  0  0  0  0  0  0  0  0  0  0
  -22.4076  -42.5424   -5.7801 C   0  0  0  0  0  0  0  0  0  0  0  0
  -20.4521  -43.9893   -6.2483 N   0  0  0  0  0  0  0  0  0  0  0  0
  -19.1834  -41.2957   -9.1652 C   0  0  0  0  0  0  0  0  0  0  0  0
  -20.2619  -40.8775   -9.7924 O   0  0  0  0  0  0  0  0  0  0  0  0
  -18.0296  -40.6239   -9.5463 N   0  0  0  0  0  0  0  0  0  0  0  0
  -19.7996  -37.9568  -10.4942 C   0  0  0  0  0  0  0  0  0  0  0  0
  1  2  1  0
  2  3  1  0
  2  4  1  0
  4  5  2  0
  5  6  1  0
  6  7  2  0
  7  8  1  0
  8  9  1  0
  9 10  1  0
 10 11  1  0
 11 12  1  0
 12 13  1  1
 12 14  1  0
 14 15  1  6
 15 16  1  0
 16 17  1  0
 16 18  2  0
 18 19  1  0
 19 20  1  0
 20 21  1  0
 21 22  1  0
 22 23  1  0
 23 24  1  0
 24 25  1  0
 25 26  1  0
 26 27  2  0
 27 28  1  0
 28 29  2  0
 29 30  1  0
 30 31  1  0
 30 32  2  0
 28 33  1  0
 33 34  2  0
 33 35  1  0
  8 36  2  0
 32 26  1  0
 35 14  1  0
 36  4  1  0
M  END
$$$$
