
     RDKit          3D

 36 38  0  0  0  0  0  0  0  0999 V2000
  -22.6303  -38.9852   -3.4328 C   0  0  0  0  0  0  0  0  0  0  0  0
  -23.2689  -39.9268   -4.3999 C   0  0  0  0  0  0  0  0  0  0  0  0
  -22.8230  -41.3457   -4.0264 C   0  0  0  0  0  0  0  0  0  0  0  0
  -22.9052  -39.6186   -5.8015 C   0  0  0  0  0  0  0  0  0  0  0  0
  -23.7868  -38.8823   -6.5626 C   0  0  0  0  0  0  0  0  0  0  0  0
  -23.4306  -38.6043   -7.8775 C   0  0  0  0  0  0  0  0  0  0  0  0
  -22.2433  -39.0384   -8.4258 C   0  0  0  0  0  0  0  0  0  0  0  0
  -21.3661  -39.7752   -7.6577 C   0  0  0  0  0  0  0  0  0  0  0  0
  -20.0882  -40.2724   -8.1604 C   0  0  0  0  0  0  0  0  0  0  0  0
  -19.0350  -39.2924   -8.1510 N   0  0  0  0  0  0  0  0  0  0  0  0
  -17.8093  -39.7976   -7.5820 C   0  0  0  0  0  0  0  0  0  0  0  0
  -16.5568  -39.1676   -8.0786 C   0  0  1  0  0  0  0  0  0  0  0  0
  -15.5243  -39.8145   -7.3224 O   0  0  0  0  0  0  0  0  0  0  0  0
  -16.1808  -39.4465   -9.5038 C   0  0  2  0  0  0  0  0  0  0  0  0
  -15.8782  -38.2358  -10.3359 C   0  0  0  0  0  0  0  0  0  0  0  0
  -14.3846  -37.8963  -10.4377 C   0  0  0  0  0  0  0  0  0  0  0  0
  -14.2754  -36.7937   -9.3589 C   0  0  0  0  0  0  0  0  0  0  0  0
  -13.4427  -38.3743  -11.1747 C   0  0  0  0  0  0  0  0  0  0  0  0
  -13.2041  -39.4168  -12.2556 C   0  0  0  0  0  0  0  0  0  0  0  0
  -12.0765  -40.3372  -12.0887 C   0  0  0  0  0  0  0  0  0  0  0  0
  -11.1663  -40.2366  -10.9363 C   0  0  0  0  0  0  0  0  0  0  0  0
  -11.3621  -41.2287   -9.8232 C   0  0  0  0  0  0  0  0  0  0  0  0
  -10.9423  -42.6294  -10.1413 C   0  0  0  0  0  0  0  0  0  0  0  0
  -11.6564  -43.5816   -9.2098 C   0  0  0  0  0  0  0  0  0  0  0  0
  -12.7835  -44.2362   -9.8018 N   0  0  0  0  0  0  0  0  0  0  0  0
  -14.1756  -43.8594   -9.8576 C   0  0  0  0  0  0  0  0  0  0  0  0
  -14.8069  -42.7048  -10.2335 C   0  0  0  0  0  0  0  0  0  0  0  0
  -16.1866  -42.7049  -10.1267 C   0  0  0  0  0  0  0  0  0  0  0  0
  -16.8536  -43.8667   -9.6521 C   0  0  0  0  0  0  0  0  0  0  0  0
  -16.1960  -45.0171   -9.2830 C   0  0  0  0  0  0  0  0  0  0  0  0
  -16.9484  -46.2018   -8.8006 C   0  0  0  0  0  0  0  0  0  0  0  0
  -14.8823  -44.9727   -9.3982 N   0  0  0  0  0  0  0  0  0  0  0  0
  -17.1787  -41.6429  -10.4043 C   0  0  0  0  0  0  0  0  0  0  0  0
  -18.2574  -42.0928  -11.0088 O   0  0  0  0  0  0  0  0  0  0  0  0
  -17.2133  -40.2764  -10.1610 N   0  0  0  0  0  0  0  0  0  0  0  0
  -21.7226  -40.0468   -6.3590 C   0  0  0  0  0  0  0  0  0  0  0  0
  1  2  1  0
  2  3  1  0
  2  4  1  0
  4  5  2  0
  5  6  1  0
  6  7  2  0
  7  8  1  0
  8  9  1  0
  9 10  1  0
 10 11  1  0
 11 12  1  0
 12 13  1  1
 12 14  1  0
 14 15  1  6
 15 16  1  0
 16 17  1  0
 16 18  2  0
 18 19  1  0
 19 20  1  0
 20 21  1  0
 21 22  1  0
 22 23  1  0
 23 24  1  0
 24 25  1  0
 25 26  1  0
 26 27  2  0
 27 28  1  0
 28 29  2  0
 29 30  1  0
 30 31  1  0
 30 32  2  0
 28 33  1  0
 33 34  2  0
 33 35  1  0
  8 36  2  0
 32 26  1  0
 35 14  1  0
 36  4  1  0
M  END
$$$$
