
     RDKit          3D

 48 52  0  0  0  0  0  0  0  0999 V2000
  -13.8207  -35.0887  -11.3825 C   0  0  0  0  0  0  0  0  0  0  0  0
  -14.6659  -35.8554  -12.3909 C   0  0  0  0  0  0  0  0  0  0  0  0
  -16.0847  -36.0038  -11.9636 C   0  0  0  0  0  0  0  0  0  0  0  0
  -14.0549  -37.1860  -12.6337 C   0  0  0  0  0  0  0  0  0  0  0  0
  -14.2963  -38.2829  -11.8601 C   0  0  0  0  0  0  0  0  0  0  0  0
  -13.7178  -39.5109  -12.0804 C   0  0  0  0  0  0  0  0  0  0  0  0
  -14.0315  -40.6781  -11.2027 C   0  0  0  0  0  0  0  0  0  0  0  0
  -13.9137  -40.3068   -9.8466 N   0  0  0  0  0  0  0  0  0  0  0  0
  -14.8254  -39.3812   -9.2989 C   0  0  0  0  0  0  0  0  0  0  0  0
  -15.7009  -39.9235   -8.1694 C   0  0  1  0  0  0  0  0  0  0  0  0
  -15.2174  -39.4340   -6.9745 O   0  0  0  0  0  0  0  0  0  0  0  0
  -17.1332  -39.4512   -8.3834 C   0  0  2  0  0  0  0  0  0  0  0  0
  -17.8764  -39.4688   -7.0978 C   0  0  0  0  0  0  0  0  0  0  0  0
  -19.1343  -38.6452   -7.2110 C   0  0  2  0  0  0  0  0  0  0  0  0
  -18.7476  -37.3305   -7.8813 C   0  0  0  0  0  0  0  0  0  0  0  0
  -19.6169  -38.2957   -5.8338 C   0  0  0  0  0  0  0  0  0  0  0  0
  -20.0882  -39.5428   -5.1394 C   0  0  0  0  0  0  0  0  0  0  0  0
  -21.4670  -39.8954   -5.7034 C   0  0  0  0  0  0  0  0  0  0  0  0
  -21.7910  -41.2781   -5.1975 C   0  0  0  0  0  0  0  0  0  0  0  0
  -22.6285  -42.0154   -6.2048 C   0  0  0  0  0  0  0  0  0  0  0  0
  -22.3683  -43.4694   -6.1666 N   0  0  0  0  0  0  0  0  0  0  0  0
  -23.5615  -44.2888   -5.9363 C   0  0  2  0  0  0  0  0  0  0  0  0
  -24.2106  -44.6750   -7.2491 C   0  0  0  0  0  0  0  0  0  0  0  0
  -24.5568  -43.5781   -5.1301 C   0  0  0  0  0  0  0  0  0  0  0  0
  -24.7326  -42.2165   -5.2181 C   0  0  0  0  0  0  0  0  0  0  0  0
  -25.6935  -41.5616   -4.4359 C   0  0  0  0  0  0  0  0  0  0  0  0
  -26.4828  -42.2429   -3.5668 C   0  0  0  0  0  0  0  0  0  0  0  0
  -26.3134  -43.6176   -3.4704 C   0  0  0  0  0  0  0  0  0  0  0  0
  -25.3593  -44.2634   -4.2475 C   0  0  0  0  0  0  0  0  0  0  0  0
  -21.0597  -43.9772   -6.3427 C   0  0  0  0  0  0  0  0  0  0  0  0
  -20.8617  -44.9119   -5.4219 O   0  0  0  0  0  0  0  0  0  0  0  0
  -19.9771  -43.6741   -7.2904 C   0  0  0  0  0  0  0  0  0  0  0  0
  -19.6506  -42.5194   -7.9682 C   0  0  0  0  0  0  0  0  0  0  0  0
  -18.5583  -42.5204   -8.8152 C   0  0  0  0  0  0  0  0  0  0  0  0
  -17.7969  -43.7139   -8.9653 C   0  0  0  0  0  0  0  0  0  0  0  0
  -18.0839  -44.8765   -8.3139 C   0  0  0  0  0  0  0  0  0  0  0  0
  -19.1717  -44.8319   -7.4881 C   0  0  0  0  0  0  0  0  0  0  0  0
  -17.2792  -46.0801   -8.4745 C   0  0  0  0  0  0  0  0  0  0  0  0
  -17.7938  -47.3146   -8.5529 N   0  0  0  0  0  0  0  0  0  0  0  0
  -16.7800  -48.2103   -8.7008 C   0  0  0  0  0  0  0  0  0  0  0  0
  -15.6277  -47.4396   -8.7064 C   0  0  0  0  0  0  0  0  0  0  0  0
  -15.9911  -46.2033   -8.5703 O   0  0  0  0  0  0  0  0  0  0  0  0
  -17.9890  -41.4841   -9.6767 C   0  0  0  0  0  0  0  0  0  0  0  0
  -17.5611  -41.8391  -10.8920 O   0  0  0  0  0  0  0  0  0  0  0  0
  -17.7723  -40.0877   -9.4960 N   0  0  0  0  0  0  0  0  0  0  0  0
  -12.8401  -39.6254  -13.1550 C   0  0  0  0  0  0  0  0  0  0  0  0
  -12.5865  -38.5246  -13.9463 C   0  0  0  0  0  0  0  0  0  0  0  0
  -13.1809  -37.3039  -13.7032 C   0  0  0  0  0  0  0  0  0  0  0  0
  1  2  1  0
  2  3  1  0
  2  4  1  0
  4  5  2  0
  5  6  1  0
  6  7  1  0
  7  8  1  0
  8  9  1  0
  9 10  1  0
 10 11  1  1
 10 12  1  0
 12 13  1  1
 13 14  1  0
 14 15  1  6
 14 16  1  0
 16 17  1  0
 17 18  1  0
 18 19  1  0
 19 20  1  0
 20 21  1  0
 21 22  1  0
 22 23  1  6
 22 24  1  0
 24 25  2  0
 25 26  1  0
 26 27  2  0
 27 28  1  0
 28 29  2  0
 21 30  1  0
 30 31  2  0
 30 32  1  0
 32 33  1  0
 33 34  2  0
 34 35  1  0
 35 36  2  0
 36 37  1  0
 36 38  1  0
 38 39  2  0
 39 40  1  0
 40 41  2  0
 41 42  1  0
 34 43  1  0
 43 44  2  0
 43 45  1  0
  6 46  2  0
 46 47  1  0
 47 48  2  0
 29 24  1  0
 37 32  2  0
 42 38  1  0
 45 12  1  0
 48  4  1  0
M  END
$$$$
