
     RDKit          3D

 48 52  0  0  0  0  0  0  0  0999 V2000
  -13.7663  -34.0017  -11.1114 C   0  0  0  0  0  0  0  0  0  0  0  0
  -12.8859  -35.0954  -11.7011 C   0  0  0  0  0  0  0  0  0  0  0  0
  -11.8770  -34.5712  -12.6629 C   0  0  0  0  0  0  0  0  0  0  0  0
  -13.7419  -36.1179  -12.3524 C   0  0  0  0  0  0  0  0  0  0  0  0
  -13.8498  -37.4053  -11.9155 C   0  0  0  0  0  0  0  0  0  0  0  0
  -14.6338  -38.3535  -12.5297 C   0  0  0  0  0  0  0  0  0  0  0  0
  -14.7184  -39.7459  -11.9957 C   0  0  0  0  0  0  0  0  0  0  0  0
  -14.3806  -39.7580  -10.6258 N   0  0  0  0  0  0  0  0  0  0  0  0
  -15.0656  -38.9068   -9.7347 C   0  0  0  0  0  0  0  0  0  0  0  0
  -15.9360  -39.6171   -8.6983 C   0  0  1  0  0  0  0  0  0  0  0  0
  -15.5855  -39.1530   -7.4482 O   0  0  0  0  0  0  0  0  0  0  0  0
  -17.3989  -39.2996   -8.9796 C   0  0  2  0  0  0  0  0  0  0  0  0
  -18.1456  -39.1505   -7.7046 C   0  0  0  0  0  0  0  0  0  0  0  0
  -19.4621  -38.4571   -7.9489 C   0  0  2  0  0  0  0  0  0  0  0  0
  -19.1733  -37.2530   -8.8400 C   0  0  0  0  0  0  0  0  0  0  0  0
  -19.9774  -37.9119   -6.6494 C   0  0  0  0  0  0  0  0  0  0  0  0
  -20.3560  -39.0519   -5.7457 C   0  0  0  0  0  0  0  0  0  0  0  0
  -21.7008  -39.6009   -6.2292 C   0  0  0  0  0  0  0  0  0  0  0  0
  -21.9210  -40.8955   -5.4887 C   0  0  0  0  0  0  0  0  0  0  0  0
  -22.6943  -41.8579   -6.3465 C   0  0  0  0  0  0  0  0  0  0  0  0
  -22.3241  -43.2591   -6.0589 N   0  0  0  0  0  0  0  0  0  0  0  0
  -23.4524  -44.1146   -5.6807 C   0  0  2  0  0  0  0  0  0  0  0  0
  -24.5873  -43.9789   -6.6744 C   0  0  0  0  0  0  0  0  0  0  0  0
  -23.9686  -43.7716   -4.3534 C   0  0  0  0  0  0  0  0  0  0  0  0
  -23.2245  -43.9510   -3.2102 C   0  0  0  0  0  0  0  0  0  0  0  0
  -23.7422  -43.6129   -1.9526 C   0  0  0  0  0  0  0  0  0  0  0  0
  -24.9908  -43.0983   -1.8161 C   0  0  0  0  0  0  0  0  0  0  0  0
  -25.7501  -42.9133   -2.9637 C   0  0  0  0  0  0  0  0  0  0  0  0
  -25.2333  -43.2499   -4.2090 C   0  0  0  0  0  0  0  0  0  0  0  0
  -20.9796  -43.6887   -6.1546 C   0  0  0  0  0  0  0  0  0  0  0  0
  -20.7159  -44.4317   -5.0873 O   0  0  0  0  0  0  0  0  0  0  0  0
  -19.9181  -43.4730   -7.1489 C   0  0  0  0  0  0  0  0  0  0  0  0
  -19.6769  -42.4318   -8.0191 C   0  0  0  0  0  0  0  0  0  0  0  0
  -18.5832  -42.4965   -8.8617 C   0  0  0  0  0  0  0  0  0  0  0  0
  -17.7321  -43.6365   -8.8087 C   0  0  0  0  0  0  0  0  0  0  0  0
  -17.9331  -44.6870   -7.9634 C   0  0  0  0  0  0  0  0  0  0  0  0
  -19.0256  -44.5828   -7.1493 C   0  0  0  0  0  0  0  0  0  0  0  0
  -17.0379  -45.8354   -7.9193 C   0  0  0  0  0  0  0  0  0  0  0  0
  -15.9988  -45.9373   -7.0798 N   0  0  0  0  0  0  0  0  0  0  0  0
  -15.3709  -47.1259   -7.2919 C   0  0  0  0  0  0  0  0  0  0  0  0
  -16.0951  -47.7300   -8.3080 C   0  0  0  0  0  0  0  0  0  0  0  0
  -17.0560  -46.9218   -8.6284 O   0  0  0  0  0  0  0  0  0  0  0  0
  -18.0900  -41.5851   -9.8943 C   0  0  0  0  0  0  0  0  0  0  0  0
  -17.6295  -42.1118  -11.0330 O   0  0  0  0  0  0  0  0  0  0  0  0
  -17.9815  -40.1661   -9.9600 N   0  0  0  0  0  0  0  0  0  0  0  0
  -15.3503  -37.9636  -13.6580 C   0  0  0  0  0  0  0  0  0  0  0  0
  -15.2512  -36.6649  -14.1114 C   0  0  0  0  0  0  0  0  0  0  0  0
  -14.4572  -35.7332  -13.4757 C   0  0  0  0  0  0  0  0  0  0  0  0
  1  2  1  0
  2  3  1  0
  2  4  1  0
  4  5  2  0
  5  6  1  0
  6  7  1  0
  7  8  1  0
  8  9  1  0
  9 10  1  0
 10 11  1  1
 10 12  1  0
 12 13  1  1
 13 14  1  0
 14 15  1  6
 14 16  1  0
 16 17  1  0
 17 18  1  0
 18 19  1  0
 19 20  1  0
 20 21  1  0
 21 22  1  0
 22 23  1  6
 22 24  1  0
 24 25  2  0
 25 26  1  0
 26 27  2  0
 27 28  1  0
 28 29  2  0
 21 30  1  0
 30 31  2  0
 30 32  1  0
 32 33  1  0
 33 34  2  0
 34 35  1  0
 35 36  2  0
 36 37  1  0
 36 38  1  0
 38 39  2  0
 39 40  1  0
 40 41  2  0
 41 42  1  0
 34 43  1  0
 43 44  2  0
 43 45  1  0
  6 46  2  0
 46 47  1  0
 47 48  2  0
 29 24  1  0
 37 32  2  0
 42 38  1  0
 45 12  1  0
 48  4  1  0
M  END
$$$$
