
     RDKit          3D

 48 52  0  0  0  0  0  0  0  0999 V2000
  -12.1330  -45.2832   -8.1154 C   0  0  0  0  0  0  0  0  0  0  0  0
  -13.1673  -44.2381   -8.5120 C   0  0  0  0  0  0  0  0  0  0  0  0
  -14.4181  -44.8375   -9.0540 C   0  0  0  0  0  0  0  0  0  0  0  0
  -12.5693  -43.3042   -9.4984 C   0  0  0  0  0  0  0  0  0  0  0  0
  -13.1843  -42.1680   -9.9352 C   0  0  0  0  0  0  0  0  0  0  0  0
  -12.6327  -41.3121  -10.8594 C   0  0  0  0  0  0  0  0  0  0  0  0
  -13.3526  -40.0762  -11.2899 C   0  0  0  0  0  0  0  0  0  0  0  0
  -14.6320  -40.0324  -10.6967 N   0  0  0  0  0  0  0  0  0  0  0  0
  -15.2278  -38.7840  -10.4236 C   0  0  0  0  0  0  0  0  0  0  0  0
  -16.0405  -38.7218   -9.1306 C   0  0  1  0  0  0  0  0  0  0  0  0
  -15.5457  -37.6925   -8.3580 O   0  0  0  0  0  0  0  0  0  0  0  0
  -17.5003  -38.4574   -9.4760 C   0  0  2  0  0  0  0  0  0  0  0  0
  -18.3107  -38.3572   -8.2355 C   0  0  0  0  0  0  0  0  0  0  0  0
  -19.6409  -37.7122   -8.5320 C   0  0  2  0  0  0  0  0  0  0  0  0
  -19.3592  -36.4841   -9.3921 C   0  0  0  0  0  0  0  0  0  0  0  0
  -20.2373  -37.2076   -7.2509 C   0  0  0  0  0  0  0  0  0  0  0  0
  -20.6118  -38.3753   -6.3814 C   0  0  0  0  0  0  0  0  0  0  0  0
  -21.9098  -38.9689   -6.9350 C   0  0  0  0  0  0  0  0  0  0  0  0
  -22.1125  -40.2824   -6.2233 C   0  0  0  0  0  0  0  0  0  0  0  0
  -22.8062  -41.2610   -7.1294 C   0  0  0  0  0  0  0  0  0  0  0  0
  -22.3943  -42.6509   -6.8438 N   0  0  0  0  0  0  0  0  0  0  0  0
  -23.5042  -43.5556   -6.5306 C   0  0  2  0  0  0  0  0  0  0  0  0
  -24.6442  -43.3678   -7.5099 C   0  0  0  0  0  0  0  0  0  0  0  0
  -24.0236  -43.3253   -5.1805 C   0  0  0  0  0  0  0  0  0  0  0  0
  -24.8707  -42.2806   -4.8907 C   0  0  0  0  0  0  0  0  0  0  0  0
  -25.3542  -42.0840   -3.5902 C   0  0  0  0  0  0  0  0  0  0  0  0
  -25.0067  -42.9128   -2.5729 C   0  0  0  0  0  0  0  0  0  0  0  0
  -24.1522  -43.9702   -2.8547 C   0  0  0  0  0  0  0  0  0  0  0  0
  -23.6747  -44.1618   -4.1456 C   0  0  0  0  0  0  0  0  0  0  0  0
  -21.0309  -43.0261   -6.8821 C   0  0  0  0  0  0  0  0  0  0  0  0
  -20.7876  -43.7746   -5.8137 O   0  0  0  0  0  0  0  0  0  0  0  0
  -19.9338  -42.7537   -7.8224 C   0  0  0  0  0  0  0  0  0  0  0  0
  -19.6941  -41.6907   -8.6661 C   0  0  0  0  0  0  0  0  0  0  0  0
  -18.5607  -41.6996   -9.4572 C   0  0  0  0  0  0  0  0  0  0  0  0
  -17.6684  -42.8061   -9.3797 C   0  0  0  0  0  0  0  0  0  0  0  0
  -17.8664  -43.8766   -8.5591 C   0  0  0  0  0  0  0  0  0  0  0  0
  -18.9988  -43.8277   -7.7959 C   0  0  0  0  0  0  0  0  0  0  0  0
  -16.9293  -44.9896   -8.4886 C   0  0  0  0  0  0  0  0  0  0  0  0
  -17.2933  -46.2759   -8.5785 N   0  0  0  0  0  0  0  0  0  0  0  0
  -16.1853  -47.0596   -8.4774 C   0  0  0  0  0  0  0  0  0  0  0  0
  -15.1361  -46.1670   -8.3217 C   0  0  0  0  0  0  0  0  0  0  0  0
  -15.6408  -44.9736   -8.3371 O   0  0  0  0  0  0  0  0  0  0  0  0
  -18.0568  -40.7538  -10.4530 C   0  0  0  0  0  0  0  0  0  0  0  0
  -17.5234  -41.2446  -11.5759 O   0  0  0  0  0  0  0  0  0  0  0  0
  -18.0018  -39.3308  -10.4943 N   0  0  0  0  0  0  0  0  0  0  0  0
  -11.3779  -41.6362  -11.3683 C   0  0  0  0  0  0  0  0  0  0  0  0
  -10.7438  -42.7820  -10.9357 C   0  0  0  0  0  0  0  0  0  0  0  0
  -11.3198  -43.6233  -10.0067 C   0  0  0  0  0  0  0  0  0  0  0  0
  1  2  1  0
  2  3  1  0
  2  4  1  0
  4  5  2  0
  5  6  1  0
  6  7  1  0
  7  8  1  0
  8  9  1  0
  9 10  1  0
 10 11  1  1
 10 12  1  0
 12 13  1  1
 13 14  1  0
 14 15  1  6
 14 16  1  0
 16 17  1  0
 17 18  1  0
 18 19  1  0
 19 20  1  0
 20 21  1  0
 21 22  1  0
 22 23  1  6
 22 24  1  0
 24 25  2  0
 25 26  1  0
 26 27  2  0
 27 28  1  0
 28 29  2  0
 21 30  1  0
 30 31  2  0
 30 32  1  0
 32 33  1  0
 33 34  2  0
 34 35  1  0
 35 36  2  0
 36 37  1  0
 36 38  1  0
 38 39  2  0
 39 40  1  0
 40 41  2  0
 41 42  1  0
 34 43  1  0
 43 44  2  0
 43 45  1  0
  6 46  2  0
 46 47  1  0
 47 48  2  0
 29 24  1  0
 37 32  2  0
 42 38  1  0
 45 12  1  0
 48  4  1  0
M  END
$$$$
