
     RDKit          3D

 48 52  0  0  0  0  0  0  0  0999 V2000
  -15.0333  -33.2422  -11.5506 C   0  0  0  0  0  0  0  0  0  0  0  0
  -16.4351  -33.8369  -11.5297 C   0  0  0  0  0  0  0  0  0  0  0  0
  -17.1558  -33.5765  -10.2528 C   0  0  0  0  0  0  0  0  0  0  0  0
  -16.3543  -35.2954  -11.7920 C   0  0  0  0  0  0  0  0  0  0  0  0
  -15.4976  -36.1355  -11.1437 C   0  0  0  0  0  0  0  0  0  0  0  0
  -15.4164  -37.4842  -11.3991 C   0  0  0  0  0  0  0  0  0  0  0  0
  -14.4637  -38.3542  -10.6464 C   0  0  0  0  0  0  0  0  0  0  0  0
  -15.1772  -39.2969   -9.8764 N   0  0  0  0  0  0  0  0  0  0  0  0
  -15.3900  -39.0536   -8.5040 C   0  0  0  0  0  0  0  0  0  0  0  0
  -16.3403  -40.0300   -7.8115 C   0  0  1  0  0  0  0  0  0  0  0  0
  -15.9894  -40.1041   -6.4801 O   0  0  0  0  0  0  0  0  0  0  0  0
  -17.7663  -39.5115   -7.9453 C   0  0  2  0  0  0  0  0  0  0  0  0
  -18.4545  -39.5581   -6.6301 C   0  0  0  0  0  0  0  0  0  0  0  0
  -19.6920  -38.6971   -6.6579 C   0  0  2  0  0  0  0  0  0  0  0  0
  -19.2967  -37.3687   -7.2954 C   0  0  0  0  0  0  0  0  0  0  0  0
  -20.1055  -38.3876   -5.2491 C   0  0  0  0  0  0  0  0  0  0  0  0
  -20.5823  -39.6471   -4.5814 C   0  0  0  0  0  0  0  0  0  0  0  0
  -21.9934  -39.9406   -5.0976 C   0  0  0  0  0  0  0  0  0  0  0  0
  -22.3350  -41.3324   -4.6294 C   0  0  0  0  0  0  0  0  0  0  0  0
  -23.2352  -42.0078   -5.6260 C   0  0  0  0  0  0  0  0  0  0  0  0
  -23.0153  -43.4687   -5.6529 N   0  0  0  0  0  0  0  0  0  0  0  0
  -24.2205  -44.2639   -5.4013 C   0  0  2  0  0  0  0  0  0  0  0  0
  -25.4657  -43.4861   -5.7735 C   0  0  0  0  0  0  0  0  0  0  0  0
  -24.3298  -44.6470   -3.9918 C   0  0  0  0  0  0  0  0  0  0  0  0
  -24.4579  -45.9590   -3.5980 C   0  0  0  0  0  0  0  0  0  0  0  0
  -24.5591  -46.2981   -2.2420 C   0  0  0  0  0  0  0  0  0  0  0  0
  -24.5345  -45.3496   -1.2714 C   0  0  0  0  0  0  0  0  0  0  0  0
  -24.4055  -44.0224   -1.6581 C   0  0  0  0  0  0  0  0  0  0  0  0
  -24.3056  -43.6901   -3.0037 C   0  0  0  0  0  0  0  0  0  0  0  0
  -21.7304  -44.0045   -5.9044 C   0  0  0  0  0  0  0  0  0  0  0  0
  -21.5203  -44.9787   -5.0282 O   0  0  0  0  0  0  0  0  0  0  0  0
  -20.6808  -43.6948   -6.8864 C   0  0  0  0  0  0  0  0  0  0  0  0
  -20.3504  -42.5243   -7.5346 C   0  0  0  0  0  0  0  0  0  0  0  0
  -19.2956  -42.5224   -8.4278 C   0  0  0  0  0  0  0  0  0  0  0  0
  -18.5757  -43.7294   -8.6550 C   0  0  0  0  0  0  0  0  0  0  0  0
  -18.8679  -44.9079   -8.0351 C   0  0  0  0  0  0  0  0  0  0  0  0
  -19.9180  -44.8655   -7.1616 C   0  0  0  0  0  0  0  0  0  0  0  0
  -18.1055  -46.1257   -8.2750 C   0  0  0  0  0  0  0  0  0  0  0  0
  -17.4304  -46.3705   -9.4060 N   0  0  0  0  0  0  0  0  0  0  0  0
  -16.8285  -47.5873   -9.3101 C   0  0  0  0  0  0  0  0  0  0  0  0
  -17.1827  -48.0569   -8.0547 C   0  0  0  0  0  0  0  0  0  0  0  0
  -17.9297  -47.1534   -7.5027 O   0  0  0  0  0  0  0  0  0  0  0  0
  -18.7341  -41.4697   -9.2744 C   0  0  0  0  0  0  0  0  0  0  0  0
  -18.3685  -41.7895  -10.5195 O   0  0  0  0  0  0  0  0  0  0  0  0
  -18.4701  -40.0876   -9.0518 N   0  0  0  0  0  0  0  0  0  0  0  0
  -16.2604  -38.0064  -12.3754 C   0  0  0  0  0  0  0  0  0  0  0  0
  -17.1323  -37.1690  -13.0393 C   0  0  0  0  0  0  0  0  0  0  0  0
  -17.1937  -35.8190  -12.7631 C   0  0  0  0  0  0  0  0  0  0  0  0
  1  2  1  0
  2  3  1  0
  2  4  1  0
  4  5  2  0
  5  6  1  0
  6  7  1  0
  7  8  1  0
  8  9  1  0
  9 10  1  0
 10 11  1  1
 10 12  1  0
 12 13  1  1
 13 14  1  0
 14 15  1  6
 14 16  1  0
 16 17  1  0
 17 18  1  0
 18 19  1  0
 19 20  1  0
 20 21  1  0
 21 22  1  0
 22 23  1  1
 22 24  1  0
 24 25  2  0
 25 26  1  0
 26 27  2  0
 27 28  1  0
 28 29  2  0
 21 30  1  0
 30 31  2  0
 30 32  1  0
 32 33  1  0
 33 34  2  0
 34 35  1  0
 35 36  2  0
 36 37  1  0
 36 38  1  0
 38 39  2  0
 39 40  1  0
 40 41  2  0
 41 42  1  0
 34 43  1  0
 43 44  2  0
 43 45  1  0
  6 46  2  0
 46 47  1  0
 47 48  2  0
 29 24  1  0
 37 32  2  0
 42 38  1  0
 45 12  1  0
 48  4  1  0
M  END
$$$$
