
     RDKit          3D

 48 52  0  0  0  0  0  0  0  0999 V2000
  -10.7632  -36.6329  -11.7215 C   0  0  0  0  0  0  0  0  0  0  0  0
  -11.0397  -37.3374  -13.0430 C   0  0  0  0  0  0  0  0  0  0  0  0
  -11.4413  -36.3986  -14.1269 C   0  0  0  0  0  0  0  0  0  0  0  0
  -12.0837  -38.3724  -12.8394 C   0  0  0  0  0  0  0  0  0  0  0  0
  -13.2418  -38.1553  -12.1525 C   0  0  0  0  0  0  0  0  0  0  0  0
  -14.2008  -39.1208  -11.9545 C   0  0  0  0  0  0  0  0  0  0  0  0
  -15.4546  -38.8174  -11.2016 C   0  0  0  0  0  0  0  0  0  0  0  0
  -15.5860  -39.7000  -10.1087 N   0  0  0  0  0  0  0  0  0  0  0  0
  -15.3697  -39.2214   -8.8003 C   0  0  0  0  0  0  0  0  0  0  0  0
  -16.3283  -39.7679   -7.7425 C   0  0  1  0  0  0  0  0  0  0  0  0
  -15.9293  -39.2934   -6.5110 O   0  0  0  0  0  0  0  0  0  0  0  0
  -17.7381  -39.2832   -8.0548 C   0  0  2  0  0  0  0  0  0  0  0  0
  -18.5575  -39.2571   -6.8164 C   0  0  0  0  0  0  0  0  0  0  0  0
  -19.7942  -38.4206   -7.0266 C   0  0  2  0  0  0  0  0  0  0  0  0
  -19.3491  -37.1293   -7.7060 C   0  0  0  0  0  0  0  0  0  0  0  0
  -20.3536  -38.0286   -5.6906 C   0  0  0  0  0  0  0  0  0  0  0  0
  -20.8837  -39.2506   -4.9940 C   0  0  0  0  0  0  0  0  0  0  0  0
  -22.2311  -39.6003   -5.6311 C   0  0  0  0  0  0  0  0  0  0  0  0
  -22.6048  -40.9648   -5.1102 C   0  0  0  0  0  0  0  0  0  0  0  0
  -23.3908  -41.7178   -6.1471 C   0  0  0  0  0  0  0  0  0  0  0  0
  -23.1544  -43.1735   -6.0558 N   0  0  0  0  0  0  0  0  0  0  0  0
  -24.3709  -43.9711   -5.8769 C   0  0  2  0  0  0  0  0  0  0  0  0
  -25.5902  -43.2055   -6.3471 C   0  0  0  0  0  0  0  0  0  0  0  0
  -24.5769  -44.3338   -4.4728 C   0  0  0  0  0  0  0  0  0  0  0  0
  -24.4354  -43.4212   -3.4530 C   0  0  0  0  0  0  0  0  0  0  0  0
  -24.6398  -43.7945   -2.1179 C   0  0  0  0  0  0  0  0  0  0  0  0
  -24.9835  -45.0641   -1.7825 C   0  0  0  0  0  0  0  0  0  0  0  0
  -25.1288  -45.9930   -2.8042 C   0  0  0  0  0  0  0  0  0  0  0  0
  -24.9251  -45.6189   -4.1270 C   0  0  0  0  0  0  0  0  0  0  0  0
  -21.8450  -43.7025   -6.1393 C   0  0  0  0  0  0  0  0  0  0  0  0
  -21.7162  -44.6149   -5.1844 O   0  0  0  0  0  0  0  0  0  0  0  0
  -20.7032  -43.4386   -7.0272 C   0  0  0  0  0  0  0  0  0  0  0  0
  -20.3199  -42.3067   -7.7136 C   0  0  0  0  0  0  0  0  0  0  0  0
  -19.1788  -42.3442   -8.4927 C   0  0  0  0  0  0  0  0  0  0  0  0
  -18.4271  -43.5509   -8.5658 C   0  0  0  0  0  0  0  0  0  0  0  0
  -18.7694  -44.6921   -7.9031 C   0  0  0  0  0  0  0  0  0  0  0  0
  -19.9041  -44.6115   -7.1460 C   0  0  0  0  0  0  0  0  0  0  0  0
  -17.9739  -45.9097   -7.9838 C   0  0  0  0  0  0  0  0  0  0  0  0
  -17.8379  -46.7783   -6.9729 N   0  0  0  0  0  0  0  0  0  0  0  0
  -17.0365  -47.8032   -7.3720 C   0  0  0  0  0  0  0  0  0  0  0  0
  -16.7005  -47.4974   -8.6818 C   0  0  0  0  0  0  0  0  0  0  0  0
  -17.2819  -46.3776   -8.9767 O   0  0  0  0  0  0  0  0  0  0  0  0
  -18.5439  -41.3385   -9.3447 C   0  0  0  0  0  0  0  0  0  0  0  0
  -18.0489  -41.7312  -10.5224 O   0  0  0  0  0  0  0  0  0  0  0  0
  -18.3184  -39.9408   -9.1872 N   0  0  0  0  0  0  0  0  0  0  0  0
  -13.9626  -40.3838  -12.4898 C   0  0  0  0  0  0  0  0  0  0  0  0
  -12.7959  -40.6181  -13.1870 C   0  0  0  0  0  0  0  0  0  0  0  0
  -11.8503  -39.6310  -13.3714 C   0  0  0  0  0  0  0  0  0  0  0  0
  1  2  1  0
  2  3  1  0
  2  4  1  0
  4  5  2  0
  5  6  1  0
  6  7  1  0
  7  8  1  0
  8  9  1  0
  9 10  1  0
 10 11  1  1
 10 12  1  0
 12 13  1  1
 13 14  1  0
 14 15  1  6
 14 16  1  0
 16 17  1  0
 17 18  1  0
 18 19  1  0
 19 20  1  0
 20 21  1  0
 21 22  1  0
 22 23  1  1
 22 24  1  0
 24 25  2  0
 25 26  1  0
 26 27  2  0
 27 28  1  0
 28 29  2  0
 21 30  1  0
 30 31  2  0
 30 32  1  0
 32 33  1  0
 33 34  2  0
 34 35  1  0
 35 36  2  0
 36 37  1  0
 36 38  1  0
 38 39  2  0
 39 40  1  0
 40 41  2  0
 41 42  1  0
 34 43  1  0
 43 44  2  0
 43 45  1  0
  6 46  2  0
 46 47  1  0
 47 48  2  0
 29 24  1  0
 37 32  2  0
 42 38  1  0
 45 12  1  0
 48  4  1  0
M  END
$$$$
