
     RDKit          3D

 48 52  0  0  0  0  0  0  0  0999 V2000
  -15.9408  -34.1915  -13.1637 C   0  0  0  0  0  0  0  0  0  0  0  0
  -16.4464  -35.6176  -12.9915 C   0  0  0  0  0  0  0  0  0  0  0  0
  -17.8453  -35.6790  -12.4845 C   0  0  0  0  0  0  0  0  0  0  0  0
  -15.5328  -36.3570  -12.0853 C   0  0  0  0  0  0  0  0  0  0  0  0
  -15.4059  -37.7149  -12.0806 C   0  0  0  0  0  0  0  0  0  0  0  0
  -14.5681  -38.3973  -11.2301 C   0  0  0  0  0  0  0  0  0  0  0  0
  -14.4656  -39.8866  -11.2814 C   0  0  0  0  0  0  0  0  0  0  0  0
  -14.3704  -40.4085   -9.9740 N   0  0  0  0  0  0  0  0  0  0  0  0
  -14.5450  -39.5496   -8.8696 C   0  0  0  0  0  0  0  0  0  0  0  0
  -15.6019  -39.9971   -7.8602 C   0  0  1  0  0  0  0  0  0  0  0  0
  -15.2387  -39.5260   -6.6163 O   0  0  0  0  0  0  0  0  0  0  0  0
  -16.9499  -39.4141   -8.2639 C   0  0  2  0  0  0  0  0  0  0  0  0
  -17.8314  -39.2892   -7.0752 C   0  0  0  0  0  0  0  0  0  0  0  0
  -18.9850  -38.3660   -7.3758 C   0  0  2  0  0  0  0  0  0  0  0  0
  -18.4029  -37.1330   -8.0598 C   0  0  0  0  0  0  0  0  0  0  0  0
  -19.5843  -37.8938   -6.0838 C   0  0  0  0  0  0  0  0  0  0  0  0
  -20.2465  -39.0507   -5.3891 C   0  0  0  0  0  0  0  0  0  0  0  0
  -21.5802  -39.3133   -6.0932 C   0  0  0  0  0  0  0  0  0  0  0  0
  -22.0883  -40.6294   -5.5615 C   0  0  0  0  0  0  0  0  0  0  0  0
  -22.8730  -41.3488   -6.6229 C   0  0  0  0  0  0  0  0  0  0  0  0
  -22.7573  -42.8152   -6.4829 N   0  0  0  0  0  0  0  0  0  0  0  0
  -24.0409  -43.5110   -6.3544 C   0  0  2  0  0  0  0  0  0  0  0  0
  -25.1896  -42.5917   -6.7141 C   0  0  0  0  0  0  0  0  0  0  0  0
  -24.2580  -43.9951   -4.9891 C   0  0  0  0  0  0  0  0  0  0  0  0
  -24.4162  -45.3315   -4.7031 C   0  0  0  0  0  0  0  0  0  0  0  0
  -24.6212  -45.7678   -3.3873 C   0  0  0  0  0  0  0  0  0  0  0  0
  -24.6709  -44.8926   -2.3509 C   0  0  0  0  0  0  0  0  0  0  0  0
  -24.5125  -43.5415   -2.6287 C   0  0  0  0  0  0  0  0  0  0  0  0
  -24.3095  -43.1127   -3.9349 C   0  0  0  0  0  0  0  0  0  0  0  0
  -21.4912  -43.4461   -6.4789 C   0  0  0  0  0  0  0  0  0  0  0  0
  -21.4873  -44.3379   -5.4963 O   0  0  0  0  0  0  0  0  0  0  0  0
  -20.2850  -43.2968   -7.3064 C   0  0  0  0  0  0  0  0  0  0  0  0
  -19.7766  -42.2179   -7.9971 C   0  0  0  0  0  0  0  0  0  0  0  0
  -18.6010  -42.3658   -8.7088 C   0  0  0  0  0  0  0  0  0  0  0  0
  -17.9438  -43.6286   -8.7096 C   0  0  0  0  0  0  0  0  0  0  0  0
  -18.4109  -44.7205   -8.0400 C   0  0  0  0  0  0  0  0  0  0  0  0
  -19.5756  -44.5308   -7.3510 C   0  0  0  0  0  0  0  0  0  0  0  0
  -17.7105  -45.9978   -8.0457 C   0  0  0  0  0  0  0  0  0  0  0  0
  -16.3783  -46.1158   -8.1240 N   0  0  0  0  0  0  0  0  0  0  0  0
  -16.0469  -47.4356   -8.1042 C   0  0  0  0  0  0  0  0  0  0  0  0
  -17.2592  -48.1012   -8.0093 C   0  0  0  0  0  0  0  0  0  0  0  0
  -18.1910  -47.2012   -7.9794 O   0  0  0  0  0  0  0  0  0  0  0  0
  -17.8431  -41.4371   -9.5474 C   0  0  0  0  0  0  0  0  0  0  0  0
  -17.3166  -41.9004  -10.6851 O   0  0  0  0  0  0  0  0  0  0  0  0
  -17.5171  -40.0570   -9.4113 N   0  0  0  0  0  0  0  0  0  0  0  0
  -13.8150  -37.6481  -10.3302 C   0  0  0  0  0  0  0  0  0  0  0  0
  -13.9327  -36.2740  -10.3234 C   0  0  0  0  0  0  0  0  0  0  0  0
  -14.7809  -35.6143  -11.1883 C   0  0  0  0  0  0  0  0  0  0  0  0
  1  2  1  0
  2  3  1  0
  2  4  1  0
  4  5  2  0
  5  6  1  0
  6  7  1  0
  7  8  1  0
  8  9  1  0
  9 10  1  0
 10 11  1  1
 10 12  1  0
 12 13  1  1
 13 14  1  0
 14 15  1  1
 14 16  1  0
 16 17  1  0
 17 18  1  0
 18 19  1  0
 19 20  1  0
 20 21  1  0
 21 22  1  0
 22 23  1  1
 22 24  1  0
 24 25  2  0
 25 26  1  0
 26 27  2  0
 27 28  1  0
 28 29  2  0
 21 30  1  0
 30 31  2  0
 30 32  1  0
 32 33  1  0
 33 34  2  0
 34 35  1  0
 35 36  2  0
 36 37  1  0
 36 38  1  0
 38 39  2  0
 39 40  1  0
 40 41  2  0
 41 42  1  0
 34 43  1  0
 43 44  2  0
 43 45  1  0
  6 46  2  0
 46 47  1  0
 47 48  2  0
 29 24  1  0
 37 32  2  0
 42 38  1  0
 45 12  1  0
 48  4  1  0
M  END
$$$$
