
     RDKit          3D

 48 52  0  0  0  0  0  0  0  0999 V2000
  -11.2911  -35.1105  -12.8513 C   0  0  0  0  0  0  0  0  0  0  0  0
  -12.7988  -34.9108  -12.7732 C   0  0  0  0  0  0  0  0  0  0  0  0
  -13.2381  -34.3162  -11.4805 C   0  0  0  0  0  0  0  0  0  0  0  0
  -13.4794  -36.2090  -13.0055 C   0  0  0  0  0  0  0  0  0  0  0  0
  -13.4478  -37.2493  -12.1241 C   0  0  0  0  0  0  0  0  0  0  0  0
  -14.0687  -38.4555  -12.3490 C   0  0  0  0  0  0  0  0  0  0  0  0
  -14.0061  -39.5536  -11.3385 C   0  0  0  0  0  0  0  0  0  0  0  0
  -15.0032  -39.3641  -10.3583 N   0  0  0  0  0  0  0  0  0  0  0  0
  -14.6496  -39.3948   -8.9938 C   0  0  0  0  0  0  0  0  0  0  0  0
  -15.6777  -40.0494   -8.0715 C   0  0  1  0  0  0  0  0  0  0  0  0
  -15.4085  -39.6582   -6.7771 O   0  0  0  0  0  0  0  0  0  0  0  0
  -17.0712  -39.5856   -8.4757 C   0  0  2  0  0  0  0  0  0  0  0  0
  -17.9054  -39.3558   -7.2688 C   0  0  0  0  0  0  0  0  0  0  0  0
  -19.1185  -38.5330   -7.6220 C   0  0  2  0  0  0  0  0  0  0  0  0
  -18.6332  -37.3684   -8.4795 C   0  0  0  0  0  0  0  0  0  0  0  0
  -19.6852  -37.9326   -6.3689 C   0  0  0  0  0  0  0  0  0  0  0  0
  -20.2540  -39.0242   -5.5061 C   0  0  0  0  0  0  0  0  0  0  0  0
  -21.6013  -39.4353   -6.1057 C   0  0  0  0  0  0  0  0  0  0  0  0
  -22.0150  -40.6976   -5.3926 C   0  0  0  0  0  0  0  0  0  0  0  0
  -22.8058  -41.5798   -6.3179 C   0  0  0  0  0  0  0  0  0  0  0  0
  -22.6063  -43.0103   -6.0059 N   0  0  0  0  0  0  0  0  0  0  0  0
  -23.8443  -43.7447   -5.7297 C   0  0  2  0  0  0  0  0  0  0  0  0
  -25.0341  -43.0493   -6.3579 C   0  0  0  0  0  0  0  0  0  0  0  0
  -24.0939  -43.8596   -4.2909 C   0  0  0  0  0  0  0  0  0  0  0  0
  -24.0743  -45.0712   -3.6393 C   0  0  0  0  0  0  0  0  0  0  0  0
  -24.3152  -45.1526   -2.2613 C   0  0  0  0  0  0  0  0  0  0  0  0
  -24.5755  -44.0447   -1.5214 C   0  0  0  0  0  0  0  0  0  0  0  0
  -24.5977  -42.8170   -2.1694 C   0  0  0  0  0  0  0  0  0  0  0  0
  -24.3584  -42.7403   -3.5361 C   0  0  0  0  0  0  0  0  0  0  0  0
  -21.3094  -43.5750   -5.9880 C   0  0  0  0  0  0  0  0  0  0  0  0
  -21.2152  -44.3365   -4.9053 O   0  0  0  0  0  0  0  0  0  0  0  0
  -20.1501  -43.4728   -6.8866 C   0  0  0  0  0  0  0  0  0  0  0  0
  -19.7304  -42.4654   -7.7283 C   0  0  0  0  0  0  0  0  0  0  0  0
  -18.5807  -42.6448   -8.4743 C   0  0  0  0  0  0  0  0  0  0  0  0
  -17.8579  -43.8653   -8.3537 C   0  0  0  0  0  0  0  0  0  0  0  0
  -18.2366  -44.8862   -7.5334 C   0  0  0  0  0  0  0  0  0  0  0  0
  -19.3786  -44.6678   -6.8155 C   0  0  0  0  0  0  0  0  0  0  0  0
  -17.4702  -46.1197   -7.4180 C   0  0  0  0  0  0  0  0  0  0  0  0
  -17.6016  -46.9854   -6.4040 N   0  0  0  0  0  0  0  0  0  0  0  0
  -16.7482  -48.0279   -6.5961 C   0  0  0  0  0  0  0  0  0  0  0  0
  -16.0979  -47.7356   -7.7851 C   0  0  0  0  0  0  0  0  0  0  0  0
  -16.5674  -46.6062   -8.2128 O   0  0  0  0  0  0  0  0  0  0  0  0
  -17.9105  -41.7927   -9.4566 C   0  0  0  0  0  0  0  0  0  0  0  0
  -17.4102  -42.3685  -10.5540 O   0  0  0  0  0  0  0  0  0  0  0  0
  -17.6528  -40.3925   -9.5064 N   0  0  0  0  0  0  0  0  0  0  0  0
  -14.7632  -38.6086  -13.5459 C   0  0  0  0  0  0  0  0  0  0  0  0
  -14.8041  -37.5652  -14.4468 C   0  0  0  0  0  0  0  0  0  0  0  0
  -14.1725  -36.3649  -14.1958 C   0  0  0  0  0  0  0  0  0  0  0  0
  1  2  1  0
  2  3  1  0
  2  4  1  0
  4  5  2  0
  5  6  1  0
  6  7  1  0
  7  8  1  0
  8  9  1  0
  9 10  1  0
 10 11  1  1
 10 12  1  0
 12 13  1  1
 13 14  1  0
 14 15  1  6
 14 16  1  0
 16 17  1  0
 17 18  1  0
 18 19  1  0
 19 20  1  0
 20 21  1  0
 21 22  1  0
 22 23  1  6
 22 24  1  0
 24 25  2  0
 25 26  1  0
 26 27  2  0
 27 28  1  0
 28 29  2  0
 21 30  1  0
 30 31  2  0
 30 32  1  0
 32 33  1  0
 33 34  2  0
 34 35  1  0
 35 36  2  0
 36 37  1  0
 36 38  1  0
 38 39  2  0
 39 40  1  0
 40 41  2  0
 41 42  1  0
 34 43  1  0
 43 44  2  0
 43 45  1  0
  6 46  2  0
 46 47  1  0
 47 48  2  0
 29 24  1  0
 37 32  2  0
 42 38  1  0
 45 12  1  0
 48  4  1  0
M  END
$$$$
