
     RDKit          3D

 48 52  0  0  0  0  0  0  0  0999 V2000
  -11.8676  -35.1122  -12.6977 C   0  0  0  0  0  0  0  0  0  0  0  0
  -12.7896  -35.6953  -11.6351 C   0  0  0  0  0  0  0  0  0  0  0  0
  -12.2845  -35.4833  -10.2504 C   0  0  0  0  0  0  0  0  0  0  0  0
  -12.9905  -37.1419  -11.8987 C   0  0  0  0  0  0  0  0  0  0  0  0
  -12.8992  -38.1066  -10.9390 C   0  0  0  0  0  0  0  0  0  0  0  0
  -13.0728  -39.4475  -11.1898 C   0  0  0  0  0  0  0  0  0  0  0  0
  -12.9705  -40.4554  -10.0922 C   0  0  0  0  0  0  0  0  0  0  0  0
  -13.8139  -40.0897   -9.0218 N   0  0  0  0  0  0  0  0  0  0  0  0
  -15.1954  -39.9265   -9.2514 C   0  0  0  0  0  0  0  0  0  0  0  0
  -16.0511  -39.7916   -7.9921 C   0  0  1  0  0  0  0  0  0  0  0  0
  -15.4863  -38.8251   -7.1870 O   0  0  0  0  0  0  0  0  0  0  0  0
  -17.4602  -39.3754   -8.3937 C   0  0  2  0  0  0  0  0  0  0  0  0
  -18.3618  -39.4128   -7.2141 C   0  0  0  0  0  0  0  0  0  0  0  0
  -19.6240  -38.6382   -7.4974 C   0  0  2  0  0  0  0  0  0  0  0  0
  -19.2029  -37.3142   -8.1273 C   0  0  0  0  0  0  0  0  0  0  0  0
  -20.2925  -38.2984   -6.1977 C   0  0  0  0  0  0  0  0  0  0  0  0
  -20.8032  -39.5579   -5.5555 C   0  0  0  0  0  0  0  0  0  0  0  0
  -22.0840  -39.9662   -6.2880 C   0  0  0  0  0  0  0  0  0  0  0  0
  -22.4194  -41.3569   -5.8122 C   0  0  0  0  0  0  0  0  0  0  0  0
  -23.0924  -42.1320   -6.9105 C   0  0  0  0  0  0  0  0  0  0  0  0
  -22.7860  -43.5748   -6.8226 N   0  0  0  0  0  0  0  0  0  0  0  0
  -23.9679  -44.4374   -6.7383 C   0  0  2  0  0  0  0  0  0  0  0  0
  -25.1958  -43.7202   -7.2599 C   0  0  0  0  0  0  0  0  0  0  0  0
  -24.2364  -44.8515   -5.3591 C   0  0  0  0  0  0  0  0  0  0  0  0
  -24.3879  -43.9417   -4.3383 C   0  0  0  0  0  0  0  0  0  0  0  0
  -24.6457  -44.3652   -3.0276 C   0  0  0  0  0  0  0  0  0  0  0  0
  -24.7552  -45.6822   -2.7178 C   0  0  0  0  0  0  0  0  0  0  0  0
  -24.6040  -46.6087   -3.7408 C   0  0  0  0  0  0  0  0  0  0  0  0
  -24.3483  -46.1848   -5.0393 C   0  0  0  0  0  0  0  0  0  0  0  0
  -21.4478  -44.0337   -6.8234 C   0  0  0  0  0  0  0  0  0  0  0  0
  -21.3359  -44.9543   -5.8742 O   0  0  0  0  0  0  0  0  0  0  0  0
  -20.2640  -43.6959   -7.6274 C   0  0  0  0  0  0  0  0  0  0  0  0
  -19.8955  -42.5341   -8.2707 C   0  0  0  0  0  0  0  0  0  0  0  0
  -18.7040  -42.4992   -8.9702 C   0  0  0  0  0  0  0  0  0  0  0  0
  -17.8862  -43.6639   -9.0077 C   0  0  0  0  0  0  0  0  0  0  0  0
  -18.2118  -44.8323   -8.3854 C   0  0  0  0  0  0  0  0  0  0  0  0
  -19.3978  -44.8236   -7.7068 C   0  0  0  0  0  0  0  0  0  0  0  0
  -17.3493  -46.0055   -8.4277 C   0  0  0  0  0  0  0  0  0  0  0  0
  -16.7032  -46.4150   -9.5275 N   0  0  0  0  0  0  0  0  0  0  0  0
  -15.9861  -47.5331   -9.2315 C   0  0  0  0  0  0  0  0  0  0  0  0
  -16.2408  -47.7693   -7.8894 C   0  0  0  0  0  0  0  0  0  0  0  0
  -17.0451  -46.8391   -7.4810 O   0  0  0  0  0  0  0  0  0  0  0  0
  -18.0670  -41.4477   -9.7632 C   0  0  0  0  0  0  0  0  0  0  0  0
  -17.4732  -41.7941  -10.9093 O   0  0  0  0  0  0  0  0  0  0  0  0
  -17.9269  -40.0429   -9.5719 N   0  0  0  0  0  0  0  0  0  0  0  0
  -13.3565  -39.8259  -12.4992 C   0  0  0  0  0  0  0  0  0  0  0  0
  -13.4521  -38.8613  -13.4804 C   0  0  0  0  0  0  0  0  0  0  0  0
  -13.2737  -37.5224  -13.2012 C   0  0  0  0  0  0  0  0  0  0  0  0
  1  2  1  0
  2  3  1  0
  2  4  1  0
  4  5  2  0
  5  6  1  0
  6  7  1  0
  7  8  1  0
  8  9  1  0
  9 10  1  0
 10 11  1  1
 10 12  1  0
 12 13  1  1
 13 14  1  0
 14 15  1  1
 14 16  1  0
 16 17  1  0
 17 18  1  0
 18 19  1  0
 19 20  1  0
 20 21  1  0
 21 22  1  0
 22 23  1  1
 22 24  1  0
 24 25  2  0
 25 26  1  0
 26 27  2  0
 27 28  1  0
 28 29  2  0
 21 30  1  0
 30 31  2  0
 30 32  1  0
 32 33  1  0
 33 34  2  0
 34 35  1  0
 35 36  2  0
 36 37  1  0
 36 38  1  0
 38 39  2  0
 39 40  1  0
 40 41  2  0
 41 42  1  0
 34 43  1  0
 43 44  2  0
 43 45  1  0
  6 46  2  0
 46 47  1  0
 47 48  2  0
 29 24  1  0
 37 32  2  0
 42 38  1  0
 45 12  1  0
 48  4  1  0
M  END
$$$$
