
     RDKit          3D

 48 52  0  0  0  0  0  0  0  0999 V2000
   -9.5652  -38.3192  -11.7198 C   0  0  0  0  0  0  0  0  0  0  0  0
  -10.4668  -37.3457  -12.4670 C   0  0  0  0  0  0  0  0  0  0  0  0
  -10.5107  -35.9969  -11.8372 C   0  0  0  0  0  0  0  0  0  0  0  0
  -11.8328  -37.9174  -12.5655 C   0  0  0  0  0  0  0  0  0  0  0  0
  -12.8169  -37.6905  -11.6489 C   0  0  0  0  0  0  0  0  0  0  0  0
  -14.0775  -38.2329  -11.7368 C   0  0  0  0  0  0  0  0  0  0  0  0
  -15.1163  -37.9372  -10.7050 C   0  0  0  0  0  0  0  0  0  0  0  0
  -16.0486  -38.9944  -10.6431 N   0  0  0  0  0  0  0  0  0  0  0  0
  -15.9539  -39.9432   -9.6045 C   0  0  0  0  0  0  0  0  0  0  0  0
  -16.6048  -39.5285   -8.2852 C   0  0  1  0  0  0  0  0  0  0  0  0
  -15.9129  -38.4468   -7.7829 O   0  0  0  0  0  0  0  0  0  0  0  0
  -18.0543  -39.1418   -8.5487 C   0  0  2  0  0  0  0  0  0  0  0  0
  -18.8232  -39.1377   -7.2782 C   0  0  0  0  0  0  0  0  0  0  0  0
  -20.1186  -38.3866   -7.4546 C   0  0  2  0  0  0  0  0  0  0  0  0
  -19.7851  -37.0865   -8.1795 C   0  0  0  0  0  0  0  0  0  0  0  0
  -20.6478  -37.9987   -6.1051 C   0  0  0  0  0  0  0  0  0  0  0  0
  -21.0698  -39.2346   -5.3609 C   0  0  0  0  0  0  0  0  0  0  0  0
  -22.4165  -39.6843   -5.9336 C   0  0  0  0  0  0  0  0  0  0  0  0
  -22.6805  -41.0568   -5.3684 C   0  0  0  0  0  0  0  0  0  0  0  0
  -23.4575  -41.8828   -6.3551 C   0  0  0  0  0  0  0  0  0  0  0  0
  -23.1244  -43.3180   -6.2424 N   0  0  0  0  0  0  0  0  0  0  0  0
  -24.2790  -44.1866   -5.9959 C   0  0  2  0  0  0  0  0  0  0  0  0
  -25.5449  -43.5704   -6.5545 C   0  0  0  0  0  0  0  0  0  0  0  0
  -24.4822  -44.4208   -4.5643 C   0  0  0  0  0  0  0  0  0  0  0  0
  -24.2983  -45.6583   -3.9921 C   0  0  0  0  0  0  0  0  0  0  0  0
  -24.4983  -45.8545   -2.6190 C   0  0  0  0  0  0  0  0  0  0  0  0
  -24.8789  -44.8360   -1.8064 C   0  0  0  0  0  0  0  0  0  0  0  0
  -25.0672  -43.5830   -2.3740 C   0  0  0  0  0  0  0  0  0  0  0  0
  -24.8681  -43.3924   -3.7360 C   0  0  0  0  0  0  0  0  0  0  0  0
  -21.7882  -43.7649   -6.3691 C   0  0  0  0  0  0  0  0  0  0  0  0
  -21.5627  -44.6440   -5.4010 O   0  0  0  0  0  0  0  0  0  0  0  0
  -20.7024  -43.4507   -7.3093 C   0  0  0  0  0  0  0  0  0  0  0  0
  -20.4205  -42.3136   -8.0353 C   0  0  0  0  0  0  0  0  0  0  0  0
  -19.3117  -42.2976   -8.8603 C   0  0  0  0  0  0  0  0  0  0  0  0
  -18.4875  -43.4556   -8.9387 C   0  0  0  0  0  0  0  0  0  0  0  0
  -18.7288  -44.5999   -8.2379 C   0  0  0  0  0  0  0  0  0  0  0  0
  -19.8350  -44.5731   -7.4361 C   0  0  0  0  0  0  0  0  0  0  0  0
  -17.8606  -45.7662   -8.3255 C   0  0  0  0  0  0  0  0  0  0  0  0
  -17.3798  -46.4180   -7.2583 N   0  0  0  0  0  0  0  0  0  0  0  0
  -16.6079  -47.4558   -7.6816 C   0  0  0  0  0  0  0  0  0  0  0  0
  -16.6546  -47.3872   -9.0655 C   0  0  0  0  0  0  0  0  0  0  0  0
  -17.4041  -46.3767   -9.3755 O   0  0  0  0  0  0  0  0  0  0  0  0
  -18.7776  -41.2746   -9.7594 C   0  0  0  0  0  0  0  0  0  0  0  0
  -18.3061  -41.6634  -10.9480 O   0  0  0  0  0  0  0  0  0  0  0  0
  -18.6362  -39.8619   -9.6416 N   0  0  0  0  0  0  0  0  0  0  0  0
  -14.3493  -39.0566  -12.8258 C   0  0  0  0  0  0  0  0  0  0  0  0
  -13.3639  -39.2950  -13.7609 C   0  0  0  0  0  0  0  0  0  0  0  0
  -12.1073  -38.7376  -13.6488 C   0  0  0  0  0  0  0  0  0  0  0  0
  1  2  1  0
  2  3  1  0
  2  4  1  0
  4  5  2  0
  5  6  1  0
  6  7  1  0
  7  8  1  0
  8  9  1  0
  9 10  1  0
 10 11  1  6
 10 12  1  0
 12 13  1  1
 13 14  1  0
 14 15  1  6
 14 16  1  0
 16 17  1  0
 17 18  1  0
 18 19  1  0
 19 20  1  0
 20 21  1  0
 21 22  1  0
 22 23  1  1
 22 24  1  0
 24 25  2  0
 25 26  1  0
 26 27  2  0
 27 28  1  0
 28 29  2  0
 21 30  1  0
 30 31  2  0
 30 32  1  0
 32 33  1  0
 33 34  2  0
 34 35  1  0
 35 36  2  0
 36 37  1  0
 36 38  1  0
 38 39  2  0
 39 40  1  0
 40 41  2  0
 41 42  1  0
 34 43  1  0
 43 44  2  0
 43 45  1  0
  6 46  2  0
 46 47  1  0
 47 48  2  0
 29 24  1  0
 37 32  2  0
 42 38  1  0
 45 12  1  0
 48  4  1  0
M  END
$$$$
