
     RDKit          3D

 48 52  0  0  0  0  0  0  0  0999 V2000
  -21.7288  -34.4920   -7.5563 C   0  0  0  0  0  0  0  0  0  0  0  0
  -20.6373  -33.5038   -7.9451 C   0  0  0  0  0  0  0  0  0  0  0  0
  -21.1704  -32.2874   -8.6187 C   0  0  0  0  0  0  0  0  0  0  0  0
  -19.6442  -34.1845   -8.8128 C   0  0  0  0  0  0  0  0  0  0  0  0
  -19.6772  -35.5172   -9.1008 C   0  0  0  0  0  0  0  0  0  0  0  0
  -18.7474  -36.1469   -9.8945 C   0  0  0  0  0  0  0  0  0  0  0  0
  -18.8446  -37.6094  -10.1818 C   0  0  0  0  0  0  0  0  0  0  0  0
  -17.5930  -38.1008  -10.6094 N   0  0  0  0  0  0  0  0  0  0  0  0
  -16.7826  -38.8165   -9.7046 C   0  0  0  0  0  0  0  0  0  0  0  0
  -16.5857  -40.2949  -10.0390 C   0  0  1  0  0  0  0  0  0  0  0  0
  -15.4956  -40.4075  -10.8757 O   0  0  0  0  0  0  0  0  0  0  0  0
  -16.3329  -41.0646   -8.7491 C   0  0  2  0  0  0  0  0  0  0  0  0
  -16.0987  -42.5007   -9.0463 C   0  0  0  0  0  0  0  0  0  0  0  0
  -15.4644  -43.1822   -7.8602 C   0  0  2  0  0  0  0  0  0  0  0  0
  -14.3313  -42.2802   -7.3810 C   0  0  0  0  0  0  0  0  0  0  0  0
  -14.8272  -44.4627   -8.3138 C   0  0  0  0  0  0  0  0  0  0  0  0
  -15.8978  -45.4320   -8.7308 C   0  0  0  0  0  0  0  0  0  0  0  0
  -16.5218  -46.0102   -7.4579 C   0  0  0  0  0  0  0  0  0  0  0  0
  -17.7558  -46.7590   -7.8933 C   0  0  0  0  0  0  0  0  0  0  0  0
  -18.8071  -46.6931   -6.8208 C   0  0  0  0  0  0  0  0  0  0  0  0
  -20.1688  -46.7139   -7.3940 N   0  0  0  0  0  0  0  0  0  0  0  0
  -21.0205  -47.7922   -6.8838 C   0  0  2  0  0  0  0  0  0  0  0  0
  -20.8173  -47.9795   -5.3946 C   0  0  0  0  0  0  0  0  0  0  0  0
  -20.7311  -49.0670   -7.5447 C   0  0  0  0  0  0  0  0  0  0  0  0
  -21.3916  -49.4674   -8.6832 C   0  0  0  0  0  0  0  0  0  0  0  0
  -21.0940  -50.6919   -9.2964 C   0  0  0  0  0  0  0  0  0  0  0  0
  -20.1476  -51.5244   -8.7925 C   0  0  0  0  0  0  0  0  0  0  0  0
  -19.4752  -51.1297   -7.6437 C   0  0  0  0  0  0  0  0  0  0  0  0
  -19.7732  -49.9148   -7.0385 C   0  0  0  0  0  0  0  0  0  0  0  0
  -20.5679  -45.7522   -8.3516 C   0  0  0  0  0  0  0  0  0  0  0  0
  -21.2119  -46.3900   -9.3207 O   0  0  0  0  0  0  0  0  0  0  0  0
  -20.4067  -44.2938   -8.4469 C   0  0  0  0  0  0  0  0  0  0  0  0
  -19.4355  -43.4464   -7.9591 C   0  0  0  0  0  0  0  0  0  0  0  0
  -19.5402  -42.0897   -8.2017 C   0  0  0  0  0  0  0  0  0  0  0  0
  -20.6480  -41.6015   -8.9508 C   0  0  0  0  0  0  0  0  0  0  0  0
  -21.6296  -42.4039   -9.4522 C   0  0  0  0  0  0  0  0  0  0  0  0
  -21.4879  -43.7371   -9.1882 C   0  0  0  0  0  0  0  0  0  0  0  0
  -22.7453  -41.8797  -10.2283 C   0  0  0  0  0  0  0  0  0  0  0  0
  -23.2614  -40.6554  -10.0564 N   0  0  0  0  0  0  0  0  0  0  0  0
  -24.2855  -40.4772  -10.9348 C   0  0  0  0  0  0  0  0  0  0  0  0
  -24.3523  -41.6670  -11.6431 C   0  0  0  0  0  0  0  0  0  0  0  0
  -23.4240  -42.4432  -11.1798 O   0  0  0  0  0  0  0  0  0  0  0  0
  -18.7048  -40.9579   -7.8000 C   0  0  0  0  0  0  0  0  0  0  0  0
  -19.3118  -39.8320   -7.4128 O   0  0  0  0  0  0  0  0  0  0  0  0
  -17.2938  -40.7754   -7.7270 N   0  0  0  0  0  0  0  0  0  0  0  0
  -17.7221  -35.3690  -10.4257 C   0  0  0  0  0  0  0  0  0  0  0  0
  -17.6759  -34.0198  -10.1432 C   0  0  0  0  0  0  0  0  0  0  0  0
  -18.6222  -33.4131   -9.3439 C   0  0  0  0  0  0  0  0  0  0  0  0
  1  2  1  0
  2  3  1  0
  2  4  1  0
  4  5  2  0
  5  6  1  0
  6  7  1  0
  7  8  1  0
  8  9  1  0
  9 10  1  0
 10 11  1  6
 10 12  1  0
 12 13  1  6
 13 14  1  0
 14 15  1  6
 14 16  1  0
 16 17  1  0
 17 18  1  0
 18 19  1  0
 19 20  1  0
 20 21  1  0
 21 22  1  0
 22 23  1  1
 22 24  1  0
 24 25  2  0
 25 26  1  0
 26 27  2  0
 27 28  1  0
 28 29  2  0
 21 30  1  0
 30 31  2  0
 30 32  1  0
 32 33  1  0
 33 34  2  0
 34 35  1  0
 35 36  2  0
 36 37  1  0
 36 38  1  0
 38 39  2  0
 39 40  1  0
 40 41  2  0
 41 42  1  0
 34 43  1  0
 43 44  2  0
 43 45  1  0
  6 46  2  0
 46 47  1  0
 47 48  2  0
 29 24  1  0
 37 32  2  0
 42 38  1  0
 45 12  1  0
 48  4  1  0
M  END
$$$$
