
     RDKit          3D

 48 52  0  0  0  0  0  0  0  0999 V2000
  -14.6166  -34.6180  -10.9977 C   0  0  0  0  0  0  0  0  0  0  0  0
  -13.4325  -34.9338  -11.9017 C   0  0  0  0  0  0  0  0  0  0  0  0
  -13.4680  -34.1819  -13.1866 C   0  0  0  0  0  0  0  0  0  0  0  0
  -13.3845  -36.3951  -12.1565 C   0  0  0  0  0  0  0  0  0  0  0  0
  -13.4533  -37.3381  -11.1736 C   0  0  0  0  0  0  0  0  0  0  0  0
  -13.3950  -38.6910  -11.4126 C   0  0  0  0  0  0  0  0  0  0  0  0
  -13.4867  -39.6751  -10.2927 C   0  0  0  0  0  0  0  0  0  0  0  0
  -14.4725  -40.6426  -10.5808 N   0  0  0  0  0  0  0  0  0  0  0  0
  -15.3767  -41.0336   -9.5721 C   0  0  0  0  0  0  0  0  0  0  0  0
  -15.7006  -39.9561   -8.5376 C   0  0  1  0  0  0  0  0  0  0  0  0
  -14.7902  -38.9307   -8.6818 O   0  0  0  0  0  0  0  0  0  0  0  0
  -17.1111  -39.4383   -8.7876 C   0  0  2  0  0  0  0  0  0  0  0  0
  -17.8425  -39.3017   -7.5023 C   0  0  0  0  0  0  0  0  0  0  0  0
  -19.0614  -38.4333   -7.6854 C   0  0  2  0  0  0  0  0  0  0  0  0
  -18.6199  -37.2060   -8.4766 C   0  0  0  0  0  0  0  0  0  0  0  0
  -19.5145  -37.9356   -6.3443 C   0  0  0  0  0  0  0  0  0  0  0  0
  -20.0373  -39.0893   -5.5350 C   0  0  0  0  0  0  0  0  0  0  0  0
  -21.4362  -39.4267   -6.0573 C   0  0  0  0  0  0  0  0  0  0  0  0
  -21.8199  -40.7398   -5.4237 C   0  0  0  0  0  0  0  0  0  0  0  0
  -22.7002  -41.5265   -6.3544 C   0  0  0  0  0  0  0  0  0  0  0  0
  -22.5080  -42.9814   -6.1827 N   0  0  0  0  0  0  0  0  0  0  0  0
  -23.7360  -43.7186   -5.8717 C   0  0  2  0  0  0  0  0  0  0  0  0
  -24.9131  -43.1503   -6.6369 C   0  0  0  0  0  0  0  0  0  0  0  0
  -24.0533  -43.6600   -4.4428 C   0  0  0  0  0  0  0  0  0  0  0  0
  -23.8670  -44.7370   -3.6072 C   0  0  0  0  0  0  0  0  0  0  0  0
  -24.1776  -44.6534   -2.2433 C   0  0  0  0  0  0  0  0  0  0  0  0
  -24.6713  -43.5124   -1.6983 C   0  0  0  0  0  0  0  0  0  0  0  0
  -24.8632  -42.4196   -2.5330 C   0  0  0  0  0  0  0  0  0  0  0  0
  -24.5541  -42.5065   -3.8851 C   0  0  0  0  0  0  0  0  0  0  0  0
  -21.2263  -43.5649   -6.3172 C   0  0  0  0  0  0  0  0  0  0  0  0
  -21.0638  -44.4188   -5.3146 O   0  0  0  0  0  0  0  0  0  0  0  0
  -20.1394  -43.4023   -7.2940 C   0  0  0  0  0  0  0  0  0  0  0  0
  -19.7654  -42.3320   -8.0776 C   0  0  0  0  0  0  0  0  0  0  0  0
  -18.6821  -42.4631   -8.9260 C   0  0  0  0  0  0  0  0  0  0  0  0
  -17.9788  -43.7001   -8.9685 C   0  0  0  0  0  0  0  0  0  0  0  0
  -18.3140  -44.7827   -8.2106 C   0  0  0  0  0  0  0  0  0  0  0  0
  -19.3909  -44.6103   -7.3873 C   0  0  0  0  0  0  0  0  0  0  0  0
  -17.5679  -46.0327   -8.2628 C   0  0  0  0  0  0  0  0  0  0  0  0
  -18.1405  -47.2434   -8.2253 N   0  0  0  0  0  0  0  0  0  0  0  0
  -17.1711  -48.1960   -8.2939 C   0  0  0  0  0  0  0  0  0  0  0  0
  -15.9840  -47.4847   -8.3748 C   0  0  0  0  0  0  0  0  0  0  0  0
  -16.2879  -46.2253   -8.3518 O   0  0  0  0  0  0  0  0  0  0  0  0
  -18.0729  -41.5390   -9.8827 C   0  0  0  0  0  0  0  0  0  0  0  0
  -17.6732  -42.0248  -11.0619 O   0  0  0  0  0  0  0  0  0  0  0  0
  -17.7895  -40.1438   -9.8333 N   0  0  0  0  0  0  0  0  0  0  0  0
  -13.2579  -39.1058  -12.7345 C   0  0  0  0  0  0  0  0  0  0  0  0
  -13.1872  -38.1636  -13.7391 C   0  0  0  0  0  0  0  0  0  0  0  0
  -13.2486  -36.8118  -13.4716 C   0  0  0  0  0  0  0  0  0  0  0  0
  1  2  1  0
  2  3  1  0
  2  4  1  0
  4  5  2  0
  5  6  1  0
  6  7  1  0
  7  8  1  0
  8  9  1  0
  9 10  1  0
 10 11  1  6
 10 12  1  0
 12 13  1  1
 13 14  1  0
 14 15  1  6
 14 16  1  0
 16 17  1  0
 17 18  1  0
 18 19  1  0
 19 20  1  0
 20 21  1  0
 21 22  1  0
 22 23  1  6
 22 24  1  0
 24 25  2  0
 25 26  1  0
 26 27  2  0
 27 28  1  0
 28 29  2  0
 21 30  1  0
 30 31  2  0
 30 32  1  0
 32 33  1  0
 33 34  2  0
 34 35  1  0
 35 36  2  0
 36 37  1  0
 36 38  1  0
 38 39  2  0
 39 40  1  0
 40 41  2  0
 41 42  1  0
 34 43  1  0
 43 44  2  0
 43 45  1  0
  6 46  2  0
 46 47  1  0
 47 48  2  0
 29 24  1  0
 37 32  2  0
 42 38  1  0
 45 12  1  0
 48  4  1  0
M  END
$$$$
