
     RDKit          3D

 48 52  0  0  0  0  0  0  0  0999 V2000
  -13.3503  -36.8218  -11.9122 C   0  0  0  0  0  0  0  0  0  0  0  0
  -13.0177  -37.5919  -13.1831 C   0  0  0  0  0  0  0  0  0  0  0  0
  -13.8900  -37.2194  -14.3312 C   0  0  0  0  0  0  0  0  0  0  0  0
  -13.1084  -39.0485  -12.9134 C   0  0  0  0  0  0  0  0  0  0  0  0
  -13.3369  -39.5772  -11.6772 C   0  0  0  0  0  0  0  0  0  0  0  0
  -13.4070  -40.9279  -11.4290 C   0  0  0  0  0  0  0  0  0  0  0  0
  -13.6711  -41.4450  -10.0528 C   0  0  0  0  0  0  0  0  0  0  0  0
  -13.0835  -40.5907   -9.0959 N   0  0  0  0  0  0  0  0  0  0  0  0
  -13.9103  -39.8174   -8.2555 C   0  0  0  0  0  0  0  0  0  0  0  0
  -15.1947  -40.5067   -7.7960 C   0  0  1  0  0  0  0  0  0  0  0  0
  -15.3393  -40.2933   -6.4415 O   0  0  0  0  0  0  0  0  0  0  0  0
  -16.3754  -39.9040   -8.5463 C   0  0  2  0  0  0  0  0  0  0  0  0
  -17.3872  -39.3945   -7.5860 C   0  0  0  0  0  0  0  0  0  0  0  0
  -18.3430  -38.4592   -8.2825 C   0  0  2  0  0  0  0  0  0  0  0  0
  -17.5002  -37.5041   -9.1219 C   0  0  0  0  0  0  0  0  0  0  0  0
  -19.0429  -37.6192   -7.2548 C   0  0  0  0  0  0  0  0  0  0  0  0
  -19.9547  -38.4898   -6.4362 C   0  0  0  0  0  0  0  0  0  0  0  0
  -21.2007  -38.7777   -7.2778 C   0  0  0  0  0  0  0  0  0  0  0  0
  -21.9616  -39.8584   -6.5526 C   0  0  0  0  0  0  0  0  0  0  0  0
  -22.6854  -40.7329   -7.5381 C   0  0  0  0  0  0  0  0  0  0  0  0
  -22.8020  -42.1219   -7.0476 N   0  0  0  0  0  0  0  0  0  0  0  0
  -24.1773  -42.6243   -6.9833 C   0  0  2  0  0  0  0  0  0  0  0  0
  -24.8193  -42.6122   -8.3550 C   0  0  0  0  0  0  0  0  0  0  0  0
  -25.0064  -41.8144   -6.0875 C   0  0  0  0  0  0  0  0  0  0  0  0
  -25.5226  -40.5975   -6.4690 C   0  0  0  0  0  0  0  0  0  0  0  0
  -26.3142  -39.8435   -5.5923 C   0  0  0  0  0  0  0  0  0  0  0  0
  -26.6000  -40.2834   -4.3404 C   0  0  0  0  0  0  0  0  0  0  0  0
  -26.0839  -41.5103   -3.9455 C   0  0  0  0  0  0  0  0  0  0  0  0
  -25.2992  -42.2551   -4.8176 C   0  0  0  0  0  0  0  0  0  0  0  0
  -21.6525  -42.8616   -6.6833 C   0  0  0  0  0  0  0  0  0  0  0  0
  -21.9140  -43.4755   -5.5362 O   0  0  0  0  0  0  0  0  0  0  0  0
  -20.3338  -43.0514   -7.3052 C   0  0  0  0  0  0  0  0  0  0  0  0
  -19.5844  -42.2387   -8.1282 C   0  0  0  0  0  0  0  0  0  0  0  0
  -18.3544  -42.6825   -8.5760 C   0  0  0  0  0  0  0  0  0  0  0  0
  -17.8915  -43.9676   -8.1749 C   0  0  0  0  0  0  0  0  0  0  0  0
  -18.5993  -44.8024   -7.3621 C   0  0  0  0  0  0  0  0  0  0  0  0
  -19.8095  -44.3253   -6.9437 C   0  0  0  0  0  0  0  0  0  0  0  0
  -18.0956  -46.1072   -6.9550 C   0  0  0  0  0  0  0  0  0  0  0  0
  -17.6159  -47.0199   -7.8104 N   0  0  0  0  0  0  0  0  0  0  0  0
  -17.2281  -48.1224   -7.1131 C   0  0  0  0  0  0  0  0  0  0  0  0
  -17.5038  -47.8163   -5.7894 C   0  0  0  0  0  0  0  0  0  0  0  0
  -18.0093  -46.6234   -5.7677 O   0  0  0  0  0  0  0  0  0  0  0  0
  -17.3614  -42.0775   -9.4638 C   0  0  0  0  0  0  0  0  0  0  0  0
  -16.7531  -42.8627  -10.3579 O   0  0  0  0  0  0  0  0  0  0  0  0
  -16.8630  -40.7493   -9.5947 N   0  0  0  0  0  0  0  0  0  0  0  0
  -13.2329  -41.7904  -12.5079 C   0  0  0  0  0  0  0  0  0  0  0  0
  -13.0012  -41.2702  -13.7640 C   0  0  0  0  0  0  0  0  0  0  0  0
  -12.9362  -39.9103  -13.9854 C   0  0  0  0  0  0  0  0  0  0  0  0
  1  2  1  0
  2  3  1  0
  2  4  1  0
  4  5  2  0
  5  6  1  0
  6  7  1  0
  7  8  1  0
  8  9  1  0
  9 10  1  0
 10 11  1  1
 10 12  1  0
 12 13  1  1
 13 14  1  0
 14 15  1  6
 14 16  1  0
 16 17  1  0
 17 18  1  0
 18 19  1  0
 19 20  1  0
 20 21  1  0
 21 22  1  0
 22 23  1  6
 22 24  1  0
 24 25  2  0
 25 26  1  0
 26 27  2  0
 27 28  1  0
 28 29  2  0
 21 30  1  0
 30 31  2  0
 30 32  1  0
 32 33  1  0
 33 34  2  0
 34 35  1  0
 35 36  2  0
 36 37  1  0
 36 38  1  0
 38 39  2  0
 39 40  1  0
 40 41  2  0
 41 42  1  0
 34 43  1  0
 43 44  2  0
 43 45  1  0
  6 46  2  0
 46 47  1  0
 47 48  2  0
 29 24  1  0
 37 32  2  0
 42 38  1  0
 45 12  1  0
 48  4  1  0
M  END
$$$$
