
     RDKit          3D

 48 52  0  0  0  0  0  0  0  0999 V2000
  -12.6932  -36.1594  -14.3311 C   0  0  0  0  0  0  0  0  0  0  0  0
  -12.4819  -36.5866  -12.8848 C   0  0  0  0  0  0  0  0  0  0  0  0
  -11.1264  -36.2442  -12.3718 C   0  0  0  0  0  0  0  0  0  0  0  0
  -12.7306  -38.0445  -12.7614 C   0  0  0  0  0  0  0  0  0  0  0  0
  -12.5073  -38.7572  -11.6203 C   0  0  0  0  0  0  0  0  0  0  0  0
  -12.7264  -40.1106  -11.5139 C   0  0  0  0  0  0  0  0  0  0  0  0
  -12.4723  -40.8331  -10.2315 C   0  0  0  0  0  0  0  0  0  0  0  0
  -13.4126  -40.4331   -9.2585 N   0  0  0  0  0  0  0  0  0  0  0  0
  -14.7873  -40.6358   -9.4974 C   0  0  0  0  0  0  0  0  0  0  0  0
  -15.7033  -40.3355   -8.3113 C   0  0  1  0  0  0  0  0  0  0  0  0
  -15.1146  -39.3486   -7.5493 O   0  0  0  0  0  0  0  0  0  0  0  0
  -17.0499  -39.8540   -8.8355 C   0  0  2  0  0  0  0  0  0  0  0  0
  -17.9755  -39.5892   -7.7048 C   0  0  0  0  0  0  0  0  0  0  0  0
  -19.1398  -38.7510   -8.1689 C   0  0  2  0  0  0  0  0  0  0  0  0
  -18.5639  -37.6098   -9.0015 C   0  0  0  0  0  0  0  0  0  0  0  0
  -19.7955  -38.1197   -6.9760 C   0  0  0  0  0  0  0  0  0  0  0  0
  -20.4536  -39.1863   -6.1461 C   0  0  0  0  0  0  0  0  0  0  0  0
  -21.7550  -39.5835   -6.8478 C   0  0  0  0  0  0  0  0  0  0  0  0
  -22.2495  -40.8261   -6.1519 C   0  0  0  0  0  0  0  0  0  0  0  0
  -22.9787  -41.7097   -7.1252 C   0  0  0  0  0  0  0  0  0  0  0  0
  -22.8327  -43.1379   -6.7761 N   0  0  0  0  0  0  0  0  0  0  0  0
  -24.1028  -43.8456   -6.5911 C   0  0  2  0  0  0  0  0  0  0  0  0
  -25.1312  -43.3778   -7.5999 C   0  0  0  0  0  0  0  0  0  0  0  0
  -24.6514  -43.6283   -5.2504 C   0  0  0  0  0  0  0  0  0  0  0  0
  -25.9137  -44.0480   -4.8994 C   0  0  0  0  0  0  0  0  0  0  0  0
  -26.4136  -43.8284   -3.6088 C   0  0  0  0  0  0  0  0  0  0  0  0
  -25.6746  -43.1968   -2.6614 C   0  0  0  0  0  0  0  0  0  0  0  0
  -24.3993  -42.7692   -3.0054 C   0  0  0  0  0  0  0  0  0  0  0  0
  -23.9072  -42.9886   -4.2863 C   0  0  0  0  0  0  0  0  0  0  0  0
  -21.5526  -43.7252   -6.6431 C   0  0  0  0  0  0  0  0  0  0  0  0
  -21.5618  -44.4699   -5.5448 O   0  0  0  0  0  0  0  0  0  0  0  0
  -20.3220  -43.6587   -7.4450 C   0  0  0  0  0  0  0  0  0  0  0  0
  -19.8157  -42.6732   -8.2647 C   0  0  0  0  0  0  0  0  0  0  0  0
  -18.6125  -42.8855   -8.9110 C   0  0  0  0  0  0  0  0  0  0  0  0
  -17.9254  -44.1164   -8.7128 C   0  0  0  0  0  0  0  0  0  0  0  0
  -18.3893  -45.1165   -7.9108 C   0  0  0  0  0  0  0  0  0  0  0  0
  -19.5818  -44.8658   -7.2925 C   0  0  0  0  0  0  0  0  0  0  0  0
  -17.6585  -46.3612   -7.7140 C   0  0  0  0  0  0  0  0  0  0  0  0
  -17.4367  -46.9121   -6.5131 N   0  0  0  0  0  0  0  0  0  0  0  0
  -16.7307  -48.0641   -6.6759 C   0  0  0  0  0  0  0  0  0  0  0  0
  -16.5426  -48.1708   -8.0453 C   0  0  0  0  0  0  0  0  0  0  0  0
  -17.1101  -47.1426   -8.5928 O   0  0  0  0  0  0  0  0  0  0  0  0
  -17.8482  -42.0621   -9.8480 C   0  0  0  0  0  0  0  0  0  0  0  0
  -17.2708  -42.6651  -10.8917 O   0  0  0  0  0  0  0  0  0  0  0  0
  -17.5606  -40.6677   -9.8979 N   0  0  0  0  0  0  0  0  0  0  0  0
  -13.2017  -40.7761  -12.6406 C   0  0  0  0  0  0  0  0  0  0  0  0
  -13.4325  -40.0685  -13.8017 C   0  0  0  0  0  0  0  0  0  0  0  0
  -13.2046  -38.7104  -13.8810 C   0  0  0  0  0  0  0  0  0  0  0  0
  1  2  1  0
  2  3  1  0
  2  4  1  0
  4  5  2  0
  5  6  1  0
  6  7  1  0
  7  8  1  0
  8  9  1  0
  9 10  1  0
 10 11  1  1
 10 12  1  0
 12 13  1  1
 13 14  1  0
 14 15  1  6
 14 16  1  0
 16 17  1  0
 17 18  1  0
 18 19  1  0
 19 20  1  0
 20 21  1  0
 21 22  1  0
 22 23  1  6
 22 24  1  0
 24 25  2  0
 25 26  1  0
 26 27  2  0
 27 28  1  0
 28 29  2  0
 21 30  1  0
 30 31  2  0
 30 32  1  0
 32 33  1  0
 33 34  2  0
 34 35  1  0
 35 36  2  0
 36 37  1  0
 36 38  1  0
 38 39  2  0
 39 40  1  0
 40 41  2  0
 41 42  1  0
 34 43  1  0
 43 44  2  0
 43 45  1  0
  6 46  2  0
 46 47  1  0
 47 48  2  0
 29 24  1  0
 37 32  2  0
 42 38  1  0
 45 12  1  0
 48  4  1  0
M  END
$$$$
