
     RDKit          3D

 48 52  0  0  0  0  0  0  0  0999 V2000
  -11.1151  -35.9591  -10.0928 C   0  0  0  0  0  0  0  0  0  0  0  0
  -12.2110  -36.2441  -11.1111 C   0  0  0  0  0  0  0  0  0  0  0  0
  -13.4978  -35.5713  -10.7808 C   0  0  0  0  0  0  0  0  0  0  0  0
  -12.4064  -37.7108  -11.2254 C   0  0  0  0  0  0  0  0  0  0  0  0
  -12.5599  -38.5405  -10.1539 C   0  0  0  0  0  0  0  0  0  0  0  0
  -12.7274  -39.9009  -10.2634 C   0  0  0  0  0  0  0  0  0  0  0  0
  -12.9014  -40.7552   -9.0506 C   0  0  0  0  0  0  0  0  0  0  0  0
  -13.8875  -40.2004   -8.2077 N   0  0  0  0  0  0  0  0  0  0  0  0
  -15.2445  -40.5140   -8.4273 C   0  0  0  0  0  0  0  0  0  0  0  0
  -16.2172  -39.9472   -7.3935 C   0  0  1  0  0  0  0  0  0  0  0  0
  -15.5763  -38.9401   -6.7035 O   0  0  0  0  0  0  0  0  0  0  0  0
  -17.4366  -39.3887   -8.1154 C   0  0  2  0  0  0  0  0  0  0  0  0
  -18.5938  -39.3172   -7.1874 C   0  0  0  0  0  0  0  0  0  0  0  0
  -19.6621  -38.4164   -7.7540 C   0  0  2  0  0  0  0  0  0  0  0  0
  -18.9646  -37.1516   -8.2450 C   0  0  0  0  0  0  0  0  0  0  0  0
  -20.5835  -37.9931   -6.6480 C   0  0  0  0  0  0  0  0  0  0  0  0
  -21.3635  -39.1842   -6.1656 C   0  0  0  0  0  0  0  0  0  0  0  0
  -22.4665  -39.4627   -7.1901 C   0  0  0  0  0  0  0  0  0  0  0  0
  -23.0512  -40.8046   -6.8291 C   0  0  0  0  0  0  0  0  0  0  0  0
  -23.5185  -41.5163   -8.0680 C   0  0  0  0  0  0  0  0  0  0  0  0
  -23.3962  -42.9824   -7.9303 N   0  0  0  0  0  0  0  0  0  0  0  0
  -24.6480  -43.7139   -8.1447 C   0  0  2  0  0  0  0  0  0  0  0  0
  -25.5846  -42.9273   -9.0380 C   0  0  0  0  0  0  0  0  0  0  0  0
  -25.3415  -43.9785   -6.8819 C   0  0  0  0  0  0  0  0  0  0  0  0
  -25.4648  -45.2484   -6.3670 C   0  0  0  0  0  0  0  0  0  0  0  0
  -26.1323  -45.4734   -5.1556 C   0  0  0  0  0  0  0  0  0  0  0  0
  -26.6794  -44.4520   -4.4484 C   0  0  0  0  0  0  0  0  0  0  0  0
  -26.5606  -43.1665   -4.9593 C   0  0  0  0  0  0  0  0  0  0  0  0
  -25.8980  -42.9474   -6.1610 C   0  0  0  0  0  0  0  0  0  0  0  0
  -22.1532  -43.5804   -7.6165 C   0  0  0  0  0  0  0  0  0  0  0  0
  -22.3703  -44.4969   -6.6817 O   0  0  0  0  0  0  0  0  0  0  0  0
  -20.7821  -43.3790   -8.1078 C   0  0  0  0  0  0  0  0  0  0  0  0
  -20.1494  -42.2700   -8.6268 C   0  0  0  0  0  0  0  0  0  0  0  0
  -18.8278  -42.3694   -9.0192 C   0  0  0  0  0  0  0  0  0  0  0  0
  -18.1526  -43.6145   -8.8764 C   0  0  0  0  0  0  0  0  0  0  0  0
  -18.7396  -44.7348   -8.3675 C   0  0  0  0  0  0  0  0  0  0  0  0
  -20.0462  -44.5929   -7.9934 C   0  0  0  0  0  0  0  0  0  0  0  0
  -18.0210  -45.9932   -8.2187 C   0  0  0  0  0  0  0  0  0  0  0  0
  -17.0972  -46.4297   -9.0853 N   0  0  0  0  0  0  0  0  0  0  0  0
  -16.6189  -47.6301   -8.6581 C   0  0  0  0  0  0  0  0  0  0  0  0
  -17.3107  -47.8868   -7.4845 C   0  0  0  0  0  0  0  0  0  0  0  0
  -18.1141  -46.8899   -7.2855 O   0  0  0  0  0  0  0  0  0  0  0  0
  -17.9117  -41.4002   -9.6206 C   0  0  0  0  0  0  0  0  0  0  0  0
  -17.1000  -41.8205  -10.5957 O   0  0  0  0  0  0  0  0  0  0  0  0
  -17.6742  -40.0162   -9.3808 N   0  0  0  0  0  0  0  0  0  0  0  0
  -12.7385  -40.4470  -11.5441 C   0  0  0  0  0  0  0  0  0  0  0  0
  -12.5846  -39.6203  -12.6372 C   0  0  0  0  0  0  0  0  0  0  0  0
  -12.4187  -38.2580  -12.4990 C   0  0  0  0  0  0  0  0  0  0  0  0
  1  2  1  0
  2  3  1  0
  2  4  1  0
  4  5  2  0
  5  6  1  0
  6  7  1  0
  7  8  1  0
  8  9  1  0
  9 10  1  0
 10 11  1  6
 10 12  1  0
 12 13  1  1
 13 14  1  0
 14 15  1  1
 14 16  1  0
 16 17  1  0
 17 18  1  0
 18 19  1  0
 19 20  1  0
 20 21  1  0
 21 22  1  0
 22 23  1  6
 22 24  1  0
 24 25  2  0
 25 26  1  0
 26 27  2  0
 27 28  1  0
 28 29  2  0
 21 30  1  0
 30 31  2  0
 30 32  1  0
 32 33  1  0
 33 34  2  0
 34 35  1  0
 35 36  2  0
 36 37  1  0
 36 38  1  0
 38 39  2  0
 39 40  1  0
 40 41  2  0
 41 42  1  0
 34 43  1  0
 43 44  2  0
 43 45  1  0
  6 46  2  0
 46 47  1  0
 47 48  2  0
 29 24  1  0
 37 32  2  0
 42 38  1  0
 45 12  1  0
 48  4  1  0
M  END
$$$$
