
     RDKit          3D

 48 52  0  0  0  0  0  0  0  0999 V2000
  -13.0592  -34.6648  -12.9672 C   0  0  0  0  0  0  0  0  0  0  0  0
  -11.9773  -35.6060  -12.4547 C   0  0  0  0  0  0  0  0  0  0  0  0
  -10.8953  -35.8417  -13.4504 C   0  0  0  0  0  0  0  0  0  0  0  0
  -12.5968  -36.8916  -12.0473 C   0  0  0  0  0  0  0  0  0  0  0  0
  -12.4388  -37.4513  -10.8136 C   0  0  0  0  0  0  0  0  0  0  0  0
  -13.0036  -38.6494  -10.4442 C   0  0  0  0  0  0  0  0  0  0  0  0
  -12.8018  -39.2052   -9.0726 C   0  0  0  0  0  0  0  0  0  0  0  0
  -13.8257  -40.1279   -8.7710 N   0  0  0  0  0  0  0  0  0  0  0  0
  -15.1564  -39.8294   -9.1287 C   0  0  0  0  0  0  0  0  0  0  0  0
  -16.1264  -39.6836   -7.9566 C   0  0  1  0  0  0  0  0  0  0  0  0
  -15.6424  -38.7055   -7.1139 O   0  0  0  0  0  0  0  0  0  0  0  0
  -17.4932  -39.2781   -8.4929 C   0  0  2  0  0  0  0  0  0  0  0  0
  -18.4864  -39.2396   -7.3895 C   0  0  0  0  0  0  0  0  0  0  0  0
  -19.7112  -38.4709   -7.8165 C   0  0  2  0  0  0  0  0  0  0  0  0
  -19.2229  -37.1891   -8.4842 C   0  0  0  0  0  0  0  0  0  0  0  0
  -20.4765  -38.0510   -6.5960 C   0  0  0  0  0  0  0  0  0  0  0  0
  -21.0540  -39.2669   -5.9270 C   0  0  0  0  0  0  0  0  0  0  0  0
  -22.2778  -39.7046   -6.7359 C   0  0  0  0  0  0  0  0  0  0  0  0
  -22.6692  -41.0626   -6.2110 C   0  0  0  0  0  0  0  0  0  0  0  0
  -23.2631  -41.8931   -7.3144 C   0  0  0  0  0  0  0  0  0  0  0  0
  -22.9846  -43.3313   -7.1210 N   0  0  0  0  0  0  0  0  0  0  0  0
  -24.1813  -44.1767   -7.0835 C   0  0  2  0  0  0  0  0  0  0  0  0
  -25.1175  -43.8350   -8.2240 C   0  0  0  0  0  0  0  0  0  0  0  0
  -24.9179  -44.0138   -5.8279 C   0  0  0  0  0  0  0  0  0  0  0  0
  -26.2891  -43.9072   -5.7925 C   0  0  0  0  0  0  0  0  0  0  0  0
  -26.9692  -43.7534   -4.5769 C   0  0  0  0  0  0  0  0  0  0  0  0
  -26.3038  -43.7043   -3.3948 C   0  0  0  0  0  0  0  0  0  0  0  0
  -24.9197  -43.8110   -3.4194 C   0  0  0  0  0  0  0  0  0  0  0  0
  -24.2489  -43.9632   -4.6269 C   0  0  0  0  0  0  0  0  0  0  0  0
  -21.6571  -43.8018   -6.9883 C   0  0  0  0  0  0  0  0  0  0  0  0
  -21.6339  -44.6675   -5.9827 O   0  0  0  0  0  0  0  0  0  0  0  0
  -20.4084  -43.5216   -7.7122 C   0  0  0  0  0  0  0  0  0  0  0  0
  -19.9739  -42.4020   -8.3883 C   0  0  0  0  0  0  0  0  0  0  0  0
  -18.7299  -42.4182   -8.9906 C   0  0  0  0  0  0  0  0  0  0  0  0
  -17.9279  -43.5906   -8.8965 C   0  0  0  0  0  0  0  0  0  0  0  0
  -18.3182  -44.7184   -8.2375 C   0  0  0  0  0  0  0  0  0  0  0  0
  -19.5543  -44.6599   -7.6581 C   0  0  0  0  0  0  0  0  0  0  0  0
  -17.4713  -45.9000   -8.1441 C   0  0  0  0  0  0  0  0  0  0  0  0
  -16.1650  -45.8581   -7.8498 N   0  0  0  0  0  0  0  0  0  0  0  0
  -15.6704  -47.1259   -7.8402 C   0  0  0  0  0  0  0  0  0  0  0  0
  -16.7577  -47.9298   -8.1461 C   0  0  0  0  0  0  0  0  0  0  0  0
  -17.7787  -47.1494   -8.3115 O   0  0  0  0  0  0  0  0  0  0  0  0
  -18.0173  -41.4198   -9.7878 C   0  0  0  0  0  0  0  0  0  0  0  0
  -17.3389  -41.8368  -10.8611 O   0  0  0  0  0  0  0  0  0  0  0  0
  -17.8735  -40.0077   -9.6654 N   0  0  0  0  0  0  0  0  0  0  0  0
  -13.7758  -39.3162  -11.3916 C   0  0  0  0  0  0  0  0  0  0  0  0
  -13.9446  -38.7623  -12.6433 C   0  0  0  0  0  0  0  0  0  0  0  0
  -13.3669  -37.5581  -12.9877 C   0  0  0  0  0  0  0  0  0  0  0  0
  1  2  1  0
  2  3  1  0
  2  4  1  0
  4  5  2  0
  5  6  1  0
  6  7  1  0
  7  8  1  0
  8  9  1  0
  9 10  1  0
 10 11  1  1
 10 12  1  0
 12 13  1  1
 13 14  1  0
 14 15  1  1
 14 16  1  0
 16 17  1  0
 17 18  1  0
 18 19  1  0
 19 20  1  0
 20 21  1  0
 21 22  1  0
 22 23  1  6
 22 24  1  0
 24 25  2  0
 25 26  1  0
 26 27  2  0
 27 28  1  0
 28 29  2  0
 21 30  1  0
 30 31  2  0
 30 32  1  0
 32 33  1  0
 33 34  2  0
 34 35  1  0
 35 36  2  0
 36 37  1  0
 36 38  1  0
 38 39  2  0
 39 40  1  0
 40 41  2  0
 41 42  1  0
 34 43  1  0
 43 44  2  0
 43 45  1  0
  6 46  2  0
 46 47  1  0
 47 48  2  0
 29 24  1  0
 37 32  2  0
 42 38  1  0
 45 12  1  0
 48  4  1  0
M  END
$$$$
