
     RDKit          3D

 48 52  0  0  0  0  0  0  0  0999 V2000
  -15.4841  -35.4462  -11.7782 C   0  0  0  0  0  0  0  0  0  0  0  0
  -14.0398  -35.8777  -11.9946 C   0  0  0  0  0  0  0  0  0  0  0  0
  -13.3933  -35.1826  -13.1419 C   0  0  0  0  0  0  0  0  0  0  0  0
  -13.9893  -37.3489  -12.1836 C   0  0  0  0  0  0  0  0  0  0  0  0
  -13.6777  -38.2300  -11.1903 C   0  0  0  0  0  0  0  0  0  0  0  0
  -13.6188  -39.5917  -11.3728 C   0  0  0  0  0  0  0  0  0  0  0  0
  -13.2818  -40.5061  -10.2408 C   0  0  0  0  0  0  0  0  0  0  0  0
  -14.0296  -40.1536   -9.0974 N   0  0  0  0  0  0  0  0  0  0  0  0
  -15.3461  -40.6371   -8.9530 C   0  0  0  0  0  0  0  0  0  0  0  0
  -16.0925  -40.1290   -7.7198 C   0  0  1  0  0  0  0  0  0  0  0  0
  -15.3681  -39.0910   -7.1731 O   0  0  0  0  0  0  0  0  0  0  0  0
  -17.4698  -39.6353   -8.1436 C   0  0  2  0  0  0  0  0  0  0  0  0
  -18.3532  -39.4996   -6.9576 C   0  0  0  0  0  0  0  0  0  0  0  0
  -19.5535  -38.6518   -7.2953 C   0  0  2  0  0  0  0  0  0  0  0  0
  -19.0373  -37.4244   -8.0397 C   0  0  0  0  0  0  0  0  0  0  0  0
  -20.1727  -38.1503   -6.0239 C   0  0  0  0  0  0  0  0  0  0  0  0
  -20.7727  -39.3054   -5.2720 C   0  0  0  0  0  0  0  0  0  0  0  0
  -22.0932  -39.6688   -5.9562 C   0  0  0  0  0  0  0  0  0  0  0  0
  -22.5316  -40.9825   -5.3604 C   0  0  0  0  0  0  0  0  0  0  0  0
  -23.2813  -41.7905   -6.3826 C   0  0  0  0  0  0  0  0  0  0  0  0
  -23.0902  -43.2408   -6.1744 N   0  0  0  0  0  0  0  0  0  0  0  0
  -24.3360  -43.9944   -6.0066 C   0  0  2  0  0  0  0  0  0  0  0  0
  -25.4727  -43.3280   -6.7535 C   0  0  0  0  0  0  0  0  0  0  0  0
  -24.7188  -44.0972   -4.5965 C   0  0  0  0  0  0  0  0  0  0  0  0
  -24.8005  -45.3072   -3.9468 C   0  0  0  0  0  0  0  0  0  0  0  0
  -25.1679  -45.3770   -2.5963 C   0  0  0  0  0  0  0  0  0  0  0  0
  -25.4553  -44.2590   -1.8822 C   0  0  0  0  0  0  0  0  0  0  0  0
  -25.3758  -43.0327   -2.5284 C   0  0  0  0  0  0  0  0  0  0  0  0
  -25.0113  -42.9676   -3.8678 C   0  0  0  0  0  0  0  0  0  0  0  0
  -21.7933  -43.8052   -6.1472 C   0  0  0  0  0  0  0  0  0  0  0  0
  -21.7409  -44.6482   -5.1237 O   0  0  0  0  0  0  0  0  0  0  0  0
  -20.5987  -43.6338   -6.9871 C   0  0  0  0  0  0  0  0  0  0  0  0
  -20.1482  -42.5642   -7.7304 C   0  0  0  0  0  0  0  0  0  0  0  0
  -18.9685  -42.6854   -8.4404 C   0  0  0  0  0  0  0  0  0  0  0  0
  -18.2474  -43.9115   -8.3851 C   0  0  0  0  0  0  0  0  0  0  0  0
  -18.6560  -44.9929   -7.6625 C   0  0  0  0  0  0  0  0  0  0  0  0
  -19.8269  -44.8307   -6.9771 C   0  0  0  0  0  0  0  0  0  0  0  0
  -17.8910  -46.2316   -7.6115 C   0  0  0  0  0  0  0  0  0  0  0  0
  -16.5589  -46.2896   -7.7419 N   0  0  0  0  0  0  0  0  0  0  0  0
  -16.1588  -47.5868   -7.6460 C   0  0  0  0  0  0  0  0  0  0  0  0
  -17.3299  -48.3025   -7.4503 C   0  0  0  0  0  0  0  0  0  0  0  0
  -18.3051  -47.4493   -7.4404 O   0  0  0  0  0  0  0  0  0  0  0  0
  -18.2615  -41.7598   -9.3257 C   0  0  0  0  0  0  0  0  0  0  0  0
  -17.7151  -42.2489  -10.4430 O   0  0  0  0  0  0  0  0  0  0  0  0
  -18.0064  -40.3599   -9.2564 N   0  0  0  0  0  0  0  0  0  0  0  0
  -13.8944  -40.0830  -12.6460 C   0  0  0  0  0  0  0  0  0  0  0  0
  -14.2112  -39.2039  -13.6604 C   0  0  0  0  0  0  0  0  0  0  0  0
  -14.2636  -37.8418  -13.4498 C   0  0  0  0  0  0  0  0  0  0  0  0
  1  2  1  0
  2  3  1  0
  2  4  1  0
  4  5  2  0
  5  6  1  0
  6  7  1  0
  7  8  1  0
  8  9  1  0
  9 10  1  0
 10 11  1  6
 10 12  1  0
 12 13  1  1
 13 14  1  0
 14 15  1  6
 14 16  1  0
 16 17  1  0
 17 18  1  0
 18 19  1  0
 19 20  1  0
 20 21  1  0
 21 22  1  0
 22 23  1  6
 22 24  1  0
 24 25  2  0
 25 26  1  0
 26 27  2  0
 27 28  1  0
 28 29  2  0
 21 30  1  0
 30 31  2  0
 30 32  1  0
 32 33  1  0
 33 34  2  0
 34 35  1  0
 35 36  2  0
 36 37  1  0
 36 38  1  0
 38 39  2  0
 39 40  1  0
 40 41  2  0
 41 42  1  0
 34 43  1  0
 43 44  2  0
 43 45  1  0
  6 46  2  0
 46 47  1  0
 47 48  2  0
 29 24  1  0
 37 32  2  0
 42 38  1  0
 45 12  1  0
 48  4  1  0
M  END
$$$$
