
     RDKit          3D

 44 49  0  0  0  0  0  0  0  0999 V2000
  -12.9954  -34.5391  -12.4483 C   0  0  0  0  0  0  0  0  0  0  0  0
  -12.0019  -35.4216  -11.7621 C   0  0  0  0  0  0  0  0  0  0  0  0
  -11.9735  -35.0947  -10.2676 C   0  0  0  0  0  0  0  0  0  0  0  0
  -10.6110  -35.0422  -12.2788 C   0  0  0  0  0  0  0  0  0  0  0  0
  -12.2215  -36.8544  -11.9644 C   0  0  0  0  0  0  0  0  0  0  0  0
  -13.3769  -37.5305  -11.6154 C   0  0  0  0  0  0  0  0  0  0  0  0
  -13.5325  -38.8785  -11.8289 C   0  0  0  0  0  0  0  0  0  0  0  0
  -12.5177  -39.5465  -12.3968 N   0  0  0  0  0  0  0  0  0  0  0  0
  -11.3662  -38.9569  -12.7618 C   0  0  0  0  0  0  0  0  0  0  0  0
  -11.2167  -37.5982  -12.5436 C   0  0  0  0  0  0  0  0  0  0  0  0
  -14.7865  -39.6322  -11.4520 C   0  0  0  0  0  0  0  0  0  0  0  0
  -15.2189  -40.6439  -12.5525 C   0  0  0  0  0  0  0  0  0  0  0  0
  -14.7237  -41.0789  -11.2364 C   0  0  0  0  0  0  0  0  0  0  0  0
  -15.8336  -38.7685  -11.0542 N   0  0  0  0  0  0  0  0  0  0  0  0
  -17.1003  -39.3138  -10.7233 C   0  0  0  0  0  0  0  0  0  0  0  0
  -17.3207  -39.2949   -9.2679 C   0  0  1  0  0  0  0  0  0  0  0  0
  -16.9029  -38.0310   -8.7682 O   0  0  0  0  0  0  0  0  0  0  0  0
  -18.7499  -39.5099   -8.7972 C   0  0  2  0  0  0  0  0  0  0  0  0
  -18.7613  -39.6915   -7.2953 C   0  0  0  0  0  0  0  0  0  0  0  0
  -20.0673  -39.4148   -6.6485 C   0  0  0  0  0  0  0  0  0  0  0  0
  -20.9411  -40.2226   -5.9513 C   0  0  0  0  0  0  0  0  0  0  0  0
  -22.1261  -39.6831   -5.5181 C   0  0  0  0  0  0  0  0  0  0  0  0
  -23.2872  -40.3311   -4.8028 C   0  0  0  0  0  0  0  0  0  0  0  0
  -24.2235  -41.0539   -5.7203 C   0  0  0  0  0  0  0  0  0  0  0  0
  -24.4135  -42.5128   -5.4444 C   0  0  0  0  0  0  0  0  0  0  0  0
  -23.2092  -43.3047   -5.1355 C   0  0  0  0  0  0  0  0  0  0  0  0
  -22.6690  -44.1168   -6.1966 N   0  0  0  0  0  0  0  0  0  0  0  0
  -21.6350  -43.8727   -7.1592 C   0  0  0  0  0  0  0  0  0  0  0  0
  -21.3656  -42.7838   -7.9520 C   0  0  0  0  0  0  0  0  0  0  0  0
  -20.2455  -42.7943   -8.7502 C   0  0  0  0  0  0  0  0  0  0  0  0
  -19.4071  -43.9276   -8.7372 C   0  0  0  0  0  0  0  0  0  0  0  0
  -19.6283  -45.0467   -7.9688 C   0  0  0  0  0  0  0  0  0  0  0  0
  -20.7559  -44.9803   -7.1912 C   0  0  0  0  0  0  0  0  0  0  0  0
  -18.7452  -46.1874   -7.9841 C   0  0  0  0  0  0  0  0  0  0  0  0
  -18.4041  -46.9338   -6.9308 N   0  0  0  0  0  0  0  0  0  0  0  0
  -17.5494  -47.9189   -7.3569 C   0  0  0  0  0  0  0  0  0  0  0  0
  -17.4116  -47.7091   -8.7006 C   0  0  0  0  0  0  0  0  0  0  0  0
  -18.1378  -46.6763   -9.0158 O   0  0  0  0  0  0  0  0  0  0  0  0
  -19.6913  -41.7721   -9.6639 C   0  0  0  0  0  0  0  0  0  0  0  0
  -19.2284  -42.2238  -10.8333 O   0  0  0  0  0  0  0  0  0  0  0  0
  -19.5288  -40.3795   -9.5918 N   0  0  0  0  0  0  0  0  0  0  0  0
  -22.4357  -38.3238   -5.7814 C   0  0  0  0  0  0  0  0  0  0  0  0
  -21.5915  -37.4895   -6.4677 C   0  0  0  0  0  0  0  0  0  0  0  0
  -20.4252  -38.0573   -6.8853 C   0  0  0  0  0  0  0  0  0  0  0  0
  1  2  1  0
  2  3  1  0
  2  4  1  0
  2  5  1  0
  5  6  2  0
  6  7  1  0
  7  8  2  0
  8  9  1  0
  9 10  2  0
  7 11  1  0
 11 12  1  0
 12 13  1  0
 11 14  1  0
 14 15  1  0
 15 16  1  0
 16 17  1  6
 16 18  1  0
 18 19  1  1
 19 20  1  0
 20 21  1  0
 21 22  2  0
 22 23  1  0
 23 24  1  0
 24 25  1  0
 25 26  1  0
 26 27  1  0
 27 28  1  0
 28 29  1  0
 29 30  2  0
 30 31  1  0
 31 32  2  0
 32 33  1  0
 32 34  1  0
 34 35  2  0
 35 36  1  0
 36 37  2  0
 37 38  1  0
 30 39  1  0
 39 40  2  0
 39 41  1  0
 22 42  1  0
 42 43  2  0
 43 44  1  0
 10  5  1  0
 13 11  1  0
 33 28  2  0
 38 34  1  0
 41 18  1  0
 44 20  2  0
M  END
$$$$
