
     RDKit          3D

 44 49  0  0  0  0  0  0  0  0999 V2000
  -12.8435  -35.6310  -13.7531 C   0  0  0  0  0  0  0  0  0  0  0  0
  -13.6845  -35.9024  -12.5466 C   0  0  0  0  0  0  0  0  0  0  0  0
  -15.0905  -35.3400  -12.7659 C   0  0  0  0  0  0  0  0  0  0  0  0
  -13.1064  -35.0870  -11.3862 C   0  0  0  0  0  0  0  0  0  0  0  0
  -13.7561  -37.3126  -12.1616 C   0  0  0  0  0  0  0  0  0  0  0  0
  -13.3097  -37.8229  -10.9557 C   0  0  0  0  0  0  0  0  0  0  0  0
  -13.4019  -39.1573  -10.6432 C   0  0  0  0  0  0  0  0  0  0  0  0
  -13.9468  -39.9797  -11.5516 N   0  0  0  0  0  0  0  0  0  0  0  0
  -14.4017  -39.5559  -12.7434 C   0  0  0  0  0  0  0  0  0  0  0  0
  -14.3055  -38.2099  -13.0513 C   0  0  0  0  0  0  0  0  0  0  0  0
  -12.9176  -39.7311   -9.3322 C   0  0  0  0  0  0  0  0  0  0  0  0
  -12.2515  -41.1262   -9.5099 C   0  0  0  0  0  0  0  0  0  0  0  0
  -11.4837  -39.9336   -9.1168 C   0  0  0  0  0  0  0  0  0  0  0  0
  -13.9232  -39.7223   -8.3375 N   0  0  0  0  0  0  0  0  0  0  0  0
  -15.2729  -39.4995   -8.7117 C   0  0  0  0  0  0  0  0  0  0  0  0
  -16.1584  -39.5205   -7.5359 C   0  0  1  0  0  0  0  0  0  0  0  0
  -15.9390  -38.3308   -6.7888 O   0  0  0  0  0  0  0  0  0  0  0  0
  -17.6504  -39.6034   -7.8139 C   0  0  2  0  0  0  0  0  0  0  0  0
  -18.4041  -39.6320   -6.5024 C   0  0  0  0  0  0  0  0  0  0  0  0
  -19.8249  -39.2160   -6.5961 C   0  0  0  0  0  0  0  0  0  0  0  0
  -21.0026  -39.8974   -6.3698 C   0  0  0  0  0  0  0  0  0  0  0  0
  -22.1887  -39.2488   -6.6056 C   0  0  0  0  0  0  0  0  0  0  0  0
  -23.6090  -39.7528   -6.5139 C   0  0  0  0  0  0  0  0  0  0  0  0
  -24.0525  -40.5084   -7.7278 C   0  0  0  0  0  0  0  0  0  0  0  0
  -24.4968  -41.9186   -7.4944 C   0  0  0  0  0  0  0  0  0  0  0  0
  -23.6777  -42.7443   -6.5888 C   0  0  0  0  0  0  0  0  0  0  0  0
  -22.7763  -43.6891   -7.1989 N   0  0  0  0  0  0  0  0  0  0  0  0
  -21.3875  -43.6037   -7.5441 C   0  0  0  0  0  0  0  0  0  0  0  0
  -20.6613  -42.6176   -8.1662 C   0  0  0  0  0  0  0  0  0  0  0  0
  -19.3024  -42.7736   -8.3110 C   0  0  0  0  0  0  0  0  0  0  0  0
  -18.6927  -43.9468   -7.8217 C   0  0  0  0  0  0  0  0  0  0  0  0
  -19.3682  -44.9682   -7.1955 C   0  0  0  0  0  0  0  0  0  0  0  0
  -20.7181  -44.7583   -7.0755 C   0  0  0  0  0  0  0  0  0  0  0  0
  -18.7067  -46.1541   -6.7085 C   0  0  0  0  0  0  0  0  0  0  0  0
  -18.9678  -46.7875   -5.5624 N   0  0  0  0  0  0  0  0  0  0  0  0
  -18.1270  -47.8671   -5.4631 C   0  0  0  0  0  0  0  0  0  0  0  0
  -17.3695  -47.8298   -6.6004 C   0  0  0  0  0  0  0  0  0  0  0  0
  -17.7536  -46.8001   -7.2973 O   0  0  0  0  0  0  0  0  0  0  0  0
  -18.2767  -41.8825   -8.8948 C   0  0  0  0  0  0  0  0  0  0  0  0
  -17.3543  -42.4757   -9.6583 O   0  0  0  0  0  0  0  0  0  0  0  0
  -18.0310  -40.5015   -8.8350 N   0  0  0  0  0  0  0  0  0  0  0  0
  -22.1949  -37.9072   -7.0669 C   0  0  0  0  0  0  0  0  0  0  0  0
  -21.0456  -37.1968   -7.2997 C   0  0  0  0  0  0  0  0  0  0  0  0
  -19.8861  -37.8707   -7.0579 C   0  0  0  0  0  0  0  0  0  0  0  0
  1  2  1  0
  2  3  1  0
  2  4  1  0
  2  5  1  0
  5  6  2  0
  6  7  1  0
  7  8  2  0
  8  9  1  0
  9 10  2  0
  7 11  1  0
 11 12  1  0
 12 13  1  0
 11 14  1  0
 14 15  1  0
 15 16  1  0
 16 17  1  6
 16 18  1  0
 18 19  1  1
 19 20  1  0
 20 21  1  0
 21 22  2  0
 22 23  1  0
 23 24  1  0
 24 25  1  0
 25 26  1  0
 26 27  1  0
 27 28  1  0
 28 29  1  0
 29 30  2  0
 30 31  1  0
 31 32  2  0
 32 33  1  0
 32 34  1  0
 34 35  2  0
 35 36  1  0
 36 37  2  0
 37 38  1  0
 30 39  1  0
 39 40  2  0
 39 41  1  0
 22 42  1  0
 42 43  2  0
 43 44  1  0
 10  5  1  0
 13 11  1  0
 33 28  2  0
 38 34  1  0
 41 18  1  0
 44 20  2  0
M  END
$$$$
