
     RDKit          3D

 44 49  0  0  0  0  0  0  0  0999 V2000
  -12.2907  -35.5365  -11.7038 C   0  0  0  0  0  0  0  0  0  0  0  0
  -13.5154  -36.2994  -12.0973 C   0  0  0  0  0  0  0  0  0  0  0  0
  -13.8447  -36.0168  -13.5646 C   0  0  0  0  0  0  0  0  0  0  0  0
  -14.6939  -35.7232  -11.3070 C   0  0  0  0  0  0  0  0  0  0  0  0
  -13.4326  -37.7419  -11.8643 C   0  0  0  0  0  0  0  0  0  0  0  0
  -13.3334  -38.3333  -10.6176 C   0  0  0  0  0  0  0  0  0  0  0  0
  -13.2599  -39.6952  -10.4541 C   0  0  0  0  0  0  0  0  0  0  0  0
  -13.2865  -40.4629  -11.5533 N   0  0  0  0  0  0  0  0  0  0  0  0
  -13.3811  -39.9594  -12.7960 C   0  0  0  0  0  0  0  0  0  0  0  0
  -13.4549  -38.5861  -12.9530 C   0  0  0  0  0  0  0  0  0  0  0  0
  -13.1492  -40.3569   -9.1004 C   0  0  0  0  0  0  0  0  0  0  0  0
  -13.3737  -41.8949   -9.1763 C   0  0  0  0  0  0  0  0  0  0  0  0
  -12.0651  -41.3075   -8.8462 C   0  0  0  0  0  0  0  0  0  0  0  0
  -13.9602  -39.7281   -8.1269 N   0  0  0  0  0  0  0  0  0  0  0  0
  -15.2802  -39.3358   -8.4661 C   0  0  0  0  0  0  0  0  0  0  0  0
  -16.2082  -39.5795   -7.3496 C   0  0  1  0  0  0  0  0  0  0  0  0
  -16.0505  -38.5332   -6.3998 O   0  0  0  0  0  0  0  0  0  0  0  0
  -17.6858  -39.6445   -7.6998 C   0  0  2  0  0  0  0  0  0  0  0  0
  -18.4992  -39.7353   -6.4274 C   0  0  0  0  0  0  0  0  0  0  0  0
  -19.9140  -39.3113   -6.5659 C   0  0  0  0  0  0  0  0  0  0  0  0
  -21.1012  -39.9996   -6.4279 C   0  0  0  0  0  0  0  0  0  0  0  0
  -22.2748  -39.3370   -6.6860 C   0  0  0  0  0  0  0  0  0  0  0  0
  -23.6980  -39.8409   -6.6847 C   0  0  0  0  0  0  0  0  0  0  0  0
  -24.0854  -40.5349   -7.9532 C   0  0  0  0  0  0  0  0  0  0  0  0
  -24.5408  -41.9536   -7.8100 C   0  0  0  0  0  0  0  0  0  0  0  0
  -23.7648  -42.8249   -6.9092 C   0  0  0  0  0  0  0  0  0  0  0  0
  -22.8367  -43.7412   -7.5227 N   0  0  0  0  0  0  0  0  0  0  0  0
  -21.4334  -43.6429   -7.7990 C   0  0  0  0  0  0  0  0  0  0  0  0
  -20.6787  -42.6295   -8.3378 C   0  0  0  0  0  0  0  0  0  0  0  0
  -19.3147  -42.7820   -8.4274 C   0  0  0  0  0  0  0  0  0  0  0  0
  -18.7288  -43.9794   -7.9687 C   0  0  0  0  0  0  0  0  0  0  0  0
  -19.4331  -45.0284   -7.4250 C   0  0  0  0  0  0  0  0  0  0  0  0
  -20.7869  -44.8209   -7.3573 C   0  0  0  0  0  0  0  0  0  0  0  0
  -18.7953  -46.2386   -6.9668 C   0  0  0  0  0  0  0  0  0  0  0  0
  -19.2164  -47.0227   -5.9715 N   0  0  0  0  0  0  0  0  0  0  0  0
  -18.3400  -48.0709   -5.8458 C   0  0  0  0  0  0  0  0  0  0  0  0
  -17.3954  -47.8583   -6.8107 C   0  0  0  0  0  0  0  0  0  0  0  0
  -17.7133  -46.7649   -7.4407 O   0  0  0  0  0  0  0  0  0  0  0  0
  -18.2627  -41.8663   -8.9189 C   0  0  0  0  0  0  0  0  0  0  0  0
  -17.3063  -42.4239   -9.6672 O   0  0  0  0  0  0  0  0  0  0  0  0
  -18.0193  -40.4906   -8.7802 N   0  0  0  0  0  0  0  0  0  0  0  0
  -22.2590  -37.9743   -7.0807 C   0  0  0  0  0  0  0  0  0  0  0  0
  -21.0999  -37.2566   -7.2252 C   0  0  0  0  0  0  0  0  0  0  0  0
  -19.9531  -37.9447   -6.9636 C   0  0  0  0  0  0  0  0  0  0  0  0
  1  2  1  0
  2  3  1  0
  2  4  1  0
  2  5  1  0
  5  6  2  0
  6  7  1  0
  7  8  2  0
  8  9  1  0
  9 10  2  0
  7 11  1  0
 11 12  1  0
 12 13  1  0
 11 14  1  0
 14 15  1  0
 15 16  1  0
 16 17  1  1
 16 18  1  0
 18 19  1  1
 19 20  1  0
 20 21  1  0
 21 22  2  0
 22 23  1  0
 23 24  1  0
 24 25  1  0
 25 26  1  0
 26 27  1  0
 27 28  1  0
 28 29  1  0
 29 30  2  0
 30 31  1  0
 31 32  2  0
 32 33  1  0
 32 34  1  0
 34 35  2  0
 35 36  1  0
 36 37  2  0
 37 38  1  0
 30 39  1  0
 39 40  2  0
 39 41  1  0
 22 42  1  0
 42 43  2  0
 43 44  1  0
 10  5  1  0
 13 11  1  0
 33 28  2  0
 38 34  1  0
 41 18  1  0
 44 20  2  0
M  END
$$$$
