
     RDKit          3D

 44 49  0  0  0  0  0  0  0  0999 V2000
  -17.0080  -45.4548   -7.8168 C   0  0  0  0  0  0  0  0  0  0  0  0
  -16.6410  -45.2497   -9.2521 C   0  0  0  0  0  0  0  0  0  0  0  0
  -17.6886  -44.3614   -9.9262 C   0  0  0  0  0  0  0  0  0  0  0  0
  -16.7549  -46.6045   -9.9573 C   0  0  0  0  0  0  0  0  0  0  0  0
  -15.2999  -44.7030   -9.4633 C   0  0  0  0  0  0  0  0  0  0  0  0
  -14.8161  -43.5524   -8.8666 C   0  0  0  0  0  0  0  0  0  0  0  0
  -13.5463  -43.0825   -9.0985 C   0  0  0  0  0  0  0  0  0  0  0  0
  -12.7620  -43.7768   -9.9359 N   0  0  0  0  0  0  0  0  0  0  0  0
  -13.1636  -44.9022  -10.5515 C   0  0  0  0  0  0  0  0  0  0  0  0
  -14.4444  -45.3697  -10.3131 C   0  0  0  0  0  0  0  0  0  0  0  0
  -13.0033  -41.8271   -8.4568 C   0  0  0  0  0  0  0  0  0  0  0  0
  -11.7561  -42.1107   -7.5704 C   0  0  0  0  0  0  0  0  0  0  0  0
  -11.6707  -41.3450   -8.8246 C   0  0  0  0  0  0  0  0  0  0  0  0
  -14.0053  -41.0924   -7.7809 N   0  0  0  0  0  0  0  0  0  0  0  0
  -15.1477  -40.6498   -8.4953 C   0  0  0  0  0  0  0  0  0  0  0  0
  -15.8890  -39.6334   -7.7307 C   0  0  1  0  0  0  0  0  0  0  0  0
  -15.0889  -38.4607   -7.6519 O   0  0  0  0  0  0  0  0  0  0  0  0
  -17.2383  -39.2154   -8.2919 C   0  0  2  0  0  0  0  0  0  0  0  0
  -17.8077  -38.0965   -7.4477 C   0  0  0  0  0  0  0  0  0  0  0  0
  -18.8328  -37.2680   -8.1284 C   0  0  0  0  0  0  0  0  0  0  0  0
  -20.1733  -37.0659   -7.8743 C   0  0  0  0  0  0  0  0  0  0  0  0
  -20.8899  -36.2744   -8.7362 C   0  0  0  0  0  0  0  0  0  0  0  0
  -22.3609  -35.9346   -8.7513 C   0  0  0  0  0  0  0  0  0  0  0  0
  -23.2097  -36.9901   -9.3887 C   0  0  0  0  0  0  0  0  0  0  0  0
  -24.2811  -37.5783   -8.5246 C   0  0  0  0  0  0  0  0  0  0  0  0
  -23.9210  -37.9127   -7.1349 C   0  0  0  0  0  0  0  0  0  0  0  0
  -23.6597  -39.2993   -6.8412 N   0  0  0  0  0  0  0  0  0  0  0  0
  -22.4435  -40.0570   -6.7957 C   0  0  0  0  0  0  0  0  0  0  0  0
  -21.3691  -40.1094   -7.6500 C   0  0  0  0  0  0  0  0  0  0  0  0
  -20.2849  -40.8883   -7.3191 C   0  0  0  0  0  0  0  0  0  0  0  0
  -20.3095  -41.6179   -6.1130 C   0  0  0  0  0  0  0  0  0  0  0  0
  -21.3575  -41.6080   -5.2223 C   0  0  0  0  0  0  0  0  0  0  0  0
  -22.4089  -40.8130   -5.6008 C   0  0  0  0  0  0  0  0  0  0  0  0
  -21.3440  -42.3697   -3.9973 C   0  0  0  0  0  0  0  0  0  0  0  0
  -21.6996  -41.9255   -2.7893 N   0  0  0  0  0  0  0  0  0  0  0  0
  -21.5463  -42.9494   -1.8890 C   0  0  0  0  0  0  0  0  0  0  0  0
  -21.0870  -44.0033   -2.6286 C   0  0  0  0  0  0  0  0  0  0  0  0
  -20.9864  -43.6053   -3.8635 O   0  0  0  0  0  0  0  0  0  0  0  0
  -18.9967  -41.1087   -8.0111 C   0  0  0  0  0  0  0  0  0  0  0  0
  -18.5527  -42.3689   -8.0308 O   0  0  0  0  0  0  0  0  0  0  0  0
  -18.0900  -40.2723   -8.6815 N   0  0  0  0  0  0  0  0  0  0  0  0
  -20.2582  -35.6777   -9.8578 C   0  0  0  0  0  0  0  0  0  0  0  0
  -18.9281  -35.8525  -10.1408 C   0  0  0  0  0  0  0  0  0  0  0  0
  -18.2467  -36.6455   -9.2668 C   0  0  0  0  0  0  0  0  0  0  0  0
  1  2  1  0
  2  3  1  0
  2  4  1  0
  2  5  1  0
  5  6  2  0
  6  7  1  0
  7  8  2  0
  8  9  1  0
  9 10  2  0
  7 11  1  0
 11 12  1  0
 12 13  1  0
 11 14  1  0
 14 15  1  0
 15 16  1  0
 16 17  1  6
 16 18  1  0
 18 19  1  1
 19 20  1  0
 20 21  1  0
 21 22  2  0
 22 23  1  0
 23 24  1  0
 24 25  1  0
 25 26  1  0
 26 27  1  0
 27 28  1  0
 28 29  1  0
 29 30  2  0
 30 31  1  0
 31 32  2  0
 32 33  1  0
 32 34  1  0
 34 35  2  0
 35 36  1  0
 36 37  2  0
 37 38  1  0
 30 39  1  0
 39 40  2  0
 39 41  1  0
 22 42  1  0
 42 43  2  0
 43 44  1  0
 10  5  1  0
 13 11  1  0
 33 28  2  0
 38 34  1  0
 41 18  1  0
 44 20  2  0
M  END
$$$$
