
     RDKit          3D

 44 49  0  0  0  0  0  0  0  0999 V2000
  -17.7839  -36.1746  -12.8388 C   0  0  0  0  0  0  0  0  0  0  0  0
  -17.4256  -36.9230  -11.5945 C   0  0  0  0  0  0  0  0  0  0  0  0
  -18.6269  -36.9456  -10.6472 C   0  0  0  0  0  0  0  0  0  0  0  0
  -16.3542  -36.1126  -10.8590 C   0  0  0  0  0  0  0  0  0  0  0  0
  -16.9345  -38.2825  -11.8243 C   0  0  0  0  0  0  0  0  0  0  0  0
  -15.9283  -38.8897  -11.0945 C   0  0  0  0  0  0  0  0  0  0  0  0
  -15.5053  -40.1711  -11.3510 C   0  0  0  0  0  0  0  0  0  0  0  0
  -16.1003  -40.8421  -12.3482 N   0  0  0  0  0  0  0  0  0  0  0  0
  -17.0836  -40.3172  -13.0993 C   0  0  0  0  0  0  0  0  0  0  0  0
  -17.5047  -39.0254  -12.8350 C   0  0  0  0  0  0  0  0  0  0  0  0
  -14.4068  -40.8481  -10.5652 C   0  0  0  0  0  0  0  0  0  0  0  0
  -14.2846  -42.3614  -10.9069 C   0  0  0  0  0  0  0  0  0  0  0  0
  -13.2414  -41.3878  -11.2682 C   0  0  0  0  0  0  0  0  0  0  0  0
  -14.5101  -40.6027   -9.1760 N   0  0  0  0  0  0  0  0  0  0  0  0
  -15.2722  -39.4980   -8.7174 C   0  0  0  0  0  0  0  0  0  0  0  0
  -16.0102  -39.8374   -7.4896 C   0  0  1  0  0  0  0  0  0  0  0  0
  -15.7036  -38.8641   -6.4995 O   0  0  0  0  0  0  0  0  0  0  0  0
  -17.5247  -39.8946   -7.6045 C   0  0  2  0  0  0  0  0  0  0  0  0
  -18.1356  -39.8206   -6.2224 C   0  0  0  0  0  0  0  0  0  0  0  0
  -19.5489  -39.3708   -6.1938 C   0  0  0  0  0  0  0  0  0  0  0  0
  -20.7106  -40.0029   -5.8025 C   0  0  0  0  0  0  0  0  0  0  0  0
  -21.9004  -39.3365   -5.9545 C   0  0  0  0  0  0  0  0  0  0  0  0
  -23.3137  -39.7930   -5.6827 C   0  0  0  0  0  0  0  0  0  0  0  0
  -23.8998  -40.6091   -6.7924 C   0  0  0  0  0  0  0  0  0  0  0  0
  -24.3478  -41.9889   -6.4236 C   0  0  0  0  0  0  0  0  0  0  0  0
  -23.4556  -42.7802   -5.5572 C   0  0  0  0  0  0  0  0  0  0  0  0
  -22.6449  -43.7862   -6.1958 N   0  0  0  0  0  0  0  0  0  0  0  0
  -21.2989  -43.7621   -6.6889 C   0  0  0  0  0  0  0  0  0  0  0  0
  -20.6213  -42.8375   -7.4456 C   0  0  0  0  0  0  0  0  0  0  0  0
  -19.2892  -43.0409   -7.7211 C   0  0  0  0  0  0  0  0  0  0  0  0
  -18.6570  -44.1986   -7.2236 C   0  0  0  0  0  0  0  0  0  0  0  0
  -19.2846  -45.1597   -6.4658 C   0  0  0  0  0  0  0  0  0  0  0  0
  -20.6092  -44.9042   -6.2194 C   0  0  0  0  0  0  0  0  0  0  0  0
  -18.6013  -46.3317   -5.9751 C   0  0  0  0  0  0  0  0  0  0  0  0
  -17.2880  -46.5632   -6.0408 N   0  0  0  0  0  0  0  0  0  0  0  0
  -17.0342  -47.7834   -5.4669 C   0  0  0  0  0  0  0  0  0  0  0  0
  -18.2569  -48.2462   -5.0675 C   0  0  0  0  0  0  0  0  0  0  0  0
  -19.1436  -47.3507   -5.3921 O   0  0  0  0  0  0  0  0  0  0  0  0
  -18.3118  -42.2173   -8.4650 C   0  0  0  0  0  0  0  0  0  0  0  0
  -17.4888  -42.8827   -9.2808 O   0  0  0  0  0  0  0  0  0  0  0  0
  -18.0309  -40.8429   -8.5203 N   0  0  0  0  0  0  0  0  0  0  0  0
  -21.9260  -38.0262   -6.4981 C   0  0  0  0  0  0  0  0  0  0  0  0
  -20.7926  -37.3647   -6.8948 C   0  0  0  0  0  0  0  0  0  0  0  0
  -19.6291  -38.0553   -6.7325 C   0  0  0  0  0  0  0  0  0  0  0  0
  1  2  1  0
  2  3  1  0
  2  4  1  0
  2  5  1  0
  5  6  2  0
  6  7  1  0
  7  8  2  0
  8  9  1  0
  9 10  2  0
  7 11  1  0
 11 12  1  0
 12 13  1  0
 11 14  1  0
 14 15  1  0
 15 16  1  0
 16 17  1  1
 16 18  1  0
 18 19  1  1
 19 20  1  0
 20 21  1  0
 21 22  2  0
 22 23  1  0
 23 24  1  0
 24 25  1  0
 25 26  1  0
 26 27  1  0
 27 28  1  0
 28 29  1  0
 29 30  2  0
 30 31  1  0
 31 32  2  0
 32 33  1  0
 32 34  1  0
 34 35  2  0
 35 36  1  0
 36 37  2  0
 37 38  1  0
 30 39  1  0
 39 40  2  0
 39 41  1  0
 22 42  1  0
 42 43  2  0
 43 44  1  0
 10  5  1  0
 13 11  1  0
 33 28  2  0
 38 34  1  0
 41 18  1  0
 44 20  2  0
M  END
$$$$
