
     RDKit          3D

 44 49  0  0  0  0  0  0  0  0999 V2000
  -16.0621  -35.9999   -9.7700 C   0  0  0  0  0  0  0  0  0  0  0  0
  -16.8845  -36.6572  -10.8322 C   0  0  0  0  0  0  0  0  0  0  0  0
  -16.8596  -35.8023  -12.1009 C   0  0  0  0  0  0  0  0  0  0  0  0
  -18.3436  -36.6367  -10.3672 C   0  0  0  0  0  0  0  0  0  0  0  0
  -16.4914  -38.0332  -11.1393 C   0  0  0  0  0  0  0  0  0  0  0  0
  -15.5829  -38.7746  -10.4053 C   0  0  0  0  0  0  0  0  0  0  0  0
  -15.2495  -40.0653  -10.7366 C   0  0  0  0  0  0  0  0  0  0  0  0
  -15.8355  -40.6095  -11.8132 N   0  0  0  0  0  0  0  0  0  0  0  0
  -16.7266  -39.9503  -12.5736 C   0  0  0  0  0  0  0  0  0  0  0  0
  -17.0576  -38.6501  -12.2335 C   0  0  0  0  0  0  0  0  0  0  0  0
  -14.2582  -40.8879   -9.9472 C   0  0  0  0  0  0  0  0  0  0  0  0
  -14.1468  -42.3461  -10.4791 C   0  0  0  0  0  0  0  0  0  0  0  0
  -13.0434  -41.3793  -10.6002 C   0  0  0  0  0  0  0  0  0  0  0  0
  -14.4962  -40.8252   -8.5543 N   0  0  0  0  0  0  0  0  0  0  0  0
  -15.2092  -39.7232   -8.0172 C   0  0  0  0  0  0  0  0  0  0  0  0
  -16.1233  -40.1551   -6.9471 C   0  0  1  0  0  0  0  0  0  0  0  0
  -15.9462  -39.2916   -5.8314 O   0  0  0  0  0  0  0  0  0  0  0  0
  -17.6060  -40.1525   -7.2817 C   0  0  2  0  0  0  0  0  0  0  0  0
  -18.4086  -40.2588   -6.0038 C   0  0  0  0  0  0  0  0  0  0  0  0
  -19.8079  -39.7778   -6.1102 C   0  0  0  0  0  0  0  0  0  0  0  0
  -21.0186  -40.4261   -5.9826 C   0  0  0  0  0  0  0  0  0  0  0  0
  -22.1691  -39.7115   -6.2028 C   0  0  0  0  0  0  0  0  0  0  0  0
  -23.6102  -40.1619   -6.2025 C   0  0  0  0  0  0  0  0  0  0  0  0
  -24.0368  -40.7948   -7.4903 C   0  0  0  0  0  0  0  0  0  0  0  0
  -24.5436  -42.1999   -7.3924 C   0  0  0  0  0  0  0  0  0  0  0  0
  -23.7913  -43.1314   -6.5326 C   0  0  0  0  0  0  0  0  0  0  0  0
  -22.9048  -44.0587   -7.1894 N   0  0  0  0  0  0  0  0  0  0  0  0
  -21.5018  -44.0027   -7.4787 C   0  0  0  0  0  0  0  0  0  0  0  0
  -20.7154  -42.9992   -7.9901 C   0  0  0  0  0  0  0  0  0  0  0  0
  -19.3591  -43.1989   -8.1013 C   0  0  0  0  0  0  0  0  0  0  0  0
  -18.8138  -44.4331   -7.6927 C   0  0  0  0  0  0  0  0  0  0  0  0
  -19.5511  -45.4741   -7.1784 C   0  0  0  0  0  0  0  0  0  0  0  0
  -20.8954  -45.2191   -7.0871 C   0  0  0  0  0  0  0  0  0  0  0  0
  -18.9544  -46.7229   -6.7714 C   0  0  0  0  0  0  0  0  0  0  0  0
  -19.2938  -47.4465   -5.7017 N   0  0  0  0  0  0  0  0  0  0  0  0
  -18.4950  -48.5614   -5.6621 C   0  0  0  0  0  0  0  0  0  0  0  0
  -17.6803  -48.4503   -6.7541 C   0  0  0  0  0  0  0  0  0  0  0  0
  -17.9947  -47.3486   -7.3711 O   0  0  0  0  0  0  0  0  0  0  0  0
  -18.2787  -42.3058   -8.5724 C   0  0  0  0  0  0  0  0  0  0  0  0
  -17.3520  -42.8712   -9.3515 O   0  0  0  0  0  0  0  0  0  0  0  0
  -17.9824  -40.9459   -8.3876 N   0  0  0  0  0  0  0  0  0  0  0  0
  -22.1064  -38.3370   -6.5488 C   0  0  0  0  0  0  0  0  0  0  0  0
  -20.9227  -37.6581   -6.6814 C   0  0  0  0  0  0  0  0  0  0  0  0
  -19.7999  -38.3973   -6.4582 C   0  0  0  0  0  0  0  0  0  0  0  0
  1  2  1  0
  2  3  1  0
  2  4  1  0
  2  5  1  0
  5  6  2  0
  6  7  1  0
  7  8  2  0
  8  9  1  0
  9 10  2  0
  7 11  1  0
 11 12  1  0
 12 13  1  0
 11 14  1  0
 14 15  1  0
 15 16  1  0
 16 17  1  1
 16 18  1  0
 18 19  1  1
 19 20  1  0
 20 21  1  0
 21 22  2  0
 22 23  1  0
 23 24  1  0
 24 25  1  0
 25 26  1  0
 26 27  1  0
 27 28  1  0
 28 29  1  0
 29 30  2  0
 30 31  1  0
 31 32  2  0
 32 33  1  0
 32 34  1  0
 34 35  2  0
 35 36  1  0
 36 37  2  0
 37 38  1  0
 30 39  1  0
 39 40  2  0
 39 41  1  0
 22 42  1  0
 42 43  2  0
 43 44  1  0
 10  5  1  0
 13 11  1  0
 33 28  2  0
 38 34  1  0
 41 18  1  0
 44 20  2  0
M  END
$$$$
