
     RDKit          3D

 44 49  0  0  0  0  0  0  0  0999 V2000
  -14.2876  -33.6808  -12.5643 C   0  0  0  0  0  0  0  0  0  0  0  0
  -13.5050  -34.6715  -11.7625 C   0  0  0  0  0  0  0  0  0  0  0  0
  -12.6444  -33.9328  -10.7355 C   0  0  0  0  0  0  0  0  0  0  0  0
  -12.5059  -35.3459  -12.7072 C   0  0  0  0  0  0  0  0  0  0  0  0
  -14.3170  -35.6947  -11.1025 C   0  0  0  0  0  0  0  0  0  0  0  0
  -13.8153  -36.6901  -10.2832 C   0  0  0  0  0  0  0  0  0  0  0  0
  -14.6231  -37.6270   -9.6860 C   0  0  0  0  0  0  0  0  0  0  0  0
  -15.9424  -37.5587   -9.9169 N   0  0  0  0  0  0  0  0  0  0  0  0
  -16.5009  -36.6206  -10.7009 C   0  0  0  0  0  0  0  0  0  0  0  0
  -15.6807  -35.6798  -11.2993 C   0  0  0  0  0  0  0  0  0  0  0  0
  -14.0913  -38.7215   -8.7905 C   0  0  0  0  0  0  0  0  0  0  0  0
  -13.0704  -39.6388   -9.5239 C   0  0  0  0  0  0  0  0  0  0  0  0
  -12.6721  -38.7366   -8.4312 C   0  0  0  0  0  0  0  0  0  0  0  0
  -15.1265  -39.4458   -8.1544 N   0  0  0  0  0  0  0  0  0  0  0  0
  -14.9233  -40.8104   -7.8259 C   0  0  0  0  0  0  0  0  0  0  0  0
  -15.7490  -41.6871   -8.6725 C   0  0  1  0  0  0  0  0  0  0  0  0
  -14.9418  -42.7700   -9.1170 O   0  0  0  0  0  0  0  0  0  0  0  0
  -16.9834  -42.2894   -8.0214 C   0  0  2  0  0  0  0  0  0  0  0  0
  -17.8999  -42.8359   -9.0939 C   0  0  0  0  0  0  0  0  0  0  0  0
  -18.8605  -43.8633   -8.6223 C   0  0  0  0  0  0  0  0  0  0  0  0
  -20.2382  -43.8786   -8.5595 C   0  0  0  0  0  0  0  0  0  0  0  0
  -20.8551  -44.9709   -8.0035 C   0  0  0  0  0  0  0  0  0  0  0  0
  -22.3187  -45.2344   -7.7421 C   0  0  0  0  0  0  0  0  0  0  0  0
  -22.8217  -44.6034   -6.4813 C   0  0  0  0  0  0  0  0  0  0  0  0
  -23.9551  -43.6386   -6.6396 C   0  0  0  0  0  0  0  0  0  0  0  0
  -23.8733  -42.6767   -7.7535 C   0  0  0  0  0  0  0  0  0  0  0  0
  -23.4701  -41.3315   -7.4294 N   0  0  0  0  0  0  0  0  0  0  0  0
  -22.1923  -40.6819   -7.4520 C   0  0  0  0  0  0  0  0  0  0  0  0
  -20.9569  -41.0836   -7.0056 C   0  0  0  0  0  0  0  0  0  0  0  0
  -19.8676  -40.2723   -7.2222 C   0  0  0  0  0  0  0  0  0  0  0  0
  -20.0510  -39.0453   -7.8918 C   0  0  0  0  0  0  0  0  0  0  0  0
  -21.2627  -38.5894   -8.3566 C   0  0  0  0  0  0  0  0  0  0  0  0
  -22.3121  -39.4389   -8.1165 C   0  0  0  0  0  0  0  0  0  0  0  0
  -21.4087  -37.3262   -9.0378 C   0  0  0  0  0  0  0  0  0  0  0  0
  -22.5610  -36.7341   -9.3612 N   0  0  0  0  0  0  0  0  0  0  0  0
  -22.2768  -35.5520   -9.9972 C   0  0  0  0  0  0  0  0  0  0  0  0
  -20.9117  -35.4872  -10.0271 C   0  0  0  0  0  0  0  0  0  0  0  0
  -20.4525  -36.5584   -9.4483 O   0  0  0  0  0  0  0  0  0  0  0  0
  -18.4373  -40.4541   -6.8933 C   0  0  0  0  0  0  0  0  0  0  0  0
  -17.8070  -39.3774   -6.4146 O   0  0  0  0  0  0  0  0  0  0  0  0
  -17.5455  -41.5358   -6.9677 N   0  0  0  0  0  0  0  0  0  0  0  0
  -20.0867  -46.0571   -7.5110 C   0  0  0  0  0  0  0  0  0  0  0  0
  -18.7167  -46.0795   -7.5591 C   0  0  0  0  0  0  0  0  0  0  0  0
  -18.1361  -44.9791   -8.1150 C   0  0  0  0  0  0  0  0  0  0  0  0
  1  2  1  0
  2  3  1  0
  2  4  1  0
  2  5  1  0
  5  6  2  0
  6  7  1  0
  7  8  2  0
  8  9  1  0
  9 10  2  0
  7 11  1  0
 11 12  1  0
 12 13  1  0
 11 14  1  0
 14 15  1  0
 15 16  1  0
 16 17  1  1
 16 18  1  0
 18 19  1  6
 19 20  1  0
 20 21  1  0
 21 22  2  0
 22 23  1  0
 23 24  1  0
 24 25  1  0
 25 26  1  0
 26 27  1  0
 27 28  1  0
 28 29  1  0
 29 30  2  0
 30 31  1  0
 31 32  2  0
 32 33  1  0
 32 34  1  0
 34 35  2  0
 35 36  1  0
 36 37  2  0
 37 38  1  0
 30 39  1  0
 39 40  2  0
 39 41  1  0
 22 42  1  0
 42 43  2  0
 43 44  1  0
 10  5  1  0
 13 11  1  0
 33 28  2  0
 38 34  1  0
 41 18  1  0
 44 20  2  0
M  END
$$$$
