
     RDKit          3D

 44 49  0  0  0  0  0  0  0  0999 V2000
   -9.7289  -42.0962  -10.1455 C   0  0  0  0  0  0  0  0  0  0  0  0
  -10.5692  -42.7325  -11.2066 C   0  0  0  0  0  0  0  0  0  0  0  0
  -10.5569  -44.2519  -11.0264 C   0  0  0  0  0  0  0  0  0  0  0  0
   -9.8809  -42.4859  -12.5523 C   0  0  0  0  0  0  0  0  0  0  0  0
  -11.9459  -42.2395  -11.2671 C   0  0  0  0  0  0  0  0  0  0  0  0
  -12.3432  -40.9672  -10.8967 C   0  0  0  0  0  0  0  0  0  0  0  0
  -13.6509  -40.5539  -10.9745 C   0  0  0  0  0  0  0  0  0  0  0  0
  -14.5609  -41.4284  -11.4280 N   0  0  0  0  0  0  0  0  0  0  0  0
  -14.2489  -42.6801  -11.8055 C   0  0  0  0  0  0  0  0  0  0  0  0
  -12.9292  -43.0896  -11.7243 C   0  0  0  0  0  0  0  0  0  0  0  0
  -14.1018  -39.1691  -10.5723 C   0  0  0  0  0  0  0  0  0  0  0  0
  -13.0435  -38.0816  -10.9171 C   0  0  0  0  0  0  0  0  0  0  0  0
  -14.3431  -38.1587  -11.6040 C   0  0  0  0  0  0  0  0  0  0  0  0
  -14.5315  -39.1138   -9.2258 N   0  0  0  0  0  0  0  0  0  0  0  0
  -15.8121  -38.5848   -8.9232 C   0  0  0  0  0  0  0  0  0  0  0  0
  -16.3816  -39.2283   -7.7279 C   0  0  1  0  0  0  0  0  0  0  0  0
  -16.0037  -38.4681   -6.5872 O   0  0  0  0  0  0  0  0  0  0  0  0
  -17.8947  -39.3666   -7.6899 C   0  0  2  0  0  0  0  0  0  0  0  0
  -18.3408  -39.6062   -6.2643 C   0  0  0  0  0  0  0  0  0  0  0  0
  -19.7603  -39.2695   -5.9953 C   0  0  0  0  0  0  0  0  0  0  0  0
  -20.8369  -40.0446   -5.6180 C   0  0  0  0  0  0  0  0  0  0  0  0
  -22.0661  -39.4453   -5.5049 C   0  0  0  0  0  0  0  0  0  0  0  0
  -23.4146  -40.0428   -5.1819 C   0  0  0  0  0  0  0  0  0  0  0  0
  -24.0890  -40.6652   -6.3646 C   0  0  0  0  0  0  0  0  0  0  0  0
  -24.4255  -42.1181   -6.2361 C   0  0  0  0  0  0  0  0  0  0  0  0
  -23.4013  -42.9996   -5.6471 C   0  0  0  0  0  0  0  0  0  0  0  0
  -22.6257  -43.8031   -6.5582 N   0  0  0  0  0  0  0  0  0  0  0  0
  -21.3501  -43.5901   -7.1768 C   0  0  0  0  0  0  0  0  0  0  0  0
  -20.8104  -42.4910   -7.7992 C   0  0  0  0  0  0  0  0  0  0  0  0
  -19.5122  -42.5441   -8.2503 C   0  0  0  0  0  0  0  0  0  0  0  0
  -18.7723  -43.7300   -8.0669 C   0  0  0  0  0  0  0  0  0  0  0  0
  -19.2605  -44.8616   -7.4560 C   0  0  0  0  0  0  0  0  0  0  0  0
  -20.5572  -44.7514   -7.0235 C   0  0  0  0  0  0  0  0  0  0  0  0
  -18.4703  -46.0566   -7.2875 C   0  0  0  0  0  0  0  0  0  0  0  0
  -18.9252  -47.2563   -6.9177 N   0  0  0  0  0  0  0  0  0  0  0  0
  -17.8652  -48.1263   -6.8729 C   0  0  0  0  0  0  0  0  0  0  0  0
  -16.7793  -47.3778   -7.2323 C   0  0  0  0  0  0  0  0  0  0  0  0
  -17.1940  -46.1665   -7.4651 O   0  0  0  0  0  0  0  0  0  0  0  0
  -18.6690  -41.5255   -8.9125 C   0  0  0  0  0  0  0  0  0  0  0  0
  -17.9180  -41.9603   -9.9287 O   0  0  0  0  0  0  0  0  0  0  0  0
  -18.4609  -40.1506   -8.7190 N   0  0  0  0  0  0  0  0  0  0  0  0
  -22.2168  -38.0592   -5.7671 C   0  0  0  0  0  0  0  0  0  0  0  0
  -21.1702  -37.2562   -6.1407 C   0  0  0  0  0  0  0  0  0  0  0  0
  -19.9648  -37.8829   -6.2458 C   0  0  0  0  0  0  0  0  0  0  0  0
  1  2  1  0
  2  3  1  0
  2  4  1  0
  2  5  1  0
  5  6  2  0
  6  7  1  0
  7  8  2  0
  8  9  1  0
  9 10  2  0
  7 11  1  0
 11 12  1  0
 12 13  1  0
 11 14  1  0
 14 15  1  0
 15 16  1  0
 16 17  1  1
 16 18  1  0
 18 19  1  1
 19 20  1  0
 20 21  1  0
 21 22  2  0
 22 23  1  0
 23 24  1  0
 24 25  1  0
 25 26  1  0
 26 27  1  0
 27 28  1  0
 28 29  1  0
 29 30  2  0
 30 31  1  0
 31 32  2  0
 32 33  1  0
 32 34  1  0
 34 35  2  0
 35 36  1  0
 36 37  2  0
 37 38  1  0
 30 39  1  0
 39 40  2  0
 39 41  1  0
 22 42  1  0
 42 43  2  0
 43 44  1  0
 10  5  1  0
 13 11  1  0
 33 28  2  0
 38 34  1  0
 41 18  1  0
 44 20  2  0
M  END
$$$$
