
     RDKit          3D

 44 49  0  0  0  0  0  0  0  0999 V2000
  -13.2395  -35.7825  -13.0697 C   0  0  0  0  0  0  0  0  0  0  0  0
  -11.9937  -36.4428  -12.5707 C   0  0  0  0  0  0  0  0  0  0  0  0
  -11.5721  -35.8046  -11.2455 C   0  0  0  0  0  0  0  0  0  0  0  0
  -10.8664  -36.1056  -13.5510 C   0  0  0  0  0  0  0  0  0  0  0  0
  -12.0935  -37.8957  -12.4255 C   0  0  0  0  0  0  0  0  0  0  0  0
  -12.7766  -38.5400  -11.4096 C   0  0  0  0  0  0  0  0  0  0  0  0
  -12.8404  -39.9093  -11.3204 C   0  0  0  0  0  0  0  0  0  0  0  0
  -12.2123  -40.6307  -12.2603 N   0  0  0  0  0  0  0  0  0  0  0  0
  -11.5296  -40.0744  -13.2757 C   0  0  0  0  0  0  0  0  0  0  0  0
  -11.4696  -38.6941  -13.3592 C   0  0  0  0  0  0  0  0  0  0  0  0
  -13.5801  -40.6286  -10.2167 C   0  0  0  0  0  0  0  0  0  0  0  0
  -14.3632  -41.8666  -10.7419 C   0  0  0  0  0  0  0  0  0  0  0  0
  -13.1936  -41.9943   -9.8574 C   0  0  0  0  0  0  0  0  0  0  0  0
  -14.3826  -39.7532   -9.4482 N   0  0  0  0  0  0  0  0  0  0  0  0
  -15.7932  -39.8976   -9.4725 C   0  0  0  0  0  0  0  0  0  0  0  0
  -16.3605  -39.7805   -8.1191 C   0  0  1  0  0  0  0  0  0  0  0  0
  -15.9187  -38.5532   -7.5531 O   0  0  0  0  0  0  0  0  0  0  0  0
  -17.8769  -39.7978   -8.0172 C   0  0  2  0  0  0  0  0  0  0  0  0
  -18.2814  -39.8165   -6.5595 C   0  0  0  0  0  0  0  0  0  0  0  0
  -19.6614  -39.3413   -6.2942 C   0  0  0  0  0  0  0  0  0  0  0  0
  -20.7744  -39.9774   -5.7854 C   0  0  0  0  0  0  0  0  0  0  0  0
  -21.9524  -39.2772   -5.7150 C   0  0  0  0  0  0  0  0  0  0  0  0
  -23.3259  -39.7241   -5.2751 C   0  0  0  0  0  0  0  0  0  0  0  0
  -24.0897  -40.4416   -6.3442 C   0  0  0  0  0  0  0  0  0  0  0  0
  -24.5231  -41.8360   -6.0149 C   0  0  0  0  0  0  0  0  0  0  0  0
  -23.5413  -42.7087   -5.3461 C   0  0  0  0  0  0  0  0  0  0  0  0
  -22.8619  -43.6797   -6.1663 N   0  0  0  0  0  0  0  0  0  0  0  0
  -21.6002  -43.6457   -6.8461 C   0  0  0  0  0  0  0  0  0  0  0  0
  -21.0092  -42.6804   -7.6243 C   0  0  0  0  0  0  0  0  0  0  0  0
  -19.7371  -42.8895   -8.1037 C   0  0  0  0  0  0  0  0  0  0  0  0
  -19.0766  -44.0943   -7.7879 C   0  0  0  0  0  0  0  0  0  0  0  0
  -19.6191  -45.0971   -7.0184 C   0  0  0  0  0  0  0  0  0  0  0  0
  -20.8863  -44.8341   -6.5650 C   0  0  0  0  0  0  0  0  0  0  0  0
  -18.9096  -46.3166   -6.7178 C   0  0  0  0  0  0  0  0  0  0  0  0
  -18.1360  -47.0061   -7.5598 N   0  0  0  0  0  0  0  0  0  0  0  0
  -17.6433  -48.1016   -6.8968 C   0  0  0  0  0  0  0  0  0  0  0  0
  -18.1656  -48.0152   -5.6365 C   0  0  0  0  0  0  0  0  0  0  0  0
  -18.9038  -46.9446   -5.5873 O   0  0  0  0  0  0  0  0  0  0  0  0
  -18.8509  -42.0320   -8.9199 C   0  0  0  0  0  0  0  0  0  0  0  0
  -18.1740  -42.6502   -9.8922 O   0  0  0  0  0  0  0  0  0  0  0  0
  -18.5381  -40.6633   -8.9160 N   0  0  0  0  0  0  0  0  0  0  0  0
  -22.0147  -37.9293   -6.1532 C   0  0  0  0  0  0  0  0  0  0  0  0
  -20.9295  -37.2629   -6.6612 C   0  0  0  0  0  0  0  0  0  0  0  0
  -19.7768  -37.9874   -6.7192 C   0  0  0  0  0  0  0  0  0  0  0  0
  1  2  1  0
  2  3  1  0
  2  4  1  0
  2  5  1  0
  5  6  2  0
  6  7  1  0
  7  8  2  0
  8  9  1  0
  9 10  2  0
  7 11  1  0
 11 12  1  0
 12 13  1  0
 11 14  1  0
 14 15  1  0
 15 16  1  0
 16 17  1  6
 16 18  1  0
 18 19  1  1
 19 20  1  0
 20 21  1  0
 21 22  2  0
 22 23  1  0
 23 24  1  0
 24 25  1  0
 25 26  1  0
 26 27  1  0
 27 28  1  0
 28 29  1  0
 29 30  2  0
 30 31  1  0
 31 32  2  0
 32 33  1  0
 32 34  1  0
 34 35  2  0
 35 36  1  0
 36 37  2  0
 37 38  1  0
 30 39  1  0
 39 40  2  0
 39 41  1  0
 22 42  1  0
 42 43  2  0
 43 44  1  0
 10  5  1  0
 13 11  1  0
 33 28  2  0
 38 34  1  0
 41 18  1  0
 44 20  2  0
M  END
$$$$
