
     RDKit          3D

 44 49  0  0  0  0  0  0  0  0999 V2000
   -9.3221  -37.6942  -12.1170 C   0  0  0  0  0  0  0  0  0  0  0  0
  -10.1995  -36.4844  -12.1758 C   0  0  0  0  0  0  0  0  0  0  0  0
   -9.8699  -35.6739  -13.4309 C   0  0  0  0  0  0  0  0  0  0  0  0
   -9.8154  -35.5766  -11.0036 C   0  0  0  0  0  0  0  0  0  0  0  0
  -11.6335  -36.7716  -12.1188 C   0  0  0  0  0  0  0  0  0  0  0  0
  -12.2109  -37.7404  -11.3176 C   0  0  0  0  0  0  0  0  0  0  0  0
  -13.5653  -37.9688  -11.3010 C   0  0  0  0  0  0  0  0  0  0  0  0
  -14.3397  -37.2162  -12.0962 N   0  0  0  0  0  0  0  0  0  0  0  0
  -13.8498  -36.2574  -12.9008 C   0  0  0  0  0  0  0  0  0  0  0  0
  -12.4840  -36.0329  -12.9122 C   0  0  0  0  0  0  0  0  0  0  0  0
  -14.2116  -39.0238  -10.4339 C   0  0  0  0  0  0  0  0  0  0  0  0
  -13.9689  -40.4620  -10.9763 C   0  0  0  0  0  0  0  0  0  0  0  0
  -13.3718  -39.9859   -9.7180 C   0  0  0  0  0  0  0  0  0  0  0  0
  -15.5769  -38.7514  -10.1837 N   0  0  0  0  0  0  0  0  0  0  0  0
  -16.4858  -39.8285  -10.0257 C   0  0  0  0  0  0  0  0  0  0  0  0
  -16.9810  -39.9044   -8.6415 C   0  0  1  0  0  0  0  0  0  0  0  0
  -16.5949  -38.7164   -7.9621 O   0  0  0  0  0  0  0  0  0  0  0  0
  -18.4841  -40.0487   -8.4675 C   0  0  2  0  0  0  0  0  0  0  0  0
  -18.8318  -39.9399   -6.9992 C   0  0  0  0  0  0  0  0  0  0  0  0
  -20.2405  -39.5660   -6.7229 C   0  0  0  0  0  0  0  0  0  0  0  0
  -21.2681  -40.2398   -6.0965 C   0  0  0  0  0  0  0  0  0  0  0  0
  -22.5046  -39.6468   -6.0477 C   0  0  0  0  0  0  0  0  0  0  0  0
  -23.8119  -40.1649   -5.4981 C   0  0  0  0  0  0  0  0  0  0  0  0
  -24.5416  -41.0650   -6.4460 C   0  0  0  0  0  0  0  0  0  0  0  0
  -24.8268  -42.4472   -5.9471 C   0  0  0  0  0  0  0  0  0  0  0  0
  -23.7422  -43.1456   -5.2341 C   0  0  0  0  0  0  0  0  0  0  0  0
  -23.0029  -44.1367   -5.9747 N   0  0  0  0  0  0  0  0  0  0  0  0
  -21.7757  -44.0643   -6.7124 C   0  0  0  0  0  0  0  0  0  0  0  0
  -21.3088  -43.1428   -7.6176 C   0  0  0  0  0  0  0  0  0  0  0  0
  -20.0408  -43.2874   -8.1304 C   0  0  0  0  0  0  0  0  0  0  0  0
  -19.2566  -44.3835   -7.7167 C   0  0  0  0  0  0  0  0  0  0  0  0
  -19.6720  -45.3386   -6.8183 C   0  0  0  0  0  0  0  0  0  0  0  0
  -20.9413  -45.1432   -6.3374 C   0  0  0  0  0  0  0  0  0  0  0  0
  -18.8383  -46.4466   -6.4203 C   0  0  0  0  0  0  0  0  0  0  0  0
  -19.2001  -47.4612   -5.6313 N   0  0  0  0  0  0  0  0  0  0  0  0
  -18.1276  -48.3057   -5.4927 C   0  0  0  0  0  0  0  0  0  0  0  0
  -17.1315  -47.7352   -6.2350 C   0  0  0  0  0  0  0  0  0  0  0  0
  -17.6056  -46.6424   -6.7589 O   0  0  0  0  0  0  0  0  0  0  0  0
  -19.2712  -42.4499   -9.0755 C   0  0  0  0  0  0  0  0  0  0  0  0
  -18.5738  -43.1092  -10.0054 O   0  0  0  0  0  0  0  0  0  0  0  0
  -19.0913  -41.0667   -9.2351 N   0  0  0  0  0  0  0  0  0  0  0  0
  -22.7118  -38.3681   -6.6264 C   0  0  0  0  0  0  0  0  0  0  0  0
  -21.7148  -37.6668   -7.2540 C   0  0  0  0  0  0  0  0  0  0  0  0
  -20.5007  -38.2848   -7.2867 C   0  0  0  0  0  0  0  0  0  0  0  0
  1  2  1  0
  2  3  1  0
  2  4  1  0
  2  5  1  0
  5  6  2  0
  6  7  1  0
  7  8  2  0
  8  9  1  0
  9 10  2  0
  7 11  1  0
 11 12  1  0
 12 13  1  0
 11 14  1  0
 14 15  1  0
 15 16  1  0
 16 17  1  1
 16 18  1  0
 18 19  1  1
 19 20  1  0
 20 21  1  0
 21 22  2  0
 22 23  1  0
 23 24  1  0
 24 25  1  0
 25 26  1  0
 26 27  1  0
 27 28  1  0
 28 29  1  0
 29 30  2  0
 30 31  1  0
 31 32  2  0
 32 33  1  0
 32 34  1  0
 34 35  2  0
 35 36  1  0
 36 37  2  0
 37 38  1  0
 30 39  1  0
 39 40  2  0
 39 41  1  0
 22 42  1  0
 42 43  2  0
 43 44  1  0
 10  5  1  0
 13 11  1  0
 33 28  2  0
 38 34  1  0
 41 18  1  0
 44 20  2  0
M  END
$$$$
