
     RDKit          3D

 44 49  0  0  0  0  0  0  0  0999 V2000
  -13.2183  -34.9683  -10.2399 C   0  0  0  0  0  0  0  0  0  0  0  0
  -13.7116  -35.4466  -11.5683 C   0  0  0  0  0  0  0  0  0  0  0  0
  -13.1096  -34.5831  -12.6788 C   0  0  0  0  0  0  0  0  0  0  0  0
  -15.2181  -35.1773  -11.6273 C   0  0  0  0  0  0  0  0  0  0  0  0
  -13.4603  -36.8637  -11.8345 C   0  0  0  0  0  0  0  0  0  0  0  0
  -13.5240  -37.8664  -10.8835 C   0  0  0  0  0  0  0  0  0  0  0  0
  -13.2799  -39.1837  -11.1871 C   0  0  0  0  0  0  0  0  0  0  0  0
  -12.9703  -39.4897  -12.4555 N   0  0  0  0  0  0  0  0  0  0  0  0
  -12.8897  -38.5696  -13.4320 C   0  0  0  0  0  0  0  0  0  0  0  0
  -13.1370  -37.2442  -13.1187 C   0  0  0  0  0  0  0  0  0  0  0  0
  -13.3433  -40.2904  -10.1605 C   0  0  0  0  0  0  0  0  0  0  0  0
  -13.6652  -41.6712  -10.8020 C   0  0  0  0  0  0  0  0  0  0  0  0
  -12.3561  -41.3709  -10.1997 C   0  0  0  0  0  0  0  0  0  0  0  0
  -14.1972  -39.9718   -9.0788 N   0  0  0  0  0  0  0  0  0  0  0  0
  -15.5334  -39.5736   -9.3384 C   0  0  0  0  0  0  0  0  0  0  0  0
  -16.3073  -39.4720   -8.0903 C   0  0  1  0  0  0  0  0  0  0  0  0
  -16.0617  -38.1956   -7.5138 O   0  0  0  0  0  0  0  0  0  0  0  0
  -17.8147  -39.6221   -8.2147 C   0  0  2  0  0  0  0  0  0  0  0  0
  -18.4280  -39.6868   -6.8332 C   0  0  0  0  0  0  0  0  0  0  0  0
  -19.8682  -39.3356   -6.7785 C   0  0  0  0  0  0  0  0  0  0  0  0
  -20.9846  -40.0701   -6.4370 C   0  0  0  0  0  0  0  0  0  0  0  0
  -22.2166  -39.4757   -6.5463 C   0  0  0  0  0  0  0  0  0  0  0  0
  -23.5958  -40.0438   -6.3128 C   0  0  0  0  0  0  0  0  0  0  0  0
  -24.1269  -40.8170   -7.4795 C   0  0  0  0  0  0  0  0  0  0  0  0
  -24.4811  -42.2463   -7.2104 C   0  0  0  0  0  0  0  0  0  0  0  0
  -23.5371  -43.0352   -6.3984 C   0  0  0  0  0  0  0  0  0  0  0  0
  -22.6614  -43.9372   -7.1031 N   0  0  0  0  0  0  0  0  0  0  0  0
  -21.3205  -43.7883   -7.5881 C   0  0  0  0  0  0  0  0  0  0  0  0
  -20.7070  -42.7694   -8.2753 C   0  0  0  0  0  0  0  0  0  0  0  0
  -19.3645  -42.8634   -8.5593 C   0  0  0  0  0  0  0  0  0  0  0  0
  -18.6557  -44.0084   -8.1421 C   0  0  0  0  0  0  0  0  0  0  0  0
  -19.2168  -45.0603   -7.4562 C   0  0  0  0  0  0  0  0  0  0  0  0
  -20.5554  -44.9121   -7.1975 C   0  0  0  0  0  0  0  0  0  0  0  0
  -18.4562  -46.2156   -7.0467 C   0  0  0  0  0  0  0  0  0  0  0  0
  -18.6042  -46.8921   -5.9050 N   0  0  0  0  0  0  0  0  0  0  0  0
  -17.6964  -47.9208   -5.8905 C   0  0  0  0  0  0  0  0  0  0  0  0
  -17.0182  -47.8091   -7.0721 C   0  0  0  0  0  0  0  0  0  0  0  0
  -17.5070  -46.7877   -7.7132 O   0  0  0  0  0  0  0  0  0  0  0  0
  -18.4452  -41.9258   -9.2396 C   0  0  0  0  0  0  0  0  0  0  0  0
  -17.5802  -42.4755  -10.0970 O   0  0  0  0  0  0  0  0  0  0  0  0
  -18.2571  -40.5352   -9.1969 N   0  0  0  0  0  0  0  0  0  0  0  0
  -22.3304  -38.1350   -6.9964 C   0  0  0  0  0  0  0  0  0  0  0  0
  -21.2442  -37.3729   -7.3413 C   0  0  0  0  0  0  0  0  0  0  0  0
  -20.0369  -37.9938   -7.2234 C   0  0  0  0  0  0  0  0  0  0  0  0
  1  2  1  0
  2  3  1  0
  2  4  1  0
  2  5  1  0
  5  6  2  0
  6  7  1  0
  7  8  2  0
  8  9  1  0
  9 10  2  0
  7 11  1  0
 11 12  1  0
 12 13  1  0
 11 14  1  0
 14 15  1  0
 15 16  1  0
 16 17  1  6
 16 18  1  0
 18 19  1  1
 19 20  1  0
 20 21  1  0
 21 22  2  0
 22 23  1  0
 23 24  1  0
 24 25  1  0
 25 26  1  0
 26 27  1  0
 27 28  1  0
 28 29  1  0
 29 30  2  0
 30 31  1  0
 31 32  2  0
 32 33  1  0
 32 34  1  0
 34 35  2  0
 35 36  1  0
 36 37  2  0
 37 38  1  0
 30 39  1  0
 39 40  2  0
 39 41  1  0
 22 42  1  0
 42 43  2  0
 43 44  1  0
 10  5  1  0
 13 11  1  0
 33 28  2  0
 38 34  1  0
 41 18  1  0
 44 20  2  0
M  END
$$$$
