
     RDKit          3D

 44 49  0  0  0  0  0  0  0  0999 V2000
  -21.9738  -45.1463   -5.6522 C   0  0  0  0  0  0  0  0  0  0  0  0
  -20.8718  -44.1435   -5.7817 C   0  0  0  0  0  0  0  0  0  0  0  0
  -20.2356  -44.2587   -7.1685 C   0  0  0  0  0  0  0  0  0  0  0  0
  -19.7647  -44.5430   -4.8017 C   0  0  0  0  0  0  0  0  0  0  0  0
  -21.2759  -42.7611   -5.5216 C   0  0  0  0  0  0  0  0  0  0  0  0
  -20.6216  -41.6446   -6.0108 C   0  0  0  0  0  0  0  0  0  0  0  0
  -21.0441  -40.3666   -5.7371 C   0  0  0  0  0  0  0  0  0  0  0  0
  -22.1313  -40.2151   -4.9666 N   0  0  0  0  0  0  0  0  0  0  0  0
  -22.8174  -41.2522   -4.4563 C   0  0  0  0  0  0  0  0  0  0  0  0
  -22.3857  -42.5372   -4.7363 C   0  0  0  0  0  0  0  0  0  0  0  0
  -20.3402  -39.1369   -6.2615 C   0  0  0  0  0  0  0  0  0  0  0  0
  -20.9298  -38.6541   -7.6183 C   0  0  0  0  0  0  0  0  0  0  0  0
  -21.0758  -37.8763   -6.3772 C   0  0  0  0  0  0  0  0  0  0  0  0
  -18.9351  -39.2954   -6.2955 N   0  0  0  0  0  0  0  0  0  0  0  0
  -18.1069  -38.1523   -6.4323 C   0  0  0  0  0  0  0  0  0  0  0  0
  -16.6828  -38.5214   -6.3817 C   0  0  1  0  0  0  0  0  0  0  0  0
  -16.5239  -39.5634   -5.4273 O   0  0  0  0  0  0  0  0  0  0  0  0
  -16.0636  -39.0094   -7.6813 C   0  0  2  0  0  0  0  0  0  0  0  0
  -16.1240  -37.9035   -8.7119 C   0  0  0  0  0  0  0  0  0  0  0  0
  -15.1488  -38.0379   -9.8215 C   0  0  0  0  0  0  0  0  0  0  0  0
  -15.3145  -38.2227  -11.1782 C   0  0  0  0  0  0  0  0  0  0  0  0
  -14.1963  -38.3768  -11.9584 C   0  0  0  0  0  0  0  0  0  0  0  0
  -14.0715  -38.6578  -13.4366 C   0  0  0  0  0  0  0  0  0  0  0  0
  -14.2244  -40.1062  -13.7826 C   0  0  0  0  0  0  0  0  0  0  0  0
  -15.3304  -40.4381  -14.7351 C   0  0  0  0  0  0  0  0  0  0  0  0
  -16.6285  -39.7731  -14.5217 C   0  0  0  0  0  0  0  0  0  0  0  0
  -17.6628  -40.5452  -13.8804 N   0  0  0  0  0  0  0  0  0  0  0  0
  -18.0719  -40.6488  -12.5103 C   0  0  0  0  0  0  0  0  0  0  0  0
  -17.3489  -40.7868  -11.3506 C   0  0  0  0  0  0  0  0  0  0  0  0
  -18.0089  -40.7920  -10.1439 C   0  0  0  0  0  0  0  0  0  0  0  0
  -19.4127  -40.6621  -10.1315 C   0  0  0  0  0  0  0  0  0  0  0  0
  -20.1885  -40.5257  -11.2591 C   0  0  0  0  0  0  0  0  0  0  0  0
  -19.4787  -40.5237  -12.4324 C   0  0  0  0  0  0  0  0  0  0  0  0
  -21.6241  -40.3954  -11.2039 C   0  0  0  0  0  0  0  0  0  0  0  0
  -22.3599  -39.4998  -11.8669 N   0  0  0  0  0  0  0  0  0  0  0  0
  -23.6790  -39.7019  -11.5478 C   0  0  0  0  0  0  0  0  0  0  0  0
  -23.6731  -40.7518  -10.6725 C   0  0  0  0  0  0  0  0  0  0  0  0
  -22.4363  -41.1205  -10.5061 O   0  0  0  0  0  0  0  0  0  0  0  0
  -17.5029  -40.8869   -8.7576 C   0  0  0  0  0  0  0  0  0  0  0  0
  -18.1991  -41.6769   -7.9348 O   0  0  0  0  0  0  0  0  0  0  0  0
  -16.4178  -40.3198   -8.0706 N   0  0  0  0  0  0  0  0  0  0  0  0
  -12.9030  -38.3410  -11.3760 C   0  0  0  0  0  0  0  0  0  0  0  0
  -12.6985  -38.1560  -10.0330 C   0  0  0  0  0  0  0  0  0  0  0  0
  -13.8294  -38.0087   -9.2872 C   0  0  0  0  0  0  0  0  0  0  0  0
  1  2  1  0
  2  3  1  0
  2  4  1  0
  2  5  1  0
  5  6  2  0
  6  7  1  0
  7  8  2  0
  8  9  1  0
  9 10  2  0
  7 11  1  0
 11 12  1  0
 12 13  1  0
 11 14  1  0
 14 15  1  0
 15 16  1  0
 16 17  1  1
 16 18  1  0
 18 19  1  6
 19 20  1  0
 20 21  1  0
 21 22  2  0
 22 23  1  0
 23 24  1  0
 24 25  1  0
 25 26  1  0
 26 27  1  0
 27 28  1  0
 28 29  1  0
 29 30  2  0
 30 31  1  0
 31 32  2  0
 32 33  1  0
 32 34  1  0
 34 35  2  0
 35 36  1  0
 36 37  2  0
 37 38  1  0
 30 39  1  0
 39 40  2  0
 39 41  1  0
 22 42  1  0
 42 43  2  0
 43 44  1  0
 10  5  1  0
 13 11  1  0
 33 28  2  0
 38 34  1  0
 41 18  1  0
 44 20  2  0
M  END
$$$$
