
     RDKit          3D

 44 49  0  0  0  0  0  0  0  0999 V2000
  -13.9784  -34.0354  -12.2901 C   0  0  0  0  0  0  0  0  0  0  0  0
  -13.3763  -34.4103  -10.9733 C   0  0  0  0  0  0  0  0  0  0  0  0
  -13.8330  -33.4187   -9.9012 C   0  0  0  0  0  0  0  0  0  0  0  0
  -11.8620  -34.2089  -11.0824 C   0  0  0  0  0  0  0  0  0  0  0  0
  -13.6549  -35.7825  -10.5475 C   0  0  0  0  0  0  0  0  0  0  0  0
  -14.5444  -36.6361  -11.1752 C   0  0  0  0  0  0  0  0  0  0  0  0
  -14.7682  -37.9178  -10.7346 C   0  0  0  0  0  0  0  0  0  0  0  0
  -14.0916  -38.3392   -9.6562 N   0  0  0  0  0  0  0  0  0  0  0  0
  -13.2123  -37.5666   -8.9954 C   0  0  0  0  0  0  0  0  0  0  0  0
  -12.9918  -36.2763   -9.4452 C   0  0  0  0  0  0  0  0  0  0  0  0
  -15.7373  -38.8619  -11.4071 C   0  0  0  0  0  0  0  0  0  0  0  0
  -17.1578  -38.2432  -11.5523 C   0  0  0  0  0  0  0  0  0  0  0  0
  -16.2964  -38.5142  -12.7148 C   0  0  0  0  0  0  0  0  0  0  0  0
  -15.7511  -40.1397  -10.8006 N   0  0  0  0  0  0  0  0  0  0  0  0
  -15.3463  -40.2746   -9.4481 C   0  0  0  0  0  0  0  0  0  0  0  0
  -16.0383  -41.3998   -8.7983 C   0  0  1  0  0  0  0  0  0  0  0  0
  -15.0701  -42.1878   -8.1175 O   0  0  0  0  0  0  0  0  0  0  0  0
  -17.1121  -41.0394   -7.7848 C   0  0  2  0  0  0  0  0  0  0  0  0
  -17.9301  -42.2703   -7.4616 C   0  0  0  0  0  0  0  0  0  0  0  0
  -18.6563  -42.2090   -6.1695 C   0  0  0  0  0  0  0  0  0  0  0  0
  -20.0018  -42.2132   -5.8663 C   0  0  0  0  0  0  0  0  0  0  0  0
  -20.3762  -42.0795   -4.5529 C   0  0  0  0  0  0  0  0  0  0  0  0
  -21.7516  -41.9829   -3.9376 C   0  0  0  0  0  0  0  0  0  0  0  0
  -22.3365  -40.6063   -3.9992 C   0  0  0  0  0  0  0  0  0  0  0  0
  -23.6419  -40.4819   -4.7211 C   0  0  0  0  0  0  0  0  0  0  0  0
  -23.7806  -41.2071   -5.9968 C   0  0  0  0  0  0  0  0  0  0  0  0
  -23.6427  -40.4367   -7.2070 N   0  0  0  0  0  0  0  0  0  0  0  0
  -22.5193  -40.1876   -8.0622 C   0  0  0  0  0  0  0  0  0  0  0  0
  -21.2178  -39.8487   -7.7828 C   0  0  0  0  0  0  0  0  0  0  0  0
  -20.3162  -39.7363   -8.8154 C   0  0  0  0  0  0  0  0  0  0  0  0
  -20.7557  -39.9660  -10.1351 C   0  0  0  0  0  0  0  0  0  0  0  0
  -22.0451  -40.3031  -10.4752 C   0  0  0  0  0  0  0  0  0  0  0  0
  -22.8995  -40.4043   -9.4073 C   0  0  0  0  0  0  0  0  0  0  0  0
  -22.4553  -40.5300  -11.8395 C   0  0  0  0  0  0  0  0  0  0  0  0
  -22.9406  -39.6123  -12.6792 N   0  0  0  0  0  0  0  0  0  0  0  0
  -23.2107  -40.2224  -13.8782 C   0  0  0  0  0  0  0  0  0  0  0  0
  -22.8610  -41.5310  -13.6945 C   0  0  0  0  0  0  0  0  0  0  0  0
  -22.4225  -41.6554  -12.4756 O   0  0  0  0  0  0  0  0  0  0  0  0
  -18.8702  -39.4267   -8.8161 C   0  0  0  0  0  0  0  0  0  0  0  0
  -18.4527  -38.5905   -9.7711 O   0  0  0  0  0  0  0  0  0  0  0  0
  -17.7845  -39.8195   -8.0173 N   0  0  0  0  0  0  0  0  0  0  0  0
  -19.3959  -41.9450   -3.5361 C   0  0  0  0  0  0  0  0  0  0  0  0
  -18.0502  -41.9399   -3.7983 C   0  0  0  0  0  0  0  0  0  0  0  0
  -17.7129  -42.0723   -5.1119 C   0  0  0  0  0  0  0  0  0  0  0  0
  1  2  1  0
  2  3  1  0
  2  4  1  0
  2  5  1  0
  5  6  2  0
  6  7  1  0
  7  8  2  0
  8  9  1  0
  9 10  2  0
  7 11  1  0
 11 12  1  0
 12 13  1  0
 11 14  1  0
 14 15  1  0
 15 16  1  0
 16 17  1  1
 16 18  1  0
 18 19  1  6
 19 20  1  0
 20 21  1  0
 21 22  2  0
 22 23  1  0
 23 24  1  0
 24 25  1  0
 25 26  1  0
 26 27  1  0
 27 28  1  0
 28 29  1  0
 29 30  2  0
 30 31  1  0
 31 32  2  0
 32 33  1  0
 32 34  1  0
 34 35  2  0
 35 36  1  0
 36 37  2  0
 37 38  1  0
 30 39  1  0
 39 40  2  0
 39 41  1  0
 22 42  1  0
 42 43  2  0
 43 44  1  0
 10  5  1  0
 13 11  1  0
 33 28  2  0
 38 34  1  0
 41 18  1  0
 44 20  2  0
M  END
$$$$
