
     RDKit          3D

 44 49  0  0  0  0  0  0  0  0999 V2000
  -13.6231  -37.6994  -13.3929 C   0  0  0  0  0  0  0  0  0  0  0  0
  -12.4604  -37.4818  -12.4776 C   0  0  0  0  0  0  0  0  0  0  0  0
  -12.7014  -36.2286  -11.6335 C   0  0  0  0  0  0  0  0  0  0  0  0
  -11.2436  -37.1487  -13.3459 C   0  0  0  0  0  0  0  0  0  0  0  0
  -12.1452  -38.6218  -11.6156 C   0  0  0  0  0  0  0  0  0  0  0  0
  -13.0831  -39.3732  -10.9302 C   0  0  0  0  0  0  0  0  0  0  0  0
  -12.7332  -40.4364  -10.1338 C   0  0  0  0  0  0  0  0  0  0  0  0
  -11.4317  -40.7420  -10.0290 N   0  0  0  0  0  0  0  0  0  0  0  0
  -10.4652  -40.0575  -10.6648 C   0  0  0  0  0  0  0  0  0  0  0  0
  -10.8253  -38.9875  -11.4655 C   0  0  0  0  0  0  0  0  0  0  0  0
  -13.7442  -41.2658   -9.3771 C   0  0  0  0  0  0  0  0  0  0  0  0
  -13.7241  -42.7599   -9.8116 C   0  0  0  0  0  0  0  0  0  0  0  0
  -13.2831  -42.3240   -8.4766 C   0  0  0  0  0  0  0  0  0  0  0  0
  -15.0394  -40.6982   -9.4124 N   0  0  0  0  0  0  0  0  0  0  0  0
  -15.2113  -39.3308   -9.0777 C   0  0  0  0  0  0  0  0  0  0  0  0
  -16.1731  -39.1728   -7.9745 C   0  0  1  0  0  0  0  0  0  0  0  0
  -15.8845  -37.9549   -7.2998 O   0  0  0  0  0  0  0  0  0  0  0  0
  -17.6430  -39.1318   -8.3589 C   0  0  2  0  0  0  0  0  0  0  0  0
  -18.3916  -38.2486   -7.3851 C   0  0  0  0  0  0  0  0  0  0  0  0
  -19.6799  -37.7185   -7.8950 C   0  0  0  0  0  0  0  0  0  0  0  0
  -20.9831  -37.9107   -7.4863 C   0  0  0  0  0  0  0  0  0  0  0  0
  -21.9890  -37.3229   -8.2113 C   0  0  0  0  0  0  0  0  0  0  0  0
  -23.4872  -37.4102   -8.0464 C   0  0  0  0  0  0  0  0  0  0  0  0
  -24.0834  -38.6388   -8.6597 C   0  0  0  0  0  0  0  0  0  0  0  0
  -24.8385  -39.5346   -7.7280 C   0  0  0  0  0  0  0  0  0  0  0  0
  -24.2344  -39.8029   -6.4104 C   0  0  0  0  0  0  0  0  0  0  0  0
  -23.5679  -41.0694   -6.2407 N   0  0  0  0  0  0  0  0  0  0  0  0
  -22.1940  -41.4556   -6.3766 C   0  0  0  0  0  0  0  0  0  0  0  0
  -21.2585  -41.1736   -7.3421 C   0  0  0  0  0  0  0  0  0  0  0  0
  -19.9700  -41.6272   -7.1822 C   0  0  0  0  0  0  0  0  0  0  0  0
  -19.6463  -42.3762   -6.0326 C   0  0  0  0  0  0  0  0  0  0  0  0
  -20.5405  -42.6928   -5.0365 C   0  0  0  0  0  0  0  0  0  0  0  0
  -21.8079  -42.2129   -5.2460 C   0  0  0  0  0  0  0  0  0  0  0  0
  -20.1692  -43.4626   -3.8743 C   0  0  0  0  0  0  0  0  0  0  0  0
  -20.9338  -43.6913   -2.8037 N   0  0  0  0  0  0  0  0  0  0  0  0
  -20.2219  -44.4629   -1.9203 C   0  0  0  0  0  0  0  0  0  0  0  0
  -19.0142  -44.6695   -2.5263 C   0  0  0  0  0  0  0  0  0  0  0  0
  -19.0386  -44.0576   -3.6745 O   0  0  0  0  0  0  0  0  0  0  0  0
  -18.7648  -41.4518   -8.0210 C   0  0  0  0  0  0  0  0  0  0  0  0
  -17.9968  -42.5348   -8.1732 O   0  0  0  0  0  0  0  0  0  0  0  0
  -18.2116  -40.3712   -8.7262 N   0  0  0  0  0  0  0  0  0  0  0  0
  -21.6868  -36.5335   -9.3509 C   0  0  0  0  0  0  0  0  0  0  0  0
  -20.4046  -36.3171   -9.7853 C   0  0  0  0  0  0  0  0  0  0  0  0
  -19.4305  -36.9166   -9.0446 C   0  0  0  0  0  0  0  0  0  0  0  0
  1  2  1  0
  2  3  1  0
  2  4  1  0
  2  5  1  0
  5  6  2  0
  6  7  1  0
  7  8  2  0
  8  9  1  0
  9 10  2  0
  7 11  1  0
 11 12  1  0
 12 13  1  0
 11 14  1  0
 14 15  1  0
 15 16  1  0
 16 17  1  6
 16 18  1  0
 18 19  1  1
 19 20  1  0
 20 21  1  0
 21 22  2  0
 22 23  1  0
 23 24  1  0
 24 25  1  0
 25 26  1  0
 26 27  1  0
 27 28  1  0
 28 29  1  0
 29 30  2  0
 30 31  1  0
 31 32  2  0
 32 33  1  0
 32 34  1  0
 34 35  2  0
 35 36  1  0
 36 37  2  0
 37 38  1  0
 30 39  1  0
 39 40  2  0
 39 41  1  0
 22 42  1  0
 42 43  2  0
 43 44  1  0
 10  5  1  0
 13 11  1  0
 33 28  2  0
 38 34  1  0
 41 18  1  0
 44 20  2  0
M  END
$$$$
