
     RDKit          3D

 44 49  0  0  0  0  0  0  0  0999 V2000
  -12.3145  -35.2892  -12.4099 C   0  0  0  0  0  0  0  0  0  0  0  0
  -13.1394  -36.1348  -11.4926 C   0  0  0  0  0  0  0  0  0  0  0  0
  -14.6244  -35.8838  -11.7626 C   0  0  0  0  0  0  0  0  0  0  0  0
  -12.9044  -35.6340  -10.0645 C   0  0  0  0  0  0  0  0  0  0  0  0
  -12.8461  -37.5671  -11.5600 C   0  0  0  0  0  0  0  0  0  0  0  0
  -13.6615  -38.5622  -11.0514 C   0  0  0  0  0  0  0  0  0  0  0  0
  -13.3394  -39.8944  -11.1426 C   0  0  0  0  0  0  0  0  0  0  0  0
  -12.1896  -40.2232  -11.7496 N   0  0  0  0  0  0  0  0  0  0  0  0
  -11.3480  -39.3117  -12.2670 C   0  0  0  0  0  0  0  0  0  0  0  0
  -11.6793  -37.9712  -12.1713 C   0  0  0  0  0  0  0  0  0  0  0  0
  -14.2174  -40.9932  -10.5909 C   0  0  0  0  0  0  0  0  0  0  0  0
  -15.4407  -41.2858  -11.5072 C   0  0  0  0  0  0  0  0  0  0  0  0
  -14.3465  -42.2533  -11.3251 C   0  0  0  0  0  0  0  0  0  0  0  0
  -14.5795  -40.7659   -9.2426 N   0  0  0  0  0  0  0  0  0  0  0  0
  -15.3488  -39.6218   -8.9101 C   0  0  0  0  0  0  0  0  0  0  0  0
  -16.0142  -39.7917   -7.6080 C   0  0  1  0  0  0  0  0  0  0  0  0
  -15.6868  -38.6763   -6.7891 O   0  0  0  0  0  0  0  0  0  0  0  0
  -17.5303  -39.8975   -7.6316 C   0  0  2  0  0  0  0  0  0  0  0  0
  -18.0405  -40.1040   -6.2224 C   0  0  0  0  0  0  0  0  0  0  0  0
  -19.4623  -39.7331   -6.0186 C   0  0  0  0  0  0  0  0  0  0  0  0
  -20.5703  -40.4791   -5.6748 C   0  0  0  0  0  0  0  0  0  0  0  0
  -21.7899  -39.8523   -5.6229 C   0  0  0  0  0  0  0  0  0  0  0  0
  -23.1633  -40.4159   -5.3476 C   0  0  0  0  0  0  0  0  0  0  0  0
  -23.8011  -41.0436   -6.5477 C   0  0  0  0  0  0  0  0  0  0  0  0
  -24.1741  -42.4867   -6.4107 C   0  0  0  0  0  0  0  0  0  0  0  0
  -23.1947  -43.3796   -5.7654 C   0  0  0  0  0  0  0  0  0  0  0  0
  -22.3994  -44.2143   -6.6303 N   0  0  0  0  0  0  0  0  0  0  0  0
  -21.0947  -44.0384   -7.1979 C   0  0  0  0  0  0  0  0  0  0  0  0
  -20.5059  -42.9613   -7.8143 C   0  0  0  0  0  0  0  0  0  0  0  0
  -19.1914  -43.0492   -8.2095 C   0  0  0  0  0  0  0  0  0  0  0  0
  -18.4857  -44.2472   -7.9764 C   0  0  0  0  0  0  0  0  0  0  0  0
  -19.0234  -45.3579   -7.3690 C   0  0  0  0  0  0  0  0  0  0  0  0
  -20.3343  -45.2134   -6.9932 C   0  0  0  0  0  0  0  0  0  0  0  0
  -18.2670  -46.5664   -7.1486 C   0  0  0  0  0  0  0  0  0  0  0  0
  -17.9274  -47.4636   -8.0774 N   0  0  0  0  0  0  0  0  0  0  0  0
  -17.2137  -48.4661   -7.4704 C   0  0  0  0  0  0  0  0  0  0  0  0
  -17.1561  -48.1093   -6.1521 C   0  0  0  0  0  0  0  0  0  0  0  0
  -17.7930  -46.9823   -6.0196 O   0  0  0  0  0  0  0  0  0  0  0  0
  -18.2994  -42.0597   -8.8516 C   0  0  0  0  0  0  0  0  0  0  0  0
  -17.5163  -42.5270   -9.8283 O   0  0  0  0  0  0  0  0  0  0  0  0
  -18.0698  -40.6865   -8.6711 N   0  0  0  0  0  0  0  0  0  0  0  0
  -21.8994  -38.4678   -5.9130 C   0  0  0  0  0  0  0  0  0  0  0  0
  -20.8210  -37.6933   -6.2548 C   0  0  0  0  0  0  0  0  0  0  0  0
  -19.6261  -38.3469   -6.2992 C   0  0  0  0  0  0  0  0  0  0  0  0
  1  2  1  0
  2  3  1  0
  2  4  1  0
  2  5  1  0
  5  6  2  0
  6  7  1  0
  7  8  2  0
  8  9  1  0
  9 10  2  0
  7 11  1  0
 11 12  1  0
 12 13  1  0
 11 14  1  0
 14 15  1  0
 15 16  1  0
 16 17  1  1
 16 18  1  0
 18 19  1  1
 19 20  1  0
 20 21  1  0
 21 22  2  0
 22 23  1  0
 23 24  1  0
 24 25  1  0
 25 26  1  0
 26 27  1  0
 27 28  1  0
 28 29  1  0
 29 30  2  0
 30 31  1  0
 31 32  2  0
 32 33  1  0
 32 34  1  0
 34 35  2  0
 35 36  1  0
 36 37  2  0
 37 38  1  0
 30 39  1  0
 39 40  2  0
 39 41  1  0
 22 42  1  0
 42 43  2  0
 43 44  1  0
 10  5  1  0
 13 11  1  0
 33 28  2  0
 38 34  1  0
 41 18  1  0
 44 20  2  0
M  END
$$$$
