
     RDKit          3D

 44 49  0  0  0  0  0  0  0  0999 V2000
  -13.4769  -35.2884  -12.1249 C   0  0  0  0  0  0  0  0  0  0  0  0
  -12.1791  -36.0283  -12.0531 C   0  0  0  0  0  0  0  0  0  0  0  0
  -11.3668  -35.5218  -10.8595 C   0  0  0  0  0  0  0  0  0  0  0  0
  -11.3572  -35.6421  -13.2864 C   0  0  0  0  0  0  0  0  0  0  0  0
  -12.3133  -37.4845  -11.9947 C   0  0  0  0  0  0  0  0  0  0  0  0
  -12.6637  -38.1977  -10.8623 C   0  0  0  0  0  0  0  0  0  0  0  0
  -12.7773  -39.5667  -10.8620 C   0  0  0  0  0  0  0  0  0  0  0  0
  -12.5362  -40.2180  -12.0092 N   0  0  0  0  0  0  0  0  0  0  0  0
  -12.1914  -39.5924  -13.1479 C   0  0  0  0  0  0  0  0  0  0  0  0
  -12.0789  -38.2128  -13.1406 C   0  0  0  0  0  0  0  0  0  0  0  0
  -13.1568  -40.3608   -9.6340 C   0  0  0  0  0  0  0  0  0  0  0  0
  -13.1028  -41.8957   -9.8851 C   0  0  0  0  0  0  0  0  0  0  0  0
  -12.1579  -41.2131   -8.9864 C   0  0  0  0  0  0  0  0  0  0  0  0
  -14.3856  -39.9355   -9.0775 N   0  0  0  0  0  0  0  0  0  0  0  0
  -14.9700  -40.6828   -8.0232 C   0  0  0  0  0  0  0  0  0  0  0  0
  -15.8355  -39.8332   -7.1889 C   0  0  1  0  0  0  0  0  0  0  0  0
  -15.2200  -38.5580   -7.0589 O   0  0  0  0  0  0  0  0  0  0  0  0
  -17.2472  -39.5965   -7.7003 C   0  0  2  0  0  0  0  0  0  0  0  0
  -18.1678  -39.3353   -6.5285 C   0  0  0  0  0  0  0  0  0  0  0  0
  -19.4182  -38.6150   -6.8727 C   0  0  0  0  0  0  0  0  0  0  0  0
  -20.7449  -38.9857   -6.8051 C   0  0  0  0  0  0  0  0  0  0  0  0
  -21.6935  -38.1064   -7.2634 C   0  0  0  0  0  0  0  0  0  0  0  0
  -23.1910  -38.2615   -7.3770 C   0  0  0  0  0  0  0  0  0  0  0  0
  -23.6219  -39.0002   -8.6057 C   0  0  0  0  0  0  0  0  0  0  0  0
  -24.4207  -40.2448   -8.3744 C   0  0  0  0  0  0  0  0  0  0  0  0
  -23.9641  -41.1523   -7.3064 C   0  0  0  0  0  0  0  0  0  0  0  0
  -23.2372  -42.3287   -7.7123 N   0  0  0  0  0  0  0  0  0  0  0  0
  -21.8335  -42.5946   -7.8319 C   0  0  0  0  0  0  0  0  0  0  0  0
  -20.8095  -41.8602   -8.3786 C   0  0  0  0  0  0  0  0  0  0  0  0
  -19.5216  -42.3355   -8.2930 C   0  0  0  0  0  0  0  0  0  0  0  0
  -19.2890  -43.5689   -7.6511 C   0  0  0  0  0  0  0  0  0  0  0  0
  -20.2735  -44.3488   -7.0903 C   0  0  0  0  0  0  0  0  0  0  0  0
  -21.5362  -43.8256   -7.2018 C   0  0  0  0  0  0  0  0  0  0  0  0
  -19.9939  -45.6066   -6.4416 C   0  0  0  0  0  0  0  0  0  0  0  0
  -19.0670  -46.4942   -6.8102 N   0  0  0  0  0  0  0  0  0  0  0  0
  -19.1144  -47.5556   -5.9420 C   0  0  0  0  0  0  0  0  0  0  0  0
  -20.1081  -47.2429   -5.0570 C   0  0  0  0  0  0  0  0  0  0  0  0
  -20.5915  -46.0841   -5.3989 O   0  0  0  0  0  0  0  0  0  0  0  0
  -18.2384  -41.7584   -8.7484 C   0  0  0  0  0  0  0  0  0  0  0  0
  -17.3846  -42.6125   -9.3204 O   0  0  0  0  0  0  0  0  0  0  0  0
  -17.6798  -40.4707   -8.7214 N   0  0  0  0  0  0  0  0  0  0  0  0
  -21.3104  -36.8453   -7.7887 C   0  0  0  0  0  0  0  0  0  0  0  0
  -20.0030  -36.4405   -7.8688 C   0  0  0  0  0  0  0  0  0  0  0  0
  -19.0869  -37.3378   -7.4076 C   0  0  0  0  0  0  0  0  0  0  0  0
  1  2  1  0
  2  3  1  0
  2  4  1  0
  2  5  1  0
  5  6  2  0
  6  7  1  0
  7  8  2  0
  8  9  1  0
  9 10  2  0
  7 11  1  0
 11 12  1  0
 12 13  1  0
 11 14  1  0
 14 15  1  0
 15 16  1  0
 16 17  1  6
 16 18  1  0
 18 19  1  1
 19 20  1  0
 20 21  1  0
 21 22  2  0
 22 23  1  0
 23 24  1  0
 24 25  1  0
 25 26  1  0
 26 27  1  0
 27 28  1  0
 28 29  1  0
 29 30  2  0
 30 31  1  0
 31 32  2  0
 32 33  1  0
 32 34  1  0
 34 35  2  0
 35 36  1  0
 36 37  2  0
 37 38  1  0
 30 39  1  0
 39 40  2  0
 39 41  1  0
 22 42  1  0
 42 43  2  0
 43 44  1  0
 10  5  1  0
 13 11  1  0
 33 28  2  0
 38 34  1  0
 41 18  1  0
 44 20  2  0
M  END
$$$$
