
     RDKit          3D

 44 49  0  0  0  0  0  0  0  0999 V2000
  -12.0405  -40.5267   -5.8199 C   0  0  0  0  0  0  0  0  0  0  0  0
  -11.2790  -40.9393   -7.0392 C   0  0  0  0  0  0  0  0  0  0  0  0
  -10.7413  -42.3593   -6.8505 C   0  0  0  0  0  0  0  0  0  0  0  0
  -10.0345  -40.0514   -7.1305 C   0  0  0  0  0  0  0  0  0  0  0  0
  -12.0362  -40.8450   -8.2882 C   0  0  0  0  0  0  0  0  0  0  0  0
  -13.2504  -41.4657   -8.5212 C   0  0  0  0  0  0  0  0  0  0  0  0
  -13.9215  -41.3431   -9.7134 C   0  0  0  0  0  0  0  0  0  0  0  0
  -13.3647  -40.5910  -10.6741 N   0  0  0  0  0  0  0  0  0  0  0  0
  -12.1886  -39.9588  -10.5196 C   0  0  0  0  0  0  0  0  0  0  0  0
  -11.5181  -40.0869   -9.3155 C   0  0  0  0  0  0  0  0  0  0  0  0
  -15.2469  -42.0157   -9.9849 C   0  0  0  0  0  0  0  0  0  0  0  0
  -15.2976  -42.6695  -11.3961 C   0  0  0  0  0  0  0  0  0  0  0  0
  -15.2985  -43.4683  -10.1598 C   0  0  0  0  0  0  0  0  0  0  0  0
  -16.3451  -41.1605   -9.7331 N   0  0  0  0  0  0  0  0  0  0  0  0
  -16.1500  -39.7558   -9.7329 C   0  0  0  0  0  0  0  0  0  0  0  0
  -17.0196  -39.1009   -8.7420 C   0  0  1  0  0  0  0  0  0  0  0  0
  -16.6629  -37.7262   -8.6724 O   0  0  0  0  0  0  0  0  0  0  0  0
  -18.5147  -39.1603   -9.0096 C   0  0  2  0  0  0  0  0  0  0  0  0
  -19.2132  -38.0966   -8.1914 C   0  0  0  0  0  0  0  0  0  0  0  0
  -20.5502  -37.7034   -8.7000 C   0  0  0  0  0  0  0  0  0  0  0  0
  -21.8135  -37.8178   -8.1585 C   0  0  0  0  0  0  0  0  0  0  0  0
  -22.8865  -37.4114   -8.9111 C   0  0  0  0  0  0  0  0  0  0  0  0
  -24.3653  -37.4782   -8.6140 C   0  0  0  0  0  0  0  0  0  0  0  0
  -24.9709  -38.8167   -8.9015 C   0  0  0  0  0  0  0  0  0  0  0  0
  -25.6292  -39.4993   -7.7434 C   0  0  0  0  0  0  0  0  0  0  0  0
  -24.9216  -39.4705   -6.4506 C   0  0  0  0  0  0  0  0  0  0  0  0
  -24.2092  -40.6632   -6.0668 N   0  0  0  0  0  0  0  0  0  0  0  0
  -22.8389  -41.0539   -6.2246 C   0  0  0  0  0  0  0  0  0  0  0  0
  -21.9861  -40.9759   -7.2985 C   0  0  0  0  0  0  0  0  0  0  0  0
  -20.6770  -41.3698   -7.1471 C   0  0  0  0  0  0  0  0  0  0  0  0
  -20.2479  -41.8499   -5.8929 C   0  0  0  0  0  0  0  0  0  0  0  0
  -21.0563  -41.9546   -4.7851 C   0  0  0  0  0  0  0  0  0  0  0  0
  -22.3488  -41.5455   -4.9921 C   0  0  0  0  0  0  0  0  0  0  0  0
  -20.5784  -42.4517   -3.5180 C   0  0  0  0  0  0  0  0  0  0  0  0
  -21.2160  -42.3683   -2.3478 N   0  0  0  0  0  0  0  0  0  0  0  0
  -20.4341  -42.9563   -1.3858 C   0  0  0  0  0  0  0  0  0  0  0  0
  -19.3182  -43.3823   -2.0504 C   0  0  0  0  0  0  0  0  0  0  0  0
  -19.4568  -43.0586   -3.3032 O   0  0  0  0  0  0  0  0  0  0  0  0
  -19.5428  -41.3656   -8.0961 C   0  0  0  0  0  0  0  0  0  0  0  0
  -18.7583  -42.4471   -8.0730 O   0  0  0  0  0  0  0  0  0  0  0  0
  -19.0741  -40.4560   -9.0573 N   0  0  0  0  0  0  0  0  0  0  0  0
  -22.6921  -36.8827  -10.2132 C   0  0  0  0  0  0  0  0  0  0  0  0
  -21.4523  -36.7505  -10.7834 C   0  0  0  0  0  0  0  0  0  0  0  0
  -20.4094  -37.1652  -10.0105 C   0  0  0  0  0  0  0  0  0  0  0  0
  1  2  1  0
  2  3  1  0
  2  4  1  0
  2  5  1  0
  5  6  2  0
  6  7  1  0
  7  8  2  0
  8  9  1  0
  9 10  2  0
  7 11  1  0
 11 12  1  0
 12 13  1  0
 11 14  1  0
 14 15  1  0
 15 16  1  0
 16 17  1  6
 16 18  1  0
 18 19  1  1
 19 20  1  0
 20 21  1  0
 21 22  2  0
 22 23  1  0
 23 24  1  0
 24 25  1  0
 25 26  1  0
 26 27  1  0
 27 28  1  0
 28 29  1  0
 29 30  2  0
 30 31  1  0
 31 32  2  0
 32 33  1  0
 32 34  1  0
 34 35  2  0
 35 36  1  0
 36 37  2  0
 37 38  1  0
 30 39  1  0
 39 40  2  0
 39 41  1  0
 22 42  1  0
 42 43  2  0
 43 44  1  0
 10  5  1  0
 13 11  1  0
 33 28  2  0
 38 34  1  0
 41 18  1  0
 44 20  2  0
M  END
$$$$
