
     RDKit          3D

 44 49  0  0  0  0  0  0  0  0999 V2000
  -12.2522  -34.5115  -12.4698 C   0  0  0  0  0  0  0  0  0  0  0  0
  -13.2676  -35.3290  -11.7366 C   0  0  0  0  0  0  0  0  0  0  0  0
  -14.6572  -35.0600  -12.3178 C   0  0  0  0  0  0  0  0  0  0  0  0
  -13.3304  -34.8078  -10.2979 C   0  0  0  0  0  0  0  0  0  0  0  0
  -12.9931  -36.7664  -11.7215 C   0  0  0  0  0  0  0  0  0  0  0  0
  -13.6998  -37.6949  -10.9782 C   0  0  0  0  0  0  0  0  0  0  0  0
  -13.4013  -39.0355  -11.0012 C   0  0  0  0  0  0  0  0  0  0  0  0
  -12.3854  -39.4403  -11.7774 N   0  0  0  0  0  0  0  0  0  0  0  0
  -11.6546  -38.5964  -12.5262 C   0  0  0  0  0  0  0  0  0  0  0  0
  -11.9613  -37.2470  -12.4981 C   0  0  0  0  0  0  0  0  0  0  0  0
  -14.1614  -40.0620  -10.1943 C   0  0  0  0  0  0  0  0  0  0  0  0
  -15.5140  -40.4499  -10.8589 C   0  0  0  0  0  0  0  0  0  0  0  0
  -14.3911  -41.3957  -10.7529 C   0  0  0  0  0  0  0  0  0  0  0  0
  -14.3011  -39.6838   -8.8385 N   0  0  0  0  0  0  0  0  0  0  0  0
  -15.4676  -38.9922   -8.4236 C   0  0  0  0  0  0  0  0  0  0  0  0
  -16.1826  -39.7408   -7.3770 C   0  0  1  0  0  0  0  0  0  0  0  0
  -15.7606  -39.2529   -6.1099 O   0  0  0  0  0  0  0  0  0  0  0  0
  -17.7002  -39.6587   -7.4033 C   0  0  2  0  0  0  0  0  0  0  0  0
  -18.2454  -40.0157   -6.0380 C   0  0  0  0  0  0  0  0  0  0  0  0
  -19.6143  -39.5121   -5.7673 C   0  0  0  0  0  0  0  0  0  0  0  0
  -20.8072  -40.1632   -5.5323 C   0  0  0  0  0  0  0  0  0  0  0  0
  -21.9431  -39.4096   -5.3743 C   0  0  0  0  0  0  0  0  0  0  0  0
  -23.3769  -39.8394   -5.1766 C   0  0  0  0  0  0  0  0  0  0  0  0
  -24.0737  -40.1944   -6.4531 C   0  0  0  0  0  0  0  0  0  0  0  0
  -24.6188  -41.5860   -6.5357 C   0  0  0  0  0  0  0  0  0  0  0  0
  -23.7603  -42.6785   -6.0435 C   0  0  0  0  0  0  0  0  0  0  0  0
  -23.0626  -43.4603   -7.0331 N   0  0  0  0  0  0  0  0  0  0  0  0
  -21.7407  -43.3578   -7.5784 C   0  0  0  0  0  0  0  0  0  0  0  0
  -21.0206  -42.2778   -8.0275 C   0  0  0  0  0  0  0  0  0  0  0  0
  -19.7224  -42.4615   -8.4430 C   0  0  0  0  0  0  0  0  0  0  0  0
  -19.1682  -43.7572   -8.4026 C   0  0  0  0  0  0  0  0  0  0  0  0
  -19.8415  -44.8750   -7.9679 C   0  0  0  0  0  0  0  0  0  0  0  0
  -21.1291  -44.6332   -7.5629 C   0  0  0  0  0  0  0  0  0  0  0  0
  -19.2380  -46.1851   -7.9420 C   0  0  0  0  0  0  0  0  0  0  0  0
  -18.9584  -46.9023   -6.8510 N   0  0  0  0  0  0  0  0  0  0  0  0
  -18.3924  -48.0882   -7.2457 C   0  0  0  0  0  0  0  0  0  0  0  0
  -18.3570  -48.0248   -8.6108 C   0  0  0  0  0  0  0  0  0  0  0  0
  -18.8677  -46.8819   -8.9665 O   0  0  0  0  0  0  0  0  0  0  0  0
  -18.7116  -41.4999   -8.9336 C   0  0  0  0  0  0  0  0  0  0  0  0
  -17.9807  -41.9028   -9.9772 O   0  0  0  0  0  0  0  0  0  0  0  0
  -18.3204  -40.2083   -8.5467 N   0  0  0  0  0  0  0  0  0  0  0  0
  -21.8825  -37.9941   -5.4477 C   0  0  0  0  0  0  0  0  0  0  0  0
  -20.7155  -37.3117   -5.6761 C   0  0  0  0  0  0  0  0  0  0  0  0
  -19.6075  -38.0898   -5.8307 C   0  0  0  0  0  0  0  0  0  0  0  0
  1  2  1  0
  2  3  1  0
  2  4  1  0
  2  5  1  0
  5  6  2  0
  6  7  1  0
  7  8  2  0
  8  9  1  0
  9 10  2  0
  7 11  1  0
 11 12  1  0
 12 13  1  0
 11 14  1  0
 14 15  1  0
 15 16  1  0
 16 17  1  1
 16 18  1  0
 18 19  1  1
 19 20  1  0
 20 21  1  0
 21 22  2  0
 22 23  1  0
 23 24  1  0
 24 25  1  0
 25 26  1  0
 26 27  1  0
 27 28  1  0
 28 29  1  0
 29 30  2  0
 30 31  1  0
 31 32  2  0
 32 33  1  0
 32 34  1  0
 34 35  2  0
 35 36  1  0
 36 37  2  0
 37 38  1  0
 30 39  1  0
 39 40  2  0
 39 41  1  0
 22 42  1  0
 42 43  2  0
 43 44  1  0
 10  5  1  0
 13 11  1  0
 33 28  2  0
 38 34  1  0
 41 18  1  0
 44 20  2  0
M  END
$$$$
