
     RDKit          3D

 44 49  0  0  0  0  0  0  0  0999 V2000
  -16.2689  -44.8934   -9.9353 C   0  0  0  0  0  0  0  0  0  0  0  0
  -15.2094  -44.5815  -10.9439 C   0  0  0  0  0  0  0  0  0  0  0  0
  -15.5488  -45.2645  -12.2703 C   0  0  0  0  0  0  0  0  0  0  0  0
  -13.9126  -45.2470  -10.4741 C   0  0  0  0  0  0  0  0  0  0  0  0
  -14.9740  -43.1524  -11.1543 C   0  0  0  0  0  0  0  0  0  0  0  0
  -14.3297  -42.3203  -10.2563 C   0  0  0  0  0  0  0  0  0  0  0  0
  -14.1331  -40.9836  -10.5039 C   0  0  0  0  0  0  0  0  0  0  0  0
  -14.5887  -40.4850  -11.6625 N   0  0  0  0  0  0  0  0  0  0  0  0
  -15.2235  -41.2321  -12.5819 C   0  0  0  0  0  0  0  0  0  0  0  0
  -15.4180  -42.5784  -12.3256 C   0  0  0  0  0  0  0  0  0  0  0  0
  -13.4335  -40.0609   -9.5334 C   0  0  0  0  0  0  0  0  0  0  0  0
  -11.9350  -39.8505   -9.8964 C   0  0  0  0  0  0  0  0  0  0  0  0
  -12.9277  -38.7687  -10.0003 C   0  0  0  0  0  0  0  0  0  0  0  0
  -13.6258  -40.4508   -8.1874 N   0  0  0  0  0  0  0  0  0  0  0  0
  -14.8694  -41.0070   -7.7929 C   0  0  0  0  0  0  0  0  0  0  0  0
  -15.7351  -39.9862   -7.1801 C   0  0  1  0  0  0  0  0  0  0  0  0
  -15.0820  -38.7270   -7.2793 O   0  0  0  0  0  0  0  0  0  0  0  0
  -17.1187  -39.8195   -7.7868 C   0  0  2  0  0  0  0  0  0  0  0  0
  -17.9034  -38.8110   -6.9769 C   0  0  0  0  0  0  0  0  0  0  0  0
  -19.0369  -38.1841   -7.6999 C   0  0  0  0  0  0  0  0  0  0  0  0
  -20.3993  -38.2204   -7.4883 C   0  0  0  0  0  0  0  0  0  0  0  0
  -21.2170  -37.5769   -8.3829 C   0  0  0  0  0  0  0  0  0  0  0  0
  -22.7238  -37.5034   -8.4462 C   0  0  0  0  0  0  0  0  0  0  0  0
  -23.3519  -38.6989   -9.0921 C   0  0  0  0  0  0  0  0  0  0  0  0
  -24.3291  -39.4592   -8.2509 C   0  0  0  0  0  0  0  0  0  0  0  0
  -23.9595  -39.7108   -6.8463 C   0  0  0  0  0  0  0  0  0  0  0  0
  -23.4665  -41.0261   -6.5240 N   0  0  0  0  0  0  0  0  0  0  0  0
  -22.1375  -41.5558   -6.4313 C   0  0  0  0  0  0  0  0  0  0  0  0
  -21.0444  -41.4252   -7.2528 C   0  0  0  0  0  0  0  0  0  0  0  0
  -19.8505  -41.9963   -6.8784 C   0  0  0  0  0  0  0  0  0  0  0  0
  -19.7837  -42.7069   -5.6626 C   0  0  0  0  0  0  0  0  0  0  0  0
  -20.8445  -42.8742   -4.8033 C   0  0  0  0  0  0  0  0  0  0  0  0
  -22.0074  -42.2820   -5.2245 C   0  0  0  0  0  0  0  0  0  0  0  0
  -20.7351  -43.6094   -3.5669 C   0  0  0  0  0  0  0  0  0  0  0  0
  -21.2465  -43.2482   -2.3876 N   0  0  0  0  0  0  0  0  0  0  0  0
  -20.9256  -44.2103   -1.4635 C   0  0  0  0  0  0  0  0  0  0  0  0
  -20.2071  -45.1419   -2.1596 C   0  0  0  0  0  0  0  0  0  0  0  0
  -20.1257  -44.7368   -3.3935 O   0  0  0  0  0  0  0  0  0  0  0  0
  -18.5224  -41.9916   -7.5290 C   0  0  0  0  0  0  0  0  0  0  0  0
  -17.8621  -43.1533   -7.5164 O   0  0  0  0  0  0  0  0  0  0  0  0
  -17.7572  -41.0144   -8.1852 N   0  0  0  0  0  0  0  0  0  0  0  0
  -20.6658  -36.8887   -9.4943 C   0  0  0  0  0  0  0  0  0  0  0  0
  -19.3175  -36.8277   -9.7356 C   0  0  0  0  0  0  0  0  0  0  0  0
  -18.5345  -37.4787   -8.8300 C   0  0  0  0  0  0  0  0  0  0  0  0
  1  2  1  0
  2  3  1  0
  2  4  1  0
  2  5  1  0
  5  6  2  0
  6  7  1  0
  7  8  2  0
  8  9  1  0
  9 10  2  0
  7 11  1  0
 11 12  1  0
 12 13  1  0
 11 14  1  0
 14 15  1  0
 15 16  1  0
 16 17  1  6
 16 18  1  0
 18 19  1  1
 19 20  1  0
 20 21  1  0
 21 22  2  0
 22 23  1  0
 23 24  1  0
 24 25  1  0
 25 26  1  0
 26 27  1  0
 27 28  1  0
 28 29  1  0
 29 30  2  0
 30 31  1  0
 31 32  2  0
 32 33  1  0
 32 34  1  0
 34 35  2  0
 35 36  1  0
 36 37  2  0
 37 38  1  0
 30 39  1  0
 39 40  2  0
 39 41  1  0
 22 42  1  0
 42 43  2  0
 43 44  1  0
 10  5  1  0
 13 11  1  0
 33 28  2  0
 38 34  1  0
 41 18  1  0
 44 20  2  0
M  END
$$$$
