
     RDKit          3D

 44 49  0  0  0  0  0  0  0  0999 V2000
  -17.2739  -35.6346  -11.9576 C   0  0  0  0  0  0  0  0  0  0  0  0
  -15.8533  -35.2444  -11.7003 C   0  0  0  0  0  0  0  0  0  0  0  0
  -15.7293  -34.6647  -10.2897 C   0  0  0  0  0  0  0  0  0  0  0  0
  -15.5149  -34.0825  -12.6390 C   0  0  0  0  0  0  0  0  0  0  0  0
  -14.8833  -36.3233  -11.8929 C   0  0  0  0  0  0  0  0  0  0  0  0
  -14.9427  -37.5559  -11.2675 C   0  0  0  0  0  0  0  0  0  0  0  0
  -14.0053  -38.5362  -11.4850 C   0  0  0  0  0  0  0  0  0  0  0  0
  -13.0042  -38.2710  -12.3369 N   0  0  0  0  0  0  0  0  0  0  0  0
  -12.8816  -37.0971  -12.9802 C   0  0  0  0  0  0  0  0  0  0  0  0
  -13.8299  -36.1141  -12.7561 C   0  0  0  0  0  0  0  0  0  0  0  0
  -14.0543  -39.8864  -10.8089 C   0  0  0  0  0  0  0  0  0  0  0  0
  -13.8373  -41.0559  -11.8123 C   0  0  0  0  0  0  0  0  0  0  0  0
  -12.8519  -40.7208  -10.7716 C   0  0  0  0  0  0  0  0  0  0  0  0
  -15.2138  -40.0482  -10.0151 N   0  0  0  0  0  0  0  0  0  0  0  0
  -15.1312  -40.7727   -8.7987 C   0  0  0  0  0  0  0  0  0  0  0  0
  -15.9606  -40.1496   -7.7543 C   0  0  1  0  0  0  0  0  0  0  0  0
  -15.5583  -38.7932   -7.6129 O   0  0  0  0  0  0  0  0  0  0  0  0
  -17.4615  -40.1465   -7.9943 C   0  0  2  0  0  0  0  0  0  0  0  0
  -18.1791  -39.9287   -6.6804 C   0  0  0  0  0  0  0  0  0  0  0  0
  -19.5642  -39.4135   -6.8098 C   0  0  0  0  0  0  0  0  0  0  0  0
  -20.7859  -39.9563   -6.4708 C   0  0  0  0  0  0  0  0  0  0  0  0
  -21.9223  -39.2510   -6.7775 C   0  0  0  0  0  0  0  0  0  0  0  0
  -23.3753  -39.6176   -6.5931 C   0  0  0  0  0  0  0  0  0  0  0  0
  -23.9107  -40.4962   -7.6805 C   0  0  0  0  0  0  0  0  0  0  0  0
  -24.4598  -41.8181   -7.2427 C   0  0  0  0  0  0  0  0  0  0  0  0
  -23.6849  -42.5740   -6.2422 C   0  0  0  0  0  0  0  0  0  0  0  0
  -22.8789  -43.6663   -6.7262 N   0  0  0  0  0  0  0  0  0  0  0  0
  -21.4976  -43.7457   -7.1018 C   0  0  0  0  0  0  0  0  0  0  0  0
  -20.7121  -42.9200   -7.8687 C   0  0  0  0  0  0  0  0  0  0  0  0
  -19.3746  -43.2070   -8.0112 C   0  0  0  0  0  0  0  0  0  0  0  0
  -18.8475  -44.3466   -7.3702 C   0  0  0  0  0  0  0  0  0  0  0  0
  -19.5852  -45.2107   -6.5950 C   0  0  0  0  0  0  0  0  0  0  0  0
  -20.9102  -44.8749   -6.4849 C   0  0  0  0  0  0  0  0  0  0  0  0
  -19.0076  -46.3676   -5.9553 C   0  0  0  0  0  0  0  0  0  0  0  0
  -19.6011  -47.5513   -5.7835 N   0  0  0  0  0  0  0  0  0  0  0  0
  -18.7250  -48.3848   -5.1352 C   0  0  0  0  0  0  0  0  0  0  0  0
  -17.6009  -47.6318   -4.9400 C   0  0  0  0  0  0  0  0  0  0  0  0
  -17.8234  -46.4523   -5.4427 O   0  0  0  0  0  0  0  0  0  0  0  0
  -18.2972  -42.4946   -8.7314 C   0  0  0  0  0  0  0  0  0  0  0  0
  -17.4463  -43.2633   -9.4174 O   0  0  0  0  0  0  0  0  0  0  0  0
  -17.9403  -41.1440   -8.8717 N   0  0  0  0  0  0  0  0  0  0  0  0
  -21.8338  -37.9913   -7.4242 C   0  0  0  0  0  0  0  0  0  0  0  0
  -20.6382  -37.4183   -7.7733 C   0  0  0  0  0  0  0  0  0  0  0  0
  -19.5302  -38.1456   -7.4566 C   0  0  0  0  0  0  0  0  0  0  0  0
  1  2  1  0
  2  3  1  0
  2  4  1  0
  2  5  1  0
  5  6  2  0
  6  7  1  0
  7  8  2  0
  8  9  1  0
  9 10  2  0
  7 11  1  0
 11 12  1  0
 12 13  1  0
 11 14  1  0
 14 15  1  0
 15 16  1  0
 16 17  1  6
 16 18  1  0
 18 19  1  1
 19 20  1  0
 20 21  1  0
 21 22  2  0
 22 23  1  0
 23 24  1  0
 24 25  1  0
 25 26  1  0
 26 27  1  0
 27 28  1  0
 28 29  1  0
 29 30  2  0
 30 31  1  0
 31 32  2  0
 32 33  1  0
 32 34  1  0
 34 35  2  0
 35 36  1  0
 36 37  2  0
 37 38  1  0
 30 39  1  0
 39 40  2  0
 39 41  1  0
 22 42  1  0
 42 43  2  0
 43 44  1  0
 10  5  1  0
 13 11  1  0
 33 28  2  0
 38 34  1  0
 41 18  1  0
 44 20  2  0
M  END
$$$$
