
     RDKit          3D

 39 42  0  0  0  0  0  0  0  0999 V2000
  -18.6492  -47.4693   -8.7205 C   0  0  0  0  0  0  0  0  0  0  0  0
  -18.6858  -46.2723   -9.4705 O   0  0  0  0  0  0  0  0  0  0  0  0
  -18.9067  -45.0626   -8.8133 C   0  0  0  0  0  0  0  0  0  0  0  0
  -18.2054  -43.9272   -9.1560 C   0  0  0  0  0  0  0  0  0  0  0  0
  -18.3749  -42.6668   -8.5344 C   0  0  0  0  0  0  0  0  0  0  0  0
  -19.3020  -42.5776   -7.5210 C   0  0  0  0  0  0  0  0  0  0  0  0
  -20.0043  -43.7017   -7.1768 C   0  0  0  0  0  0  0  0  0  0  0  0
  -19.7719  -44.8960   -7.8413 N   0  0  0  0  0  0  0  0  0  0  0  0
  -21.0507  -43.9485   -6.2220 N   0  0  0  0  0  0  0  0  0  0  0  0
  -20.9544  -45.1416   -5.3419 C   0  0  0  0  0  0  0  0  0  0  0  0
  -22.2698  -43.1986   -6.0019 C   0  0  0  0  0  0  0  0  0  0  0  0
  -22.1634  -41.8348   -6.6495 C   0  0  0  0  0  0  0  0  0  0  0  0
  -23.4592  -41.1706   -6.9485 C   0  0  0  0  0  0  0  0  0  0  0  0
  -23.1952  -39.7216   -7.2175 C   0  0  0  0  0  0  0  0  0  0  0  0
  -21.8020  -39.2327   -7.0113 C   0  0  0  0  0  0  0  0  0  0  0  0
  -21.6689  -38.7329   -5.6898 C   0  0  0  0  0  0  0  0  0  0  0  0
  -20.5240  -38.1583   -5.2074 C   0  0  0  0  0  0  0  0  0  0  0  0
  -19.4982  -38.0952   -6.1025 C   0  0  0  0  0  0  0  0  0  0  0  0
  -19.5493  -38.5702   -7.4382 C   0  0  0  0  0  0  0  0  0  0  0  0
  -18.2899  -38.2611   -8.1419 C   0  0  0  0  0  0  0  0  0  0  0  0
  -17.1779  -39.2165   -8.2356 C   0  0  2  0  0  0  0  0  0  0  0  0
  -17.4896  -40.2643   -9.1986 N   0  0  0  0  0  0  0  0  0  0  0  0
  -17.4986  -41.6524   -9.1516 C   0  0  0  0  0  0  0  0  0  0  0  0
  -16.4462  -42.1138   -9.8486 O   0  0  0  0  0  0  0  0  0  0  0  0
  -16.4408  -39.6640   -7.0667 C   0  0  2  0  0  0  0  0  0  0  0  0
  -16.7139  -38.9191   -5.8912 O   0  0  0  0  0  0  0  0  0  0  0  0
  -15.0276  -40.0027   -7.0303 C   0  0  0  0  0  0  0  0  0  0  0  0
  -14.1457  -39.8412   -8.0894 N   0  0  0  0  0  0  0  0  0  0  0  0
  -13.7472  -38.6525   -8.6719 C   0  0  0  0  0  0  0  0  0  0  0  0
  -14.5218  -38.3509   -9.9431 C   0  0  0  0  0  0  0  0  0  0  0  0
  -14.6522  -39.2773  -10.9458 C   0  0  0  0  0  0  0  0  0  0  0  0
  -15.3545  -39.0202  -12.1097 C   0  0  0  0  0  0  0  0  0  0  0  0
  -15.9401  -37.7740  -12.2472 C   0  0  0  0  0  0  0  0  0  0  0  0
  -15.8314  -36.8175  -11.2630 C   0  0  0  0  0  0  0  0  0  0  0  0
  -15.1186  -37.1253  -10.1194 C   0  0  0  0  0  0  0  0  0  0  0  0
  -16.4557  -35.4939  -11.4077 C   0  0  0  0  0  0  0  0  0  0  0  0
  -17.5188  -35.2567  -10.3609 C   0  0  0  0  0  0  0  0  0  0  0  0
  -15.4295  -34.3730  -11.2948 C   0  0  0  0  0  0  0  0  0  0  0  0
  -20.7344  -39.1471   -7.8649 C   0  0  0  0  0  0  0  0  0  0  0  0
  1  2  1  0
  2  3  1  0
  3  4  2  0
  4  5  1  0
  5  6  2  0
  6  7  1  0
  7  8  2  0
  7  9  1  0
  9 10  1  0
  9 11  1  0
 11 12  1  0
 12 13  1  0
 13 14  1  0
 14 15  1  0
 15 16  1  0
 16 17  2  0
 17 18  1  0
 18 19  2  0
 19 20  1  0
 21 20  1  1
 21 22  1  0
 22 23  1  0
 23 24  2  0
 21 25  1  0
 25 26  1  1
 25 27  1  0
 27 28  1  0
 28 29  1  0
 29 30  1  0
 30 31  2  0
 31 32  1  0
 32 33  2  0
 33 34  1  0
 34 35  2  0
 34 36  1  0
 36 37  1  0
 36 38  1  0
 19 39  1  0
  8  3  1  0
 23  5  1  0
 35 30  1  0
 39 15  2  0
M  END
$$$$
