
     RDKit          3D

 39 42  0  0  0  0  0  0  0  0999 V2000
  -18.3819  -47.3119   -8.0024 C   0  0  0  0  0  0  0  0  0  0  0  0
  -18.2906  -46.2436   -8.9227 O   0  0  0  0  0  0  0  0  0  0  0  0
  -18.6832  -44.9661   -8.5252 C   0  0  0  0  0  0  0  0  0  0  0  0
  -18.0426  -43.8433   -9.0020 C   0  0  0  0  0  0  0  0  0  0  0  0
  -18.3844  -42.5172   -8.6438 C   0  0  0  0  0  0  0  0  0  0  0  0
  -19.4254  -42.3460   -7.7597 C   0  0  0  0  0  0  0  0  0  0  0  0
  -20.0680  -43.4576   -7.2836 C   0  0  0  0  0  0  0  0  0  0  0  0
  -19.6644  -44.7201   -7.6899 N   0  0  0  0  0  0  0  0  0  0  0  0
  -21.1929  -43.6379   -6.4063 N   0  0  0  0  0  0  0  0  0  0  0  0
  -21.1005  -44.6424   -5.3155 C   0  0  0  0  0  0  0  0  0  0  0  0
  -22.4864  -42.9881   -6.4486 C   0  0  0  0  0  0  0  0  0  0  0  0
  -22.4186  -41.7552   -7.3237 C   0  0  0  0  0  0  0  0  0  0  0  0
  -23.7218  -41.2880   -7.8653 C   0  0  0  0  0  0  0  0  0  0  0  0
  -23.5481  -39.8894   -8.3705 C   0  0  0  0  0  0  0  0  0  0  0  0
  -22.2323  -39.2336   -8.1235 C   0  0  0  0  0  0  0  0  0  0  0  0
  -22.2923  -38.4993   -6.9107 C   0  0  0  0  0  0  0  0  0  0  0  0
  -21.2607  -37.7363   -6.4336 C   0  0  0  0  0  0  0  0  0  0  0  0
  -20.1481  -37.7277   -7.2206 C   0  0  0  0  0  0  0  0  0  0  0  0
  -20.0074  -38.4319   -8.4439 C   0  0  0  0  0  0  0  0  0  0  0  0
  -18.7054  -38.1251   -9.0665 C   0  0  0  0  0  0  0  0  0  0  0  0
  -17.5156  -38.9648   -8.8730 C   0  0  2  0  0  0  0  0  0  0  0  0
  -17.6286  -40.1911   -9.6513 N   0  0  0  0  0  0  0  0  0  0  0  0
  -17.5293  -41.5432   -9.3495 C   0  0  0  0  0  0  0  0  0  0  0  0
  -16.3701  -42.0107   -9.8432 O   0  0  0  0  0  0  0  0  0  0  0  0
  -16.8826  -39.1238   -7.5753 C   0  0  2  0  0  0  0  0  0  0  0  0
  -17.4438  -38.3137   -6.5555 O   0  0  0  0  0  0  0  0  0  0  0  0
  -15.4512  -39.1789   -7.3279 C   0  0  0  0  0  0  0  0  0  0  0  0
  -14.5811  -40.0930   -7.9048 N   0  0  0  0  0  0  0  0  0  0  0  0
  -14.4171  -40.3560   -9.2521 C   0  0  0  0  0  0  0  0  0  0  0  0
  -14.8713  -39.1956  -10.1206 C   0  0  0  0  0  0  0  0  0  0  0  0
  -15.9078  -39.3219  -11.0095 C   0  0  0  0  0  0  0  0  0  0  0  0
  -16.3352  -38.2759  -11.8077 C   0  0  0  0  0  0  0  0  0  0  0  0
  -15.6776  -37.0641  -11.6888 C   0  0  0  0  0  0  0  0  0  0  0  0
  -14.6326  -36.8980  -10.8080 C   0  0  0  0  0  0  0  0  0  0  0  0
  -14.2449  -37.9753  -10.0335 C   0  0  0  0  0  0  0  0  0  0  0  0
  -13.9352  -35.6098  -10.6796 C   0  0  0  0  0  0  0  0  0  0  0  0
  -13.2331  -35.2210  -11.9595 C   0  0  0  0  0  0  0  0  0  0  0  0
  -14.8955  -34.4849  -10.3123 C   0  0  0  0  0  0  0  0  0  0  0  0
  -21.0848  -39.1914   -8.8700 C   0  0  0  0  0  0  0  0  0  0  0  0
  1  2  1  0
  2  3  1  0
  3  4  2  0
  4  5  1  0
  5  6  2  0
  6  7  1  0
  7  8  2  0
  7  9  1  0
  9 10  1  0
  9 11  1  0
 11 12  1  0
 12 13  1  0
 13 14  1  0
 14 15  1  0
 15 16  1  0
 16 17  2  0
 17 18  1  0
 18 19  2  0
 19 20  1  0
 21 20  1  1
 21 22  1  0
 22 23  1  0
 23 24  2  0
 21 25  1  0
 25 26  1  1
 25 27  1  0
 27 28  1  0
 28 29  1  0
 29 30  1  0
 30 31  2  0
 31 32  1  0
 32 33  2  0
 33 34  1  0
 34 35  2  0
 34 36  1  0
 36 37  1  0
 36 38  1  0
 19 39  1  0
  8  3  1  0
 23  5  1  0
 35 30  1  0
 39 15  2  0
M  END
$$$$
