
     RDKit          3D

 39 42  0  0  0  0  0  0  0  0999 V2000
  -18.4343  -47.6453   -8.3787 C   0  0  0  0  0  0  0  0  0  0  0  0
  -18.7157  -46.5681   -9.2486 O   0  0  0  0  0  0  0  0  0  0  0  0
  -19.0173  -45.3179   -8.7100 C   0  0  0  0  0  0  0  0  0  0  0  0
  -18.6492  -44.1569   -9.3542 C   0  0  0  0  0  0  0  0  0  0  0  0
  -18.9197  -42.8550   -8.8689 C   0  0  0  0  0  0  0  0  0  0  0  0
  -19.5942  -42.7498   -7.6737 C   0  0  0  0  0  0  0  0  0  0  0  0
  -19.9652  -43.8996   -7.0292 C   0  0  0  0  0  0  0  0  0  0  0  0
  -19.6573  -45.1342   -7.5796 N   0  0  0  0  0  0  0  0  0  0  0  0
  -20.7004  -44.1504   -5.8191 N   0  0  0  0  0  0  0  0  0  0  0  0
  -20.1753  -45.1489   -4.8524 C   0  0  0  0  0  0  0  0  0  0  0  0
  -21.9621  -43.5817   -5.3929 C   0  0  0  0  0  0  0  0  0  0  0  0
  -22.2752  -42.3456   -6.2082 C   0  0  0  0  0  0  0  0  0  0  0  0
  -23.7099  -41.9590   -6.2506 C   0  0  0  0  0  0  0  0  0  0  0  0
  -23.8042  -40.5516   -6.7524 C   0  0  0  0  0  0  0  0  0  0  0  0
  -22.5249  -39.8161   -6.9646 C   0  0  0  0  0  0  0  0  0  0  0  0
  -22.1994  -39.0887   -5.7905 C   0  0  0  0  0  0  0  0  0  0  0  0
  -21.1117  -38.2642   -5.6855 C   0  0  0  0  0  0  0  0  0  0  0  0
  -20.3466  -38.1857   -6.8105 C   0  0  0  0  0  0  0  0  0  0  0  0
  -20.6020  -38.8781   -8.0221 C   0  0  0  0  0  0  0  0  0  0  0  0
  -19.6194  -38.4905   -9.0522 C   0  0  0  0  0  0  0  0  0  0  0  0
  -18.3909  -39.2554   -9.3050 C   0  0  2  0  0  0  0  0  0  0  0  0
  -18.6982  -40.4852  -10.0230 N   0  0  0  0  0  0  0  0  0  0  0  0
  -18.4224  -41.8291   -9.8059 C   0  0  0  0  0  0  0  0  0  0  0  0
  -17.4839  -42.2234  -10.6834 O   0  0  0  0  0  0  0  0  0  0  0  0
  -17.3365  -39.3770   -8.3134 C   0  0  2  0  0  0  0  0  0  0  0  0
  -17.5285  -38.5693   -7.1636 O   0  0  0  0  0  0  0  0  0  0  0  0
  -15.9087  -39.3861   -8.5865 C   0  0  0  0  0  0  0  0  0  0  0  0
  -15.3353  -39.7432   -9.7985 N   0  0  0  0  0  0  0  0  0  0  0  0
  -14.0128  -40.0705  -10.0338 C   0  0  0  0  0  0  0  0  0  0  0  0
  -13.4394  -39.3152  -11.2203 C   0  0  0  0  0  0  0  0  0  0  0  0
  -13.1896  -39.9347  -12.4180 C   0  0  0  0  0  0  0  0  0  0  0  0
  -12.6684  -39.2624  -13.5090 C   0  0  0  0  0  0  0  0  0  0  0  0
  -12.3957  -37.9135  -13.3648 C   0  0  0  0  0  0  0  0  0  0  0  0
  -12.6325  -37.2562  -12.1785 C   0  0  0  0  0  0  0  0  0  0  0  0
  -13.1543  -37.9744  -11.1189 C   0  0  0  0  0  0  0  0  0  0  0  0
  -12.3451  -35.8221  -12.0256 C   0  0  0  0  0  0  0  0  0  0  0  0
  -10.9051  -35.5001  -12.3493 C   0  0  0  0  0  0  0  0  0  0  0  0
  -13.2294  -34.9721  -12.9299 C   0  0  0  0  0  0  0  0  0  0  0  0
  -21.7150  -39.7020   -8.0631 C   0  0  0  0  0  0  0  0  0  0  0  0
  1  2  1  0
  2  3  1  0
  3  4  2  0
  4  5  1  0
  5  6  2  0
  6  7  1  0
  7  8  2  0
  7  9  1  0
  9 10  1  0
  9 11  1  0
 11 12  1  0
 12 13  1  0
 13 14  1  0
 14 15  1  0
 15 16  1  0
 16 17  2  0
 17 18  1  0
 18 19  2  0
 19 20  1  0
 21 20  1  1
 21 22  1  0
 22 23  1  0
 23 24  2  0
 21 25  1  0
 25 26  1  1
 25 27  1  0
 27 28  1  0
 28 29  1  0
 29 30  1  0
 30 31  2  0
 31 32  1  0
 32 33  2  0
 33 34  1  0
 34 35  2  0
 34 36  1  0
 36 37  1  0
 36 38  1  0
 19 39  1  0
  8  3  1  0
 23  5  1  0
 35 30  1  0
 39 15  2  0
M  END
$$$$
