
     RDKit          3D

 39 42  0  0  0  0  0  0  0  0999 V2000
  -19.5039  -47.4276   -9.7072 C   0  0  0  0  0  0  0  0  0  0  0  0
  -18.4598  -46.5173   -9.4283 O   0  0  0  0  0  0  0  0  0  0  0  0
  -18.7675  -45.2776   -8.8693 C   0  0  0  0  0  0  0  0  0  0  0  0
  -18.1061  -44.1347   -9.2628 C   0  0  0  0  0  0  0  0  0  0  0  0
  -18.3633  -42.8444   -8.7408 C   0  0  0  0  0  0  0  0  0  0  0  0
  -19.3388  -42.7319   -7.7762 C   0  0  0  0  0  0  0  0  0  0  0  0
  -20.0017  -43.8635   -7.3821 C   0  0  0  0  0  0  0  0  0  0  0  0
  -19.6829  -45.0878   -7.9489 N   0  0  0  0  0  0  0  0  0  0  0  0
  -21.0776  -44.0960   -6.4568 N   0  0  0  0  0  0  0  0  0  0  0  0
  -20.9648  -45.2185   -5.4902 C   0  0  0  0  0  0  0  0  0  0  0  0
  -22.3397  -43.3952   -6.3424 C   0  0  0  0  0  0  0  0  0  0  0  0
  -22.2688  -42.0761   -7.0810 C   0  0  0  0  0  0  0  0  0  0  0  0
  -23.5798  -41.5007   -7.4810 C   0  0  0  0  0  0  0  0  0  0  0  0
  -23.3730  -40.0624   -7.8418 C   0  0  0  0  0  0  0  0  0  0  0  0
  -22.0154  -39.4904   -7.6129 C   0  0  0  0  0  0  0  0  0  0  0  0
  -21.9664  -38.8939   -6.3262 C   0  0  0  0  0  0  0  0  0  0  0  0
  -20.8732  -38.2300   -5.8385 C   0  0  0  0  0  0  0  0  0  0  0  0
  -19.8119  -38.1775   -6.6920 C   0  0  0  0  0  0  0  0  0  0  0  0
  -19.7797  -38.7461   -7.9912 C   0  0  0  0  0  0  0  0  0  0  0  0
  -18.5057  -38.4233   -8.6618 C   0  0  0  0  0  0  0  0  0  0  0  0
  -17.3465  -39.3255   -8.6400 C   0  0  2  0  0  0  0  0  0  0  0  0
  -17.5639  -40.4521   -9.5377 N   0  0  0  0  0  0  0  0  0  0  0  0
  -17.5091  -41.8323   -9.3917 C   0  0  0  0  0  0  0  0  0  0  0  0
  -16.4054  -42.2871  -10.0091 O   0  0  0  0  0  0  0  0  0  0  0  0
  -16.6428  -39.6527   -7.4122 C   0  0  2  0  0  0  0  0  0  0  0  0
  -16.8584  -38.7283   -6.3586 O   0  0  0  0  0  0  0  0  0  0  0  0
  -15.2585  -40.0855   -7.3143 C   0  0  0  0  0  0  0  0  0  0  0  0
  -14.1706  -39.3825   -7.8121 N   0  0  0  0  0  0  0  0  0  0  0  0
  -13.4224  -39.6845   -8.9347 C   0  0  0  0  0  0  0  0  0  0  0  0
  -14.2107  -39.4854  -10.2176 C   0  0  0  0  0  0  0  0  0  0  0  0
  -14.6889  -40.5464  -10.9429 C   0  0  0  0  0  0  0  0  0  0  0  0
  -15.4091  -40.3838  -12.1129 C   0  0  0  0  0  0  0  0  0  0  0  0
  -15.6447  -39.0923  -12.5504 C   0  0  0  0  0  0  0  0  0  0  0  0
  -15.1810  -38.0015  -11.8502 C   0  0  0  0  0  0  0  0  0  0  0  0
  -14.4665  -38.2191  -10.6870 C   0  0  0  0  0  0  0  0  0  0  0  0
  -15.4333  -36.6288  -12.3135 C   0  0  0  0  0  0  0  0  0  0  0  0
  -16.7296  -36.0801  -11.7652 C   0  0  0  0  0  0  0  0  0  0  0  0
  -14.3128  -35.6816  -11.9018 C   0  0  0  0  0  0  0  0  0  0  0  0
  -20.9154  -39.4105   -8.4249 C   0  0  0  0  0  0  0  0  0  0  0  0
  1  2  1  0
  2  3  1  0
  3  4  2  0
  4  5  1  0
  5  6  2  0
  6  7  1  0
  7  8  2  0
  7  9  1  0
  9 10  1  0
  9 11  1  0
 11 12  1  0
 12 13  1  0
 13 14  1  0
 14 15  1  0
 15 16  1  0
 16 17  2  0
 17 18  1  0
 18 19  2  0
 19 20  1  0
 21 20  1  1
 21 22  1  0
 22 23  1  0
 23 24  2  0
 21 25  1  0
 25 26  1  1
 25 27  1  0
 27 28  1  0
 28 29  1  0
 29 30  1  0
 30 31  2  0
 31 32  1  0
 32 33  2  0
 33 34  1  0
 34 35  2  0
 34 36  1  0
 36 37  1  0
 36 38  1  0
 19 39  1  0
  8  3  1  0
 23  5  1  0
 35 30  1  0
 39 15  2  0
M  END
$$$$
