
     RDKit          3D

 39 42  0  0  0  0  0  0  0  0999 V2000
  -18.8262  -47.3071   -9.4639 C   0  0  0  0  0  0  0  0  0  0  0  0
  -18.6959  -46.0602  -10.1156 O   0  0  0  0  0  0  0  0  0  0  0  0
  -18.9235  -44.8879   -9.3959 C   0  0  0  0  0  0  0  0  0  0  0  0
  -18.1933  -43.7463   -9.6442 C   0  0  0  0  0  0  0  0  0  0  0  0
  -18.3675  -42.5221   -8.9552 C   0  0  0  0  0  0  0  0  0  0  0  0
  -19.3307  -42.4772   -7.9730 C   0  0  0  0  0  0  0  0  0  0  0  0
  -20.0619  -43.6077   -7.7225 C   0  0  0  0  0  0  0  0  0  0  0  0
  -19.8222  -44.7644   -8.4481 N   0  0  0  0  0  0  0  0  0  0  0  0
  -21.1470  -43.8929   -6.8232 N   0  0  0  0  0  0  0  0  0  0  0  0
  -21.1014  -45.1373   -6.0129 C   0  0  0  0  0  0  0  0  0  0  0  0
  -22.3624  -43.1367   -6.6036 C   0  0  0  0  0  0  0  0  0  0  0  0
  -22.2117  -41.7391   -7.1643 C   0  0  0  0  0  0  0  0  0  0  0  0
  -23.4854  -41.0365   -7.4705 C   0  0  0  0  0  0  0  0  0  0  0  0
  -23.1902  -39.5789   -7.6426 C   0  0  0  0  0  0  0  0  0  0  0  0
  -21.7988  -39.1265   -7.3566 C   0  0  0  0  0  0  0  0  0  0  0  0
  -21.7082  -38.7081   -6.0037 C   0  0  0  0  0  0  0  0  0  0  0  0
  -20.5739  -38.1824   -5.4461 C   0  0  0  0  0  0  0  0  0  0  0  0
  -19.5143  -38.0839   -6.2976 C   0  0  0  0  0  0  0  0  0  0  0  0
  -19.5221  -38.4782   -7.6603 C   0  0  0  0  0  0  0  0  0  0  0  0
  -18.2327  -38.1493   -8.2975 C   0  0  0  0  0  0  0  0  0  0  0  0
  -17.1321  -39.1162   -8.4072 C   0  0  2  0  0  0  0  0  0  0  0  0
  -17.4227  -40.0998   -9.4418 N   0  0  0  0  0  0  0  0  0  0  0  0
  -17.4538  -41.4879   -9.4781 C   0  0  0  0  0  0  0  0  0  0  0  0
  -16.3828  -41.9250  -10.1623 O   0  0  0  0  0  0  0  0  0  0  0  0
  -16.4461  -39.6443   -7.2409 C   0  0  2  0  0  0  0  0  0  0  0  0
  -16.7895  -38.9975   -6.0264 O   0  0  0  0  0  0  0  0  0  0  0  0
  -15.0310  -39.9666   -7.1595 C   0  0  0  0  0  0  0  0  0  0  0  0
  -14.0646  -39.5263   -8.0527 N   0  0  0  0  0  0  0  0  0  0  0  0
  -13.7792  -40.0486   -9.3005 C   0  0  0  0  0  0  0  0  0  0  0  0
  -14.7203  -39.5214  -10.3698 C   0  0  0  0  0  0  0  0  0  0  0  0
  -15.2908  -40.3503  -11.3016 C   0  0  0  0  0  0  0  0  0  0  0  0
  -16.1504  -39.8877  -12.2818 C   0  0  0  0  0  0  0  0  0  0  0  0
  -16.4321  -38.5331  -12.3052 C   0  0  0  0  0  0  0  0  0  0  0  0
  -15.8790  -37.6691  -11.3871 C   0  0  0  0  0  0  0  0  0  0  0  0
  -15.0262  -38.1826  -10.4282 C   0  0  0  0  0  0  0  0  0  0  0  0
  -16.1800  -36.2299  -11.4102 C   0  0  0  0  0  0  0  0  0  0  0  0
  -15.2725  -35.4812  -12.3578 C   0  0  0  0  0  0  0  0  0  0  0  0
  -17.6198  -35.9635  -11.8325 C   0  0  0  0  0  0  0  0  0  0  0  0
  -20.6987  -39.0087   -8.1639 C   0  0  0  0  0  0  0  0  0  0  0  0
  1  2  1  0
  2  3  1  0
  3  4  2  0
  4  5  1  0
  5  6  2  0
  6  7  1  0
  7  8  2  0
  7  9  1  0
  9 10  1  0
  9 11  1  0
 11 12  1  0
 12 13  1  0
 13 14  1  0
 14 15  1  0
 15 16  1  0
 16 17  2  0
 17 18  1  0
 18 19  2  0
 19 20  1  0
 21 20  1  1
 21 22  1  0
 22 23  1  0
 23 24  2  0
 21 25  1  0
 25 26  1  1
 25 27  1  0
 27 28  1  0
 28 29  1  0
 29 30  1  0
 30 31  2  0
 31 32  1  0
 32 33  2  0
 33 34  1  0
 34 35  2  0
 34 36  1  0
 36 37  1  0
 36 38  1  0
 19 39  1  0
  8  3  1  0
 23  5  1  0
 35 30  1  0
 39 15  2  0
M  END
$$$$
