
     RDKit          3D

 39 42  0  0  0  0  0  0  0  0999 V2000
  -19.7190  -47.2064   -6.6637 C   0  0  0  0  0  0  0  0  0  0  0  0
  -18.6879  -46.2491   -6.7940 O   0  0  0  0  0  0  0  0  0  0  0  0
  -19.0038  -44.8930   -6.7219 C   0  0  0  0  0  0  0  0  0  0  0  0
  -18.3924  -43.9742   -7.5467 C   0  0  0  0  0  0  0  0  0  0  0  0
  -18.6609  -42.5845   -7.5305 C   0  0  0  0  0  0  0  0  0  0  0  0
  -19.5945  -42.1282   -6.6279 C   0  0  0  0  0  0  0  0  0  0  0  0
  -20.2078  -43.0363   -5.8065 C   0  0  0  0  0  0  0  0  0  0  0  0
  -19.8816  -44.3809   -5.8922 N   0  0  0  0  0  0  0  0  0  0  0  0
  -21.2340  -42.9155   -4.8065 N   0  0  0  0  0  0  0  0  0  0  0  0
  -21.0470  -43.5948   -3.4986 C   0  0  0  0  0  0  0  0  0  0  0  0
  -22.5083  -42.2334   -4.8959 C   0  0  0  0  0  0  0  0  0  0  0  0
  -22.5070  -41.2851   -6.0754 C   0  0  0  0  0  0  0  0  0  0  0  0
  -23.8500  -40.9118   -6.5921 C   0  0  0  0  0  0  0  0  0  0  0  0
  -23.6990  -39.7107   -7.4730 C   0  0  0  0  0  0  0  0  0  0  0  0
  -22.3486  -39.0832   -7.5448 C   0  0  0  0  0  0  0  0  0  0  0  0
  -22.2579  -38.0489   -6.5775 C   0  0  0  0  0  0  0  0  0  0  0  0
  -21.1623  -37.2416   -6.4300 C   0  0  0  0  0  0  0  0  0  0  0  0
  -20.1425  -37.5026   -7.2956 C   0  0  0  0  0  0  0  0  0  0  0  0
  -20.1534  -38.5151   -8.2892 C   0  0  0  0  0  0  0  0  0  0  0  0
  -18.9203  -38.4553   -9.0971 C   0  0  0  0  0  0  0  0  0  0  0  0
  -17.7370  -39.2742   -8.8012 C   0  0  2  0  0  0  0  0  0  0  0  0
  -17.9640  -40.6563   -9.2018 N   0  0  0  0  0  0  0  0  0  0  0  0
  -17.8649  -41.8816   -8.5552 C   0  0  0  0  0  0  0  0  0  0  0  0
  -16.7782  -42.5247   -9.0153 O   0  0  0  0  0  0  0  0  0  0  0  0
  -16.9699  -39.1132   -7.5783 C   0  0  2  0  0  0  0  0  0  0  0  0
  -17.4061  -38.0405   -6.7595 O   0  0  0  0  0  0  0  0  0  0  0  0
  -15.5211  -39.1618   -7.4701 C   0  0  0  0  0  0  0  0  0  0  0  0
  -14.7216  -40.1765   -7.9765 N   0  0  0  0  0  0  0  0  0  0  0  0
  -14.7338  -40.6890   -9.2604 C   0  0  0  0  0  0  0  0  0  0  0  0
  -15.3916  -39.7410  -10.2481 C   0  0  0  0  0  0  0  0  0  0  0  0
  -16.3909  -40.1558  -11.0907 C   0  0  0  0  0  0  0  0  0  0  0  0
  -17.0015  -39.3062  -11.9959 C   0  0  0  0  0  0  0  0  0  0  0  0
  -16.5723  -37.9913  -12.0363 C   0  0  0  0  0  0  0  0  0  0  0  0
  -15.5719  -37.5371  -11.2067 C   0  0  0  0  0  0  0  0  0  0  0  0
  -14.9947  -38.4270  -10.3204 C   0  0  0  0  0  0  0  0  0  0  0  0
  -15.1172  -36.1392  -11.2476 C   0  0  0  0  0  0  0  0  0  0  0  0
  -16.2734  -35.1761  -11.3815 C   0  0  0  0  0  0  0  0  0  0  0  0
  -14.3387  -35.7643   -9.9924 C   0  0  0  0  0  0  0  0  0  0  0  0
  -21.2890  -39.3030   -8.3842 C   0  0  0  0  0  0  0  0  0  0  0  0
  1  2  1  0
  2  3  1  0
  3  4  2  0
  4  5  1  0
  5  6  2  0
  6  7  1  0
  7  8  2  0
  7  9  1  0
  9 10  1  0
  9 11  1  0
 11 12  1  0
 12 13  1  0
 13 14  1  0
 14 15  1  0
 15 16  1  0
 16 17  2  0
 17 18  1  0
 18 19  2  0
 19 20  1  0
 21 20  1  1
 21 22  1  0
 22 23  1  0
 23 24  2  0
 21 25  1  0
 25 26  1  6
 25 27  1  0
 27 28  1  0
 28 29  1  0
 29 30  1  0
 30 31  2  0
 31 32  1  0
 32 33  2  0
 33 34  1  0
 34 35  2  0
 34 36  1  0
 36 37  1  0
 36 38  1  0
 19 39  1  0
  8  3  1  0
 23  5  1  0
 35 30  1  0
 39 15  2  0
M  END
$$$$
