
     RDKit          3D

 39 42  0  0  0  0  0  0  0  0999 V2000
  -20.2356  -46.8873  -10.5233 C   0  0  0  0  0  0  0  0  0  0  0  0
  -19.2655  -45.8599  -10.5169 O   0  0  0  0  0  0  0  0  0  0  0  0
  -19.3585  -44.8407   -9.5699 C   0  0  0  0  0  0  0  0  0  0  0  0
  -19.0357  -43.5399   -9.8893 C   0  0  0  0  0  0  0  0  0  0  0  0
  -19.1048  -42.4551   -8.9826 C   0  0  0  0  0  0  0  0  0  0  0  0
  -19.5215  -42.7254   -7.6989 C   0  0  0  0  0  0  0  0  0  0  0  0
  -19.8461  -44.0158   -7.3752 C   0  0  0  0  0  0  0  0  0  0  0  0
  -19.7480  -45.0165   -8.3296 N   0  0  0  0  0  0  0  0  0  0  0  0
  -20.3465  -44.6278   -6.1741 N   0  0  0  0  0  0  0  0  0  0  0  0
  -19.7203  -45.8865   -5.6937 C   0  0  0  0  0  0  0  0  0  0  0  0
  -21.4525  -44.2089   -5.3385 C   0  0  0  0  0  0  0  0  0  0  0  0
  -21.8235  -42.7751   -5.6503 C   0  0  0  0  0  0  0  0  0  0  0  0
  -23.2045  -42.3788   -5.2690 C   0  0  0  0  0  0  0  0  0  0  0  0
  -23.2870  -40.8840   -5.2833 C   0  0  0  0  0  0  0  0  0  0  0  0
  -22.0215  -40.1336   -5.5239 C   0  0  0  0  0  0  0  0  0  0  0  0
  -21.4169  -39.8182   -4.2795 C   0  0  0  0  0  0  0  0  0  0  0  0
  -20.2697  -39.0814   -4.1581 C   0  0  0  0  0  0  0  0  0  0  0  0
  -19.7365  -38.6599   -5.3394 C   0  0  0  0  0  0  0  0  0  0  0  0
  -20.2772  -38.9310   -6.6226 C   0  0  0  0  0  0  0  0  0  0  0  0
  -19.4891  -38.2488   -7.6667 C   0  0  0  0  0  0  0  0  0  0  0  0
  -18.3966  -38.9083   -8.3946 C   0  0  2  0  0  0  0  0  0  0  0  0
  -18.9325  -39.8446   -9.3736 N   0  0  0  0  0  0  0  0  0  0  0  0
  -18.7236  -41.1912   -9.6423 C   0  0  0  0  0  0  0  0  0  0  0  0
  -18.0088  -41.2985  -10.7753 O   0  0  0  0  0  0  0  0  0  0  0  0
  -17.1806  -39.3488   -7.7334 C   0  0  2  0  0  0  0  0  0  0  0  0
  -16.9820  -38.7795   -6.4498 O   0  0  0  0  0  0  0  0  0  0  0  0
  -15.8692  -39.4606   -8.3506 C   0  0  0  0  0  0  0  0  0  0  0  0
  -15.6067  -39.2565   -9.6978 N   0  0  0  0  0  0  0  0  0  0  0  0
  -15.3561  -38.0517  -10.3279 C   0  0  0  0  0  0  0  0  0  0  0  0
  -16.6338  -37.2876  -10.6289 C   0  0  0  0  0  0  0  0  0  0  0  0
  -17.0186  -36.2027   -9.8835 C   0  0  0  0  0  0  0  0  0  0  0  0
  -18.1783  -35.4947  -10.1438 C   0  0  0  0  0  0  0  0  0  0  0  0
  -18.9659  -35.9141  -11.2014 C   0  0  0  0  0  0  0  0  0  0  0  0
  -18.6135  -36.9986  -11.9728 C   0  0  0  0  0  0  0  0  0  0  0  0
  -17.4444  -37.6714  -11.6705 C   0  0  0  0  0  0  0  0  0  0  0  0
  -19.4489  -37.4431  -13.0984 C   0  0  0  0  0  0  0  0  0  0  0  0
  -19.5314  -36.3963  -14.1846 C   0  0  0  0  0  0  0  0  0  0  0  0
  -18.9134  -38.7253  -13.7239 C   0  0  0  0  0  0  0  0  0  0  0  0
  -21.4366  -39.6872   -6.6791 C   0  0  0  0  0  0  0  0  0  0  0  0
  1  2  1  0
  2  3  1  0
  3  4  2  0
  4  5  1  0
  5  6  2  0
  6  7  1  0
  7  8  2  0
  7  9  1  0
  9 10  1  0
  9 11  1  0
 11 12  1  0
 12 13  1  0
 13 14  1  0
 14 15  1  0
 15 16  1  0
 16 17  2  0
 17 18  1  0
 18 19  2  0
 19 20  1  0
 21 20  1  1
 21 22  1  0
 22 23  1  0
 23 24  2  0
 21 25  1  0
 25 26  1  1
 25 27  1  0
 27 28  1  0
 28 29  1  0
 29 30  1  0
 30 31  2  0
 31 32  1  0
 32 33  2  0
 33 34  1  0
 34 35  2  0
 34 36  1  0
 36 37  1  0
 36 38  1  0
 19 39  1  0
  8  3  1  0
 23  5  1  0
 35 30  1  0
 39 15  2  0
M  END
$$$$
