
     RDKit          3D

 39 42  0  0  0  0  0  0  0  0999 V2000
  -16.3022  -46.5092   -9.1259 C   0  0  0  0  0  0  0  0  0  0  0  0
  -17.5648  -46.1095   -9.6186 O   0  0  0  0  0  0  0  0  0  0  0  0
  -18.1889  -44.9914   -9.0669 C   0  0  0  0  0  0  0  0  0  0  0  0
  -18.5680  -43.9262   -9.8542 C   0  0  0  0  0  0  0  0  0  0  0  0
  -19.2042  -42.7598   -9.3659 C   0  0  0  0  0  0  0  0  0  0  0  0
  -19.4564  -42.6920   -8.0144 C   0  0  0  0  0  0  0  0  0  0  0  0
  -19.0842  -43.7482   -7.2263 C   0  0  0  0  0  0  0  0  0  0  0  0
  -18.4649  -44.8520   -7.7920 N   0  0  0  0  0  0  0  0  0  0  0  0
  -19.2318  -44.0224   -5.8225 N   0  0  0  0  0  0  0  0  0  0  0  0
  -18.0628  -44.5367   -5.0635 C   0  0  0  0  0  0  0  0  0  0  0  0
  -20.4171  -43.9092   -4.9984 C   0  0  0  0  0  0  0  0  0  0  0  0
  -21.4605  -43.0698   -5.7037 C   0  0  0  0  0  0  0  0  0  0  0  0
  -22.8593  -43.2778   -5.2456 C   0  0  0  0  0  0  0  0  0  0  0  0
  -23.6933  -42.1394   -5.7455 C   0  0  0  0  0  0  0  0  0  0  0  0
  -22.9831  -41.0263   -6.4377 C   0  0  0  0  0  0  0  0  0  0  0  0
  -22.6558  -40.0177   -5.4947 C   0  0  0  0  0  0  0  0  0  0  0  0
  -22.0493  -38.8363   -5.8266 C   0  0  0  0  0  0  0  0  0  0  0  0
  -21.7768  -38.6898   -7.1539 C   0  0  0  0  0  0  0  0  0  0  0  0
  -22.0708  -39.6472   -8.1586 C   0  0  0  0  0  0  0  0  0  0  0  0
  -21.7159  -39.1200   -9.4901 C   0  0  0  0  0  0  0  0  0  0  0  0
  -20.4219  -39.3897  -10.1314 C   0  0  2  0  0  0  0  0  0  0  0  0
  -20.3797  -40.7570  -10.6324 N   0  0  0  0  0  0  0  0  0  0  0  0
  -19.5057  -41.8236  -10.4660 C   0  0  0  0  0  0  0  0  0  0  0  0
  -18.8082  -41.9901  -11.6027 O   0  0  0  0  0  0  0  0  0  0  0  0
  -19.1685  -38.9043   -9.5807 C   0  0  2  0  0  0  0  0  0  0  0  0
  -19.3234  -37.9195   -8.5721 O   0  0  0  0  0  0  0  0  0  0  0  0
  -17.9875  -38.5397  -10.3459 C   0  0  0  0  0  0  0  0  0  0  0  0
  -17.7918  -38.8295  -11.6887 N   0  0  0  0  0  0  0  0  0  0  0  0
  -16.5978  -39.1424  -12.3113 C   0  0  0  0  0  0  0  0  0  0  0  0
  -15.5911  -38.0087  -12.2197 C   0  0  0  0  0  0  0  0  0  0  0  0
  -15.5567  -36.9975  -13.1454 C   0  0  0  0  0  0  0  0  0  0  0  0
  -14.6475  -35.9570  -13.0773 C   0  0  0  0  0  0  0  0  0  0  0  0
  -13.7469  -35.9557  -12.0267 C   0  0  0  0  0  0  0  0  0  0  0  0
  -13.7498  -36.9532  -11.0777 C   0  0  0  0  0  0  0  0  0  0  0  0
  -14.6792  -37.9700  -11.1920 C   0  0  0  0  0  0  0  0  0  0  0  0
  -12.7945  -36.9508   -9.9598 C   0  0  0  0  0  0  0  0  0  0  0  0
  -12.6363  -35.5738   -9.3589 C   0  0  0  0  0  0  0  0  0  0  0  0
  -13.2275  -37.8995   -8.8485 C   0  0  0  0  0  0  0  0  0  0  0  0
  -22.6795  -40.8255   -7.7580 C   0  0  0  0  0  0  0  0  0  0  0  0
  1  2  1  0
  2  3  1  0
  3  4  2  0
  4  5  1  0
  5  6  2  0
  6  7  1  0
  7  8  2  0
  7  9  1  0
  9 10  1  0
  9 11  1  0
 11 12  1  0
 12 13  1  0
 13 14  1  0
 14 15  1  0
 15 16  1  0
 16 17  2  0
 17 18  1  0
 18 19  2  0
 19 20  1  0
 21 20  1  1
 21 22  1  0
 22 23  1  0
 23 24  2  0
 21 25  1  0
 25 26  1  6
 25 27  1  0
 27 28  1  0
 28 29  1  0
 29 30  1  0
 30 31  2  0
 31 32  1  0
 32 33  2  0
 33 34  1  0
 34 35  2  0
 34 36  1  0
 36 37  1  0
 36 38  1  0
 19 39  1  0
  8  3  1  0
 23  5  1  0
 35 30  1  0
 39 15  2  0
M  END
$$$$
