
     RDKit          3D

 39 42  0  0  0  0  0  0  0  0999 V2000
  -17.5564  -47.1720   -9.2394 C   0  0  0  0  0  0  0  0  0  0  0  0
  -18.3269  -46.2959  -10.0364 O   0  0  0  0  0  0  0  0  0  0  0  0
  -18.7309  -45.0707   -9.5074 C   0  0  0  0  0  0  0  0  0  0  0  0
  -18.7089  -43.9234  -10.2699 C   0  0  0  0  0  0  0  0  0  0  0  0
  -19.1027  -42.6468   -9.8020 C   0  0  0  0  0  0  0  0  0  0  0  0
  -19.5338  -42.5531   -8.4982 C   0  0  0  0  0  0  0  0  0  0  0  0
  -19.5604  -43.6900   -7.7353 C   0  0  0  0  0  0  0  0  0  0  0  0
  -19.1554  -44.8997   -8.2779 N   0  0  0  0  0  0  0  0  0  0  0  0
  -19.9843  -43.9548   -6.3870 N   0  0  0  0  0  0  0  0  0  0  0  0
  -19.1097  -44.7703   -5.5054 C   0  0  0  0  0  0  0  0  0  0  0  0
  -21.2161  -43.5652   -5.7330 C   0  0  0  0  0  0  0  0  0  0  0  0
  -21.8980  -42.4691   -6.5229 C   0  0  0  0  0  0  0  0  0  0  0  0
  -23.3578  -42.3257   -6.2812 C   0  0  0  0  0  0  0  0  0  0  0  0
  -23.7967  -40.9993   -6.8193 C   0  0  0  0  0  0  0  0  0  0  0  0
  -22.7353  -40.0860   -7.3311 C   0  0  0  0  0  0  0  0  0  0  0  0
  -22.3162  -39.2198   -6.2881 C   0  0  0  0  0  0  0  0  0  0  0  0
  -21.3922  -38.2236   -6.4541 C   0  0  0  0  0  0  0  0  0  0  0  0
  -20.8922  -38.1160   -7.7174 C   0  0  0  0  0  0  0  0  0  0  0  0
  -21.2573  -38.9396   -8.8133 C   0  0  0  0  0  0  0  0  0  0  0  0
  -20.5834  -38.4850  -10.0445 C   0  0  0  0  0  0  0  0  0  0  0  0
  -19.3144  -39.0584  -10.5127 C   0  0  2  0  0  0  0  0  0  0  0  0
  -19.5366  -40.3774  -11.0899 N   0  0  0  0  0  0  0  0  0  0  0  0
  -18.9906  -41.6356  -10.8710 C   0  0  0  0  0  0  0  0  0  0  0  0
  -18.1909  -41.9441  -11.9061 O   0  0  0  0  0  0  0  0  0  0  0  0
  -18.0792  -38.9236   -9.7604 C   0  0  2  0  0  0  0  0  0  0  0  0
  -18.0731  -37.8365   -8.8497 O   0  0  0  0  0  0  0  0  0  0  0  0
  -16.7355  -39.0217  -10.3062 C   0  0  0  0  0  0  0  0  0  0  0  0
  -15.9126  -40.1331  -10.1927 N   0  0  0  0  0  0  0  0  0  0  0  0
  -14.6416  -40.1808   -9.6508 C   0  0  0  0  0  0  0  0  0  0  0  0
  -13.5995  -39.5896  -10.5843 C   0  0  0  0  0  0  0  0  0  0  0  0
  -13.1043  -40.2938  -11.6517 C   0  0  0  0  0  0  0  0  0  0  0  0
  -12.1557  -39.7711  -12.5124 C   0  0  0  0  0  0  0  0  0  0  0  0
  -11.7026  -38.4864  -12.2688 C   0  0  0  0  0  0  0  0  0  0  0  0
  -12.1754  -37.7479  -11.2075 C   0  0  0  0  0  0  0  0  0  0  0  0
  -13.1229  -38.3171  -10.3775 C   0  0  0  0  0  0  0  0  0  0  0  0
  -11.6960  -36.3818  -10.9498 C   0  0  0  0  0  0  0  0  0  0  0  0
  -12.7944  -35.4921  -10.4168 C   0  0  0  0  0  0  0  0  0  0  0  0
  -10.5525  -36.3681   -9.9425 C   0  0  0  0  0  0  0  0  0  0  0  0
  -22.1932  -39.9341   -8.5795 C   0  0  0  0  0  0  0  0  0  0  0  0
  1  2  1  0
  2  3  1  0
  3  4  2  0
  4  5  1  0
  5  6  2  0
  6  7  1  0
  7  8  2  0
  7  9  1  0
  9 10  1  0
  9 11  1  0
 11 12  1  0
 12 13  1  0
 13 14  1  0
 14 15  1  0
 15 16  1  0
 16 17  2  0
 17 18  1  0
 18 19  2  0
 19 20  1  0
 21 20  1  1
 21 22  1  0
 22 23  1  0
 23 24  2  0
 21 25  1  0
 25 26  1  6
 25 27  1  0
 27 28  1  0
 28 29  1  0
 29 30  1  0
 30 31  2  0
 31 32  1  0
 32 33  2  0
 33 34  1  0
 34 35  2  0
 34 36  1  0
 36 37  1  0
 36 38  1  0
 19 39  1  0
  8  3  1  0
 23  5  1  0
 35 30  1  0
 39 15  2  0
M  END
$$$$
