
     RDKit          3D

 39 42  0  0  0  0  0  0  0  0999 V2000
  -18.8132  -47.1890  -10.0906 C   0  0  0  0  0  0  0  0  0  0  0  0
  -18.4928  -45.8740  -10.4966 O   0  0  0  0  0  0  0  0  0  0  0  0
  -18.8440  -44.8027   -9.6761 C   0  0  0  0  0  0  0  0  0  0  0  0
  -18.2428  -43.5710   -9.8164 C   0  0  0  0  0  0  0  0  0  0  0  0
  -18.5466  -42.4398   -9.0216 C   0  0  0  0  0  0  0  0  0  0  0  0
  -19.5057  -42.5880   -8.0455 C   0  0  0  0  0  0  0  0  0  0  0  0
  -20.1089  -43.8090   -7.9021 C   0  0  0  0  0  0  0  0  0  0  0  0
  -19.7475  -44.8630   -8.7269 N   0  0  0  0  0  0  0  0  0  0  0  0
  -21.1537  -44.2897   -7.0389 N   0  0  0  0  0  0  0  0  0  0  0  0
  -20.9705  -45.5896   -6.3431 C   0  0  0  0  0  0  0  0  0  0  0  0
  -22.4432  -43.6926   -6.7602 C   0  0  0  0  0  0  0  0  0  0  0  0
  -22.4470  -42.2422   -7.1924 C   0  0  0  0  0  0  0  0  0  0  0  0
  -23.7905  -41.6572   -7.4425 C   0  0  0  0  0  0  0  0  0  0  0  0
  -23.6558  -40.1666   -7.4814 C   0  0  0  0  0  0  0  0  0  0  0  0
  -22.3208  -39.5936   -7.1471 C   0  0  0  0  0  0  0  0  0  0  0  0
  -22.2716  -39.2910   -5.7616 C   0  0  0  0  0  0  0  0  0  0  0  0
  -21.1992  -38.6977   -5.1518 C   0  0  0  0  0  0  0  0  0  0  0  0
  -20.1594  -38.4088   -5.9842 C   0  0  0  0  0  0  0  0  0  0  0  0
  -20.1289  -38.6776   -7.3768 C   0  0  0  0  0  0  0  0  0  0  0  0
  -18.8850  -38.1550   -7.9737 C   0  0  0  0  0  0  0  0  0  0  0  0
  -17.6864  -38.9831   -8.1626 C   0  0  2  0  0  0  0  0  0  0  0  0
  -17.8719  -39.8955   -9.2830 N   0  0  0  0  0  0  0  0  0  0  0  0
  -17.7523  -41.2699   -9.4438 C   0  0  0  0  0  0  0  0  0  0  0  0
  -16.6425  -41.5250  -10.1576 O   0  0  0  0  0  0  0  0  0  0  0  0
  -16.9432  -39.5364   -7.0439 C   0  0  2  0  0  0  0  0  0  0  0  0
  -17.5146  -39.2578   -5.7762 O   0  0  0  0  0  0  0  0  0  0  0  0
  -15.5003  -39.4882   -6.8738 C   0  0  0  0  0  0  0  0  0  0  0  0
  -14.5746  -39.7645   -7.8699 N   0  0  0  0  0  0  0  0  0  0  0  0
  -14.8011  -39.8092   -9.2330 C   0  0  0  0  0  0  0  0  0  0  0  0
  -15.7312  -38.7006   -9.6946 C   0  0  0  0  0  0  0  0  0  0  0  0
  -17.0716  -38.7160   -9.4054 C   0  0  0  0  0  0  0  0  0  0  0  0
  -17.9331  -37.7148   -9.8170 C   0  0  0  0  0  0  0  0  0  0  0  0
  -17.4012  -36.6668  -10.5475 C   0  0  0  0  0  0  0  0  0  0  0  0
  -16.0609  -36.6158  -10.8579 C   0  0  0  0  0  0  0  0  0  0  0  0
  -15.2433  -37.6418  -10.4225 C   0  0  0  0  0  0  0  0  0  0  0  0
  -15.4949  -35.5010  -11.6321 C   0  0  0  0  0  0  0  0  0  0  0  0
  -14.6167  -34.6145  -10.7806 C   0  0  0  0  0  0  0  0  0  0  0  0
  -14.6598  -35.9986  -12.8057 C   0  0  0  0  0  0  0  0  0  0  0  0
  -21.2426  -39.2852   -7.9335 C   0  0  0  0  0  0  0  0  0  0  0  0
  1  2  1  0
  2  3  1  0
  3  4  2  0
  4  5  1  0
  5  6  2  0
  6  7  1  0
  7  8  2  0
  7  9  1  0
  9 10  1  0
  9 11  1  0
 11 12  1  0
 12 13  1  0
 13 14  1  0
 14 15  1  0
 15 16  1  0
 16 17  2  0
 17 18  1  0
 18 19  2  0
 19 20  1  0
 21 20  1  1
 21 22  1  0
 22 23  1  0
 23 24  2  0
 21 25  1  0
 25 26  1  1
 25 27  1  0
 27 28  1  0
 28 29  1  0
 29 30  1  0
 30 31  2  0
 31 32  1  0
 32 33  2  0
 33 34  1  0
 34 35  2  0
 34 36  1  0
 36 37  1  0
 36 38  1  0
 19 39  1  0
  8  3  1  0
 23  5  1  0
 35 30  1  0
 39 15  2  0
M  END
$$$$
