
     RDKit          3D

 39 42  0  0  0  0  0  0  0  0999 V2000
  -18.2678  -47.2385   -9.1309 C   0  0  0  0  0  0  0  0  0  0  0  0
  -18.4036  -46.0756   -9.9219 O   0  0  0  0  0  0  0  0  0  0  0  0
  -18.7137  -44.8641   -9.3052 C   0  0  0  0  0  0  0  0  0  0  0  0
  -17.9947  -43.7210   -9.5784 C   0  0  0  0  0  0  0  0  0  0  0  0
  -18.2505  -42.4584   -8.9919 C   0  0  0  0  0  0  0  0  0  0  0  0
  -19.2864  -42.3750   -8.0894 C   0  0  0  0  0  0  0  0  0  0  0  0
  -20.0066  -43.5069   -7.8148 C   0  0  0  0  0  0  0  0  0  0  0  0
  -19.6845  -44.7028   -8.4376 N   0  0  0  0  0  0  0  0  0  0  0  0
  -21.1497  -43.7619   -6.9805 N   0  0  0  0  0  0  0  0  0  0  0  0
  -21.1354  -44.9462   -6.0836 C   0  0  0  0  0  0  0  0  0  0  0  0
  -22.3962  -43.0288   -6.9053 C   0  0  0  0  0  0  0  0  0  0  0  0
  -22.2375  -41.6689   -7.5501 C   0  0  0  0  0  0  0  0  0  0  0  0
  -23.5010  -41.0268   -7.9984 C   0  0  0  0  0  0  0  0  0  0  0  0
  -23.2292  -39.5762   -8.2502 C   0  0  0  0  0  0  0  0  0  0  0  0
  -21.8749  -39.0645   -7.8945 C   0  0  0  0  0  0  0  0  0  0  0  0
  -21.8975  -38.5522   -6.5713 C   0  0  0  0  0  0  0  0  0  0  0  0
  -20.8220  -37.9563   -5.9696 C   0  0  0  0  0  0  0  0  0  0  0  0
  -19.7035  -37.8849   -6.7451 C   0  0  0  0  0  0  0  0  0  0  0  0
  -19.5982  -38.3714   -8.0735 C   0  0  0  0  0  0  0  0  0  0  0  0
  -18.2725  -38.0488   -8.6351 C   0  0  0  0  0  0  0  0  0  0  0  0
  -17.1436  -38.9880   -8.5948 C   0  0  2  0  0  0  0  0  0  0  0  0
  -17.3307  -40.0481   -9.5763 N   0  0  0  0  0  0  0  0  0  0  0  0
  -17.3252  -41.4357   -9.5172 C   0  0  0  0  0  0  0  0  0  0  0  0
  -16.1951  -41.8866  -10.0878 O   0  0  0  0  0  0  0  0  0  0  0  0
  -16.5355  -39.4148   -7.3466 C   0  0  2  0  0  0  0  0  0  0  0  0
  -16.9870  -38.6982   -6.2091 O   0  0  0  0  0  0  0  0  0  0  0  0
  -15.1229  -39.6872   -7.1378 C   0  0  0  0  0  0  0  0  0  0  0  0
  -14.3794  -40.6137   -7.8548 N   0  0  0  0  0  0  0  0  0  0  0  0
  -13.3641  -40.3537   -8.7565 C   0  0  0  0  0  0  0  0  0  0  0  0
  -13.8558  -39.5682   -9.9600 C   0  0  0  0  0  0  0  0  0  0  0  0
  -14.7415  -40.1046  -10.8591 C   0  0  0  0  0  0  0  0  0  0  0  0
  -15.2003  -39.4037  -11.9601 C   0  0  0  0  0  0  0  0  0  0  0  0
  -14.7349  -38.1134  -12.1425 C   0  0  0  0  0  0  0  0  0  0  0  0
  -13.8452  -37.5402  -11.2620 C   0  0  0  0  0  0  0  0  0  0  0  0
  -13.4180  -38.2837  -10.1779 C   0  0  0  0  0  0  0  0  0  0  0  0
  -13.3523  -36.1681  -11.4542 C   0  0  0  0  0  0  0  0  0  0  0  0
  -13.8091  -35.5864  -12.7715 C   0  0  0  0  0  0  0  0  0  0  0  0
  -13.8268  -35.2395  -10.3430 C   0  0  0  0  0  0  0  0  0  0  0  0
  -20.7198  -38.9696   -8.6243 C   0  0  0  0  0  0  0  0  0  0  0  0
  1  2  1  0
  2  3  1  0
  3  4  2  0
  4  5  1  0
  5  6  2  0
  6  7  1  0
  7  8  2  0
  7  9  1  0
  9 10  1  0
  9 11  1  0
 11 12  1  0
 12 13  1  0
 13 14  1  0
 14 15  1  0
 15 16  1  0
 16 17  2  0
 17 18  1  0
 18 19  2  0
 19 20  1  0
 21 20  1  1
 21 22  1  0
 22 23  1  0
 23 24  2  0
 21 25  1  0
 25 26  1  1
 25 27  1  0
 27 28  1  0
 28 29  1  0
 29 30  1  0
 30 31  2  0
 31 32  1  0
 32 33  2  0
 33 34  1  0
 34 35  2  0
 34 36  1  0
 36 37  1  0
 36 38  1  0
 19 39  1  0
  8  3  1  0
 23  5  1  0
 35 30  1  0
 39 15  2  0
M  END
$$$$
