
     RDKit          3D

 39 42  0  0  0  0  0  0  0  0999 V2000
  -17.9602  -47.5885   -8.4053 C   0  0  0  0  0  0  0  0  0  0  0  0
  -18.3335  -46.5098   -9.2382 O   0  0  0  0  0  0  0  0  0  0  0  0
  -18.6879  -45.2921   -8.6587 C   0  0  0  0  0  0  0  0  0  0  0  0
  -18.1768  -44.1029   -9.1308 C   0  0  0  0  0  0  0  0  0  0  0  0
  -18.4897  -42.8310   -8.5940 C   0  0  0  0  0  0  0  0  0  0  0  0
  -19.3616  -42.7874   -7.5298 C   0  0  0  0  0  0  0  0  0  0  0  0
  -19.8751  -43.9656   -7.0570 C   0  0  0  0  0  0  0  0  0  0  0  0
  -19.5119  -45.1670   -7.6456 N   0  0  0  0  0  0  0  0  0  0  0  0
  -20.8200  -44.2750   -6.0182 N   0  0  0  0  0  0  0  0  0  0  0  0
  -20.5045  -45.3664   -5.0608 C   0  0  0  0  0  0  0  0  0  0  0  0
  -22.1196  -43.6853   -5.7724 C   0  0  0  0  0  0  0  0  0  0  0  0
  -22.2461  -42.3782   -6.5247 C   0  0  0  0  0  0  0  0  0  0  0  0
  -23.6385  -41.9265   -6.7839 C   0  0  0  0  0  0  0  0  0  0  0  0
  -23.6002  -40.4822   -7.1763 C   0  0  0  0  0  0  0  0  0  0  0  0
  -22.2820  -39.7899   -7.1012 C   0  0  0  0  0  0  0  0  0  0  0  0
  -22.1477  -39.1690   -5.8322 C   0  0  0  0  0  0  0  0  0  0  0  0
  -21.0715  -38.4037   -5.4718 C   0  0  0  0  0  0  0  0  0  0  0  0
  -20.1173  -38.2736   -6.4362 C   0  0  0  0  0  0  0  0  0  0  0  0
  -20.1750  -38.8598   -7.7267 C   0  0  0  0  0  0  0  0  0  0  0  0
  -19.0145  -38.4386   -8.5346 C   0  0  0  0  0  0  0  0  0  0  0  0
  -17.7842  -39.2356   -8.6322 C   0  0  2  0  0  0  0  0  0  0  0  0
  -17.9964  -40.3923   -9.4919 N   0  0  0  0  0  0  0  0  0  0  0  0
  -17.8039  -41.7597   -9.3420 C   0  0  0  0  0  0  0  0  0  0  0  0
  -16.7372  -42.1270  -10.0724 O   0  0  0  0  0  0  0  0  0  0  0  0
  -16.9260  -39.4787   -7.4858 C   0  0  2  0  0  0  0  0  0  0  0  0
  -17.1722  -38.6171   -6.3866 O   0  0  0  0  0  0  0  0  0  0  0  0
  -15.4904  -39.7031   -7.5301 C   0  0  0  0  0  0  0  0  0  0  0  0
  -14.8368  -40.4719   -8.4825 N   0  0  0  0  0  0  0  0  0  0  0  0
  -13.5653  -40.2742   -8.9880 C   0  0  0  0  0  0  0  0  0  0  0  0
  -13.5782  -39.4419  -10.2585 C   0  0  0  0  0  0  0  0  0  0  0  0
  -13.6690  -40.0197  -11.4989 C   0  0  0  0  0  0  0  0  0  0  0  0
  -13.6828  -39.2775  -12.6663 C   0  0  0  0  0  0  0  0  0  0  0  0
  -13.6008  -37.9006  -12.5556 C   0  0  0  0  0  0  0  0  0  0  0  0
  -13.5083  -37.2835  -11.3284 C   0  0  0  0  0  0  0  0  0  0  0  0
  -13.4985  -38.0714  -10.1927 C   0  0  0  0  0  0  0  0  0  0  0  0
  -13.4236  -35.8201  -11.2103 C   0  0  0  0  0  0  0  0  0  0  0  0
  -14.7623  -35.2051  -10.8758 C   0  0  0  0  0  0  0  0  0  0  0  0
  -12.4328  -35.3997  -10.1315 C   0  0  0  0  0  0  0  0  0  0  0  0
  -21.2874  -39.6283   -8.0288 C   0  0  0  0  0  0  0  0  0  0  0  0
  1  2  1  0
  2  3  1  0
  3  4  2  0
  4  5  1  0
  5  6  2  0
  6  7  1  0
  7  8  2  0
  7  9  1  0
  9 10  1  0
  9 11  1  0
 11 12  1  0
 12 13  1  0
 13 14  1  0
 14 15  1  0
 15 16  1  0
 16 17  2  0
 17 18  1  0
 18 19  2  0
 19 20  1  0
 21 20  1  1
 21 22  1  0
 22 23  1  0
 23 24  2  0
 21 25  1  0
 25 26  1  1
 25 27  1  0
 27 28  1  0
 28 29  1  0
 29 30  1  0
 30 31  2  0
 31 32  1  0
 32 33  2  0
 33 34  1  0
 34 35  2  0
 34 36  1  0
 36 37  1  0
 36 38  1  0
 19 39  1  0
  8  3  1  0
 23  5  1  0
 35 30  1  0
 39 15  2  0
M  END
$$$$
