
     RDKit          3D

 39 42  0  0  0  0  0  0  0  0999 V2000
  -17.7775  -49.0760   -6.7080 C   0  0  0  0  0  0  0  0  0  0  0  0
  -17.8390  -47.8076   -6.0883 O   0  0  0  0  0  0  0  0  0  0  0  0
  -18.0229  -46.6722   -6.8764 C   0  0  0  0  0  0  0  0  0  0  0  0
  -18.8486  -45.6476   -6.4679 C   0  0  0  0  0  0  0  0  0  0  0  0
  -19.0841  -44.4674   -7.2132 C   0  0  0  0  0  0  0  0  0  0  0  0
  -18.4437  -44.3428   -8.4251 C   0  0  0  0  0  0  0  0  0  0  0  0
  -17.6197  -45.3564   -8.8362 C   0  0  0  0  0  0  0  0  0  0  0  0
  -17.4483  -46.4779   -8.0396 N   0  0  0  0  0  0  0  0  0  0  0  0
  -16.7835  -45.5305   -9.9930 N   0  0  0  0  0  0  0  0  0  0  0  0
  -16.8256  -46.8240  -10.7226 C   0  0  0  0  0  0  0  0  0  0  0  0
  -15.8246  -44.6073  -10.5632 C   0  0  0  0  0  0  0  0  0  0  0  0
  -16.0625  -43.2137  -10.0232 C   0  0  0  0  0  0  0  0  0  0  0  0
  -14.8975  -42.2937  -10.1032 C   0  0  0  0  0  0  0  0  0  0  0  0
  -15.3873  -40.8939   -9.8979 C   0  0  0  0  0  0  0  0  0  0  0  0
  -16.8614  -40.6949   -9.7990 C   0  0  0  0  0  0  0  0  0  0  0  0
  -17.3843  -40.4007  -11.0850 C   0  0  0  0  0  0  0  0  0  0  0  0
  -18.7008  -40.1087  -11.3204 C   0  0  0  0  0  0  0  0  0  0  0  0
  -19.4928  -40.1177  -10.2114 C   0  0  0  0  0  0  0  0  0  0  0  0
  -19.0500  -40.4007   -8.8937 C   0  0  0  0  0  0  0  0  0  0  0  0
  -20.1576  -40.2364   -7.9331 C   0  0  0  0  0  0  0  0  0  0  0  0
  -21.0004  -41.3569   -7.4942 C   0  0  2  0  0  0  0  0  0  0  0  0
  -20.2742  -42.1991   -6.5532 N   0  0  0  0  0  0  0  0  0  0  0  0
  -19.9908  -43.5572   -6.4870 C   0  0  0  0  0  0  0  0  0  0  0  0
  -20.7443  -44.1078   -5.5200 O   0  0  0  0  0  0  0  0  0  0  0  0
  -21.8705  -42.0759   -8.4084 C   0  0  2  0  0  0  0  0  0  0  0  0
  -21.8553  -41.5749   -9.7351 O   0  0  0  0  0  0  0  0  0  0  0  0
  -23.2354  -42.4934   -8.1328 C   0  0  0  0  0  0  0  0  0  0  0  0
  -23.7369  -42.7830   -6.8718 N   0  0  0  0  0  0  0  0  0  0  0  0
  -24.1608  -41.8815   -5.9132 C   0  0  0  0  0  0  0  0  0  0  0  0
  -23.0028  -41.3133   -5.1112 C   0  0  0  0  0  0  0  0  0  0  0  0
  -21.7235  -41.7853   -5.2569 C   0  0  0  0  0  0  0  0  0  0  0  0
  -20.6570  -41.2793   -4.5355 C   0  0  0  0  0  0  0  0  0  0  0  0
  -20.9129  -40.2579   -3.6377 C   0  0  0  0  0  0  0  0  0  0  0  0
  -22.1834  -39.7574   -3.4630 C   0  0  0  0  0  0  0  0  0  0  0  0
  -23.2140  -40.2983   -4.2087 C   0  0  0  0  0  0  0  0  0  0  0  0
  -22.4553  -38.6703   -2.5108 C   0  0  0  0  0  0  0  0  0  0  0  0
  -21.4343  -38.6297   -1.3980 C   0  0  0  0  0  0  0  0  0  0  0  0
  -22.4548  -37.3093   -3.1962 C   0  0  0  0  0  0  0  0  0  0  0  0
  -17.7071  -40.6948   -8.7217 C   0  0  0  0  0  0  0  0  0  0  0  0
  1  2  1  0
  2  3  1  0
  3  4  2  0
  4  5  1  0
  5  6  2  0
  6  7  1  0
  7  8  2  0
  7  9  1  0
  9 10  1  0
  9 11  1  0
 11 12  1  0
 12 13  1  0
 13 14  1  0
 14 15  1  0
 15 16  1  0
 16 17  2  0
 17 18  1  0
 18 19  2  0
 19 20  1  0
 21 20  1  6
 21 22  1  0
 22 23  1  0
 23 24  2  0
 21 25  1  0
 25 26  1  6
 25 27  1  0
 27 28  1  0
 28 29  1  0
 29 30  1  0
 30 31  2  0
 31 32  1  0
 32 33  2  0
 33 34  1  0
 34 35  2  0
 34 36  1  0
 36 37  1  0
 36 38  1  0
 19 39  1  0
  8  3  1  0
 23  5  1  0
 35 30  1  0
 39 15  2  0
M  END
$$$$
