
     RDKit          3D

 39 42  0  0  0  0  0  0  0  0999 V2000
  -18.4602  -47.5084   -7.4998 C   0  0  0  0  0  0  0  0  0  0  0  0
  -19.1911  -46.6111   -8.3104 O   0  0  0  0  0  0  0  0  0  0  0  0
  -19.3204  -45.2817   -7.9103 C   0  0  0  0  0  0  0  0  0  0  0  0
  -18.5309  -44.2934   -8.4565 C   0  0  0  0  0  0  0  0  0  0  0  0
  -18.6047  -42.9254   -8.1004 C   0  0  0  0  0  0  0  0  0  0  0  0
  -19.5274  -42.5666   -7.1440 C   0  0  0  0  0  0  0  0  0  0  0  0
  -20.3169  -43.5436   -6.5986 C   0  0  0  0  0  0  0  0  0  0  0  0
  -20.1749  -44.8602   -7.0085 N   0  0  0  0  0  0  0  0  0  0  0  0
  -21.3844  -43.5159   -5.6355 N   0  0  0  0  0  0  0  0  0  0  0  0
  -21.3859  -44.5137   -4.5348 C   0  0  0  0  0  0  0  0  0  0  0  0
  -22.5423  -42.6474   -5.5934 C   0  0  0  0  0  0  0  0  0  0  0  0
  -22.3265  -41.4517   -6.4958 C   0  0  0  0  0  0  0  0  0  0  0  0
  -23.5650  -40.7644   -6.9470 C   0  0  0  0  0  0  0  0  0  0  0  0
  -23.1874  -39.4221   -7.4920 C   0  0  0  0  0  0  0  0  0  0  0  0
  -21.7614  -39.0083   -7.3581 C   0  0  0  0  0  0  0  0  0  0  0  0
  -21.5966  -38.2671   -6.1592 C   0  0  0  0  0  0  0  0  0  0  0  0
  -20.4128  -37.6960   -5.7767 C   0  0  0  0  0  0  0  0  0  0  0  0
  -19.3806  -37.8899   -6.6452 C   0  0  0  0  0  0  0  0  0  0  0  0
  -19.4617  -38.6159   -7.8613 C   0  0  0  0  0  0  0  0  0  0  0  0
  -18.1784  -38.5488   -8.5862 C   0  0  0  0  0  0  0  0  0  0  0  0
  -17.1439  -39.5849   -8.4660 C   0  0  2  0  0  0  0  0  0  0  0  0
  -17.5314  -40.7768   -9.2086 N   0  0  0  0  0  0  0  0  0  0  0  0
  -17.6488  -42.1231   -8.8879 C   0  0  0  0  0  0  0  0  0  0  0  0
  -16.6321  -42.7919   -9.4580 O   0  0  0  0  0  0  0  0  0  0  0  0
  -16.4499  -39.8451   -7.2167 C   0  0  2  0  0  0  0  0  0  0  0  0
  -16.6428  -38.8455   -6.2294 O   0  0  0  0  0  0  0  0  0  0  0  0
  -15.0773  -40.3054   -7.0858 C   0  0  0  0  0  0  0  0  0  0  0  0
  -14.4077  -41.0800   -8.0223 N   0  0  0  0  0  0  0  0  0  0  0  0
  -13.3277  -40.7049   -8.7995 C   0  0  0  0  0  0  0  0  0  0  0  0
  -13.7508  -39.8997  -10.0158 C   0  0  0  0  0  0  0  0  0  0  0  0
  -14.0085  -40.4971  -11.2230 C   0  0  0  0  0  0  0  0  0  0  0  0
  -14.3954  -39.7797  -12.3408 C   0  0  0  0  0  0  0  0  0  0  0  0
  -14.5213  -38.4074  -12.2141 C   0  0  0  0  0  0  0  0  0  0  0  0
  -14.2714  -37.7711  -11.0192 C   0  0  0  0  0  0  0  0  0  0  0  0
  -13.8875  -38.5345   -9.9327 C   0  0  0  0  0  0  0  0  0  0  0  0
  -14.4074  -36.3131  -10.8836 C   0  0  0  0  0  0  0  0  0  0  0  0
  -13.3337  -35.5751  -11.6482 C   0  0  0  0  0  0  0  0  0  0  0  0
  -15.7602  -35.8255  -11.3880 C   0  0  0  0  0  0  0  0  0  0  0  0
  -20.6860  -39.1751   -8.1896 C   0  0  0  0  0  0  0  0  0  0  0  0
  1  2  1  0
  2  3  1  0
  3  4  2  0
  4  5  1  0
  5  6  2  0
  6  7  1  0
  7  8  2  0
  7  9  1  0
  9 10  1  0
  9 11  1  0
 11 12  1  0
 12 13  1  0
 13 14  1  0
 14 15  1  0
 15 16  1  0
 16 17  2  0
 17 18  1  0
 18 19  2  0
 19 20  1  0
 21 20  1  1
 21 22  1  0
 22 23  1  0
 23 24  2  0
 21 25  1  0
 25 26  1  1
 25 27  1  0
 27 28  1  0
 28 29  1  0
 29 30  1  0
 30 31  2  0
 31 32  1  0
 32 33  2  0
 33 34  1  0
 34 35  2  0
 34 36  1  0
 36 37  1  0
 36 38  1  0
 19 39  1  0
  8  3  1  0
 23  5  1  0
 35 30  1  0
 39 15  2  0
M  END
$$$$
