
     RDKit          3D

 39 42  0  0  0  0  0  0  0  0999 V2000
  -18.6626  -47.3687   -7.6413 C   0  0  0  0  0  0  0  0  0  0  0  0
  -18.5140  -46.3169   -8.5731 O   0  0  0  0  0  0  0  0  0  0  0  0
  -18.8901  -45.0248   -8.2082 C   0  0  0  0  0  0  0  0  0  0  0  0
  -18.5324  -43.9360   -8.9729 C   0  0  0  0  0  0  0  0  0  0  0  0
  -18.8767  -42.5977   -8.6659 C   0  0  0  0  0  0  0  0  0  0  0  0
  -19.6165  -42.3773   -7.5263 C   0  0  0  0  0  0  0  0  0  0  0  0
  -19.9774  -43.4553   -6.7627 C   0  0  0  0  0  0  0  0  0  0  0  0
  -19.5949  -44.7331   -7.1409 N   0  0  0  0  0  0  0  0  0  0  0  0
  -20.7652  -43.5888   -5.5672 N   0  0  0  0  0  0  0  0  0  0  0  0
  -20.2544  -44.4384   -4.4606 C   0  0  0  0  0  0  0  0  0  0  0  0
  -22.0679  -43.0280   -5.2751 C   0  0  0  0  0  0  0  0  0  0  0  0
  -22.3839  -41.9152   -6.2510 C   0  0  0  0  0  0  0  0  0  0  0  0
  -23.8279  -41.5996   -6.4089 C   0  0  0  0  0  0  0  0  0  0  0  0
  -23.9484  -40.2692   -7.0850 C   0  0  0  0  0  0  0  0  0  0  0  0
  -22.6882  -39.5099   -7.3255 C   0  0  0  0  0  0  0  0  0  0  0  0
  -22.4522  -38.6315   -6.2363 C   0  0  0  0  0  0  0  0  0  0  0  0
  -21.4033  -37.7537   -6.1826 C   0  0  0  0  0  0  0  0  0  0  0  0
  -20.5836  -37.7793   -7.2711 C   0  0  0  0  0  0  0  0  0  0  0  0
  -20.7489  -38.6245   -8.3984 C   0  0  0  0  0  0  0  0  0  0  0  0
  -19.7289  -38.3227   -9.4207 C   0  0  0  0  0  0  0  0  0  0  0  0
  -18.4610  -39.0583   -9.5183 C   0  0  2  0  0  0  0  0  0  0  0  0
  -18.6838  -40.3786  -10.0924 N   0  0  0  0  0  0  0  0  0  0  0  0
  -18.3696  -41.6727   -9.6979 C   0  0  0  0  0  0  0  0  0  0  0  0
  -17.3723  -42.1295  -10.4742 O   0  0  0  0  0  0  0  0  0  0  0  0
  -17.4562  -39.0122   -8.4703 C   0  0  2  0  0  0  0  0  0  0  0  0
  -17.8357  -38.2454   -7.3393 O   0  0  0  0  0  0  0  0  0  0  0  0
  -16.0321  -38.7955   -8.6660 C   0  0  0  0  0  0  0  0  0  0  0  0
  -15.3798  -38.8658   -9.8886 N   0  0  0  0  0  0  0  0  0  0  0  0
  -14.0882  -39.2995  -10.1236 C   0  0  0  0  0  0  0  0  0  0  0  0
  -13.3235  -38.3521  -11.0318 C   0  0  0  0  0  0  0  0  0  0  0  0
  -13.8868  -37.8288  -12.1673 C   0  0  0  0  0  0  0  0  0  0  0  0
  -13.2056  -36.9643  -13.0055 C   0  0  0  0  0  0  0  0  0  0  0  0
  -11.9068  -36.6277  -12.6665 C   0  0  0  0  0  0  0  0  0  0  0  0
  -11.3067  -37.1324  -11.5350 C   0  0  0  0  0  0  0  0  0  0  0  0
  -12.0314  -37.9925  -10.7314 C   0  0  0  0  0  0  0  0  0  0  0  0
   -9.9274  -36.7730  -11.1731 C   0  0  0  0  0  0  0  0  0  0  0  0
   -8.9448  -37.1561  -12.2549 C   0  0  0  0  0  0  0  0  0  0  0  0
   -9.7844  -35.2772  -10.9194 C   0  0  0  0  0  0  0  0  0  0  0  0
  -21.8266  -39.4951   -8.3900 C   0  0  0  0  0  0  0  0  0  0  0  0
  1  2  1  0
  2  3  1  0
  3  4  2  0
  4  5  1  0
  5  6  2  0
  6  7  1  0
  7  8  2  0
  7  9  1  0
  9 10  1  0
  9 11  1  0
 11 12  1  0
 12 13  1  0
 13 14  1  0
 14 15  1  0
 15 16  1  0
 16 17  2  0
 17 18  1  0
 18 19  2  0
 19 20  1  0
 21 20  1  1
 21 22  1  0
 22 23  1  0
 23 24  2  0
 21 25  1  0
 25 26  1  1
 25 27  1  0
 27 28  1  0
 28 29  1  0
 29 30  1  0
 30 31  2  0
 31 32  1  0
 32 33  2  0
 33 34  1  0
 34 35  2  0
 34 36  1  0
 36 37  1  0
 36 38  1  0
 19 39  1  0
  8  3  1  0
 23  5  1  0
 35 30  1  0
 39 15  2  0
M  END
$$$$
