
     RDKit          3D

 39 42  0  0  0  0  0  0  0  0999 V2000
  -21.1923  -47.0951   -6.9930 C   0  0  0  0  0  0  0  0  0  0  0  0
  -20.2336  -46.2630   -7.6136 O   0  0  0  0  0  0  0  0  0  0  0  0
  -20.2853  -44.8862   -7.3993 C   0  0  0  0  0  0  0  0  0  0  0  0
  -19.4379  -44.0290   -8.0667 C   0  0  0  0  0  0  0  0  0  0  0  0
  -19.4319  -42.6232   -7.9006 C   0  0  0  0  0  0  0  0  0  0  0  0
  -20.3340  -42.0846   -7.0115 C   0  0  0  0  0  0  0  0  0  0  0  0
  -21.1809  -42.9306   -6.3464 C   0  0  0  0  0  0  0  0  0  0  0  0
  -21.1157  -44.2969   -6.5721 N   0  0  0  0  0  0  0  0  0  0  0  0
  -22.2470  -42.7101   -5.4071 N   0  0  0  0  0  0  0  0  0  0  0  0
  -22.3098  -43.5468   -4.1810 C   0  0  0  0  0  0  0  0  0  0  0  0
  -23.3520  -41.7783   -5.4953 C   0  0  0  0  0  0  0  0  0  0  0  0
  -23.0642  -40.7314   -6.5496 C   0  0  0  0  0  0  0  0  0  0  0  0
  -24.2591  -40.0414   -7.1028 C   0  0  0  0  0  0  0  0  0  0  0  0
  -23.8019  -38.8101   -7.8213 C   0  0  0  0  0  0  0  0  0  0  0  0
  -22.3544  -38.4653   -7.7302 C   0  0  0  0  0  0  0  0  0  0  0  0
  -22.1490  -37.5784   -6.6417 C   0  0  0  0  0  0  0  0  0  0  0  0
  -20.9346  -37.0300   -6.3281 C   0  0  0  0  0  0  0  0  0  0  0  0
  -19.9136  -37.4000   -7.1516 C   0  0  0  0  0  0  0  0  0  0  0  0
  -20.0345  -38.2790   -8.2584 C   0  0  0  0  0  0  0  0  0  0  0  0
  -18.7478  -38.3859   -8.9725 C   0  0  0  0  0  0  0  0  0  0  0  0
  -17.7763  -39.4541   -8.7019 C   0  0  2  0  0  0  0  0  0  0  0  0
  -18.2315  -40.7116   -9.2796 N   0  0  0  0  0  0  0  0  0  0  0  0
  -18.4287  -41.9926   -8.7801 C   0  0  0  0  0  0  0  0  0  0  0  0
  -17.4517  -42.7906   -9.2435 O   0  0  0  0  0  0  0  0  0  0  0  0
  -17.1017  -39.5814   -7.4218 C   0  0  2  0  0  0  0  0  0  0  0  0
  -16.7825  -38.3419   -6.8111 O   0  0  0  0  0  0  0  0  0  0  0  0
  -16.0074  -40.4907   -7.1234 C   0  0  0  0  0  0  0  0  0  0  0  0
  -14.7216  -40.3784   -7.6327 N   0  0  0  0  0  0  0  0  0  0  0  0
  -14.0798  -41.2576   -8.4849 C   0  0  0  0  0  0  0  0  0  0  0  0
  -14.7816  -41.3673   -9.8275 C   0  0  0  0  0  0  0  0  0  0  0  0
  -14.3300  -42.2093  -10.8113 C   0  0  0  0  0  0  0  0  0  0  0  0
  -14.9568  -42.3225  -12.0394 C   0  0  0  0  0  0  0  0  0  0  0  0
  -16.0811  -41.5473  -12.2630 C   0  0  0  0  0  0  0  0  0  0  0  0
  -16.5649  -40.6902  -11.3004 C   0  0  0  0  0  0  0  0  0  0  0  0
  -15.9013  -40.6148  -10.0902 C   0  0  0  0  0  0  0  0  0  0  0  0
  -17.7611  -39.8681  -11.5369 C   0  0  0  0  0  0  0  0  0  0  0  0
  -17.4023  -38.4542  -11.9299 C   0  0  0  0  0  0  0  0  0  0  0  0
  -18.6360  -40.4526  -12.6393 C   0  0  0  0  0  0  0  0  0  0  0  0
  -21.2888  -38.8059   -8.5203 C   0  0  0  0  0  0  0  0  0  0  0  0
  1  2  1  0
  2  3  1  0
  3  4  2  0
  4  5  1  0
  5  6  2  0
  6  7  1  0
  7  8  2  0
  7  9  1  0
  9 10  1  0
  9 11  1  0
 11 12  1  0
 12 13  1  0
 13 14  1  0
 14 15  1  0
 15 16  1  0
 16 17  2  0
 17 18  1  0
 18 19  2  0
 19 20  1  0
 21 20  1  1
 21 22  1  0
 22 23  1  0
 23 24  2  0
 21 25  1  0
 25 26  1  6
 25 27  1  0
 27 28  1  0
 28 29  1  0
 29 30  1  0
 30 31  2  0
 31 32  1  0
 32 33  2  0
 33 34  1  0
 34 35  2  0
 34 36  1  0
 36 37  1  0
 36 38  1  0
 19 39  1  0
  8  3  1  0
 23  5  1  0
 35 30  1  0
 39 15  2  0
M  END
$$$$
