
     RDKit          3D

 39 42  0  0  0  0  0  0  0  0999 V2000
  -20.0051  -47.4051   -8.6148 C   0  0  0  0  0  0  0  0  0  0  0  0
  -18.9461  -46.4699   -8.6401 O   0  0  0  0  0  0  0  0  0  0  0  0
  -19.1794  -45.1643   -8.2101 C   0  0  0  0  0  0  0  0  0  0  0  0
  -18.4972  -44.1007   -8.7593 C   0  0  0  0  0  0  0  0  0  0  0  0
  -18.6801  -42.7509   -8.3740 C   0  0  0  0  0  0  0  0  0  0  0  0
  -19.6008  -42.4918   -7.3842 C   0  0  0  0  0  0  0  0  0  0  0  0
  -20.2841  -43.5441   -6.8355 C   0  0  0  0  0  0  0  0  0  0  0  0
  -20.0396  -44.8357   -7.2756 N   0  0  0  0  0  0  0  0  0  0  0  0
  -21.3197  -43.6276   -5.8414 N   0  0  0  0  0  0  0  0  0  0  0  0
  -21.1996  -44.6405   -4.7612 C   0  0  0  0  0  0  0  0  0  0  0  0
  -22.5478  -42.8659   -5.7482 C   0  0  0  0  0  0  0  0  0  0  0  0
  -22.4659  -41.6405   -6.6326 C   0  0  0  0  0  0  0  0  0  0  0  0
  -23.7734  -41.0578   -7.0337 C   0  0  0  0  0  0  0  0  0  0  0  0
  -23.5323  -39.6781   -7.5627 C   0  0  0  0  0  0  0  0  0  0  0  0
  -22.1448  -39.1421   -7.4622 C   0  0  0  0  0  0  0  0  0  0  0  0
  -22.0090  -38.4100   -6.2542 C   0  0  0  0  0  0  0  0  0  0  0  0
  -20.8688  -37.7430   -5.8950 C   0  0  0  0  0  0  0  0  0  0  0  0
  -19.8508  -37.8297   -6.7970 C   0  0  0  0  0  0  0  0  0  0  0  0
  -19.9052  -38.5390   -8.0244 C   0  0  0  0  0  0  0  0  0  0  0  0
  -18.6557  -38.3461   -8.7849 C   0  0  0  0  0  0  0  0  0  0  0  0
  -17.5308  -39.2884   -8.7156 C   0  0  2  0  0  0  0  0  0  0  0  0
  -17.8346  -40.4969   -9.4702 N   0  0  0  0  0  0  0  0  0  0  0  0
  -17.8232  -41.8537   -9.1730 C   0  0  0  0  0  0  0  0  0  0  0  0
  -16.7696  -42.4199   -9.7858 O   0  0  0  0  0  0  0  0  0  0  0  0
  -16.7785  -39.5077   -7.4925 C   0  0  2  0  0  0  0  0  0  0  0  0
  -17.1844  -38.6871   -6.4094 O   0  0  0  0  0  0  0  0  0  0  0  0
  -15.3348  -39.6478   -7.3951 C   0  0  0  0  0  0  0  0  0  0  0  0
  -14.5855  -40.6131   -8.0525 N   0  0  0  0  0  0  0  0  0  0  0  0
  -13.8192  -40.4453   -9.1908 C   0  0  0  0  0  0  0  0  0  0  0  0
  -14.6174  -39.8415  -10.3333 C   0  0  0  0  0  0  0  0  0  0  0  0
  -15.0957  -40.6089  -11.3643 C   0  0  0  0  0  0  0  0  0  0  0  0
  -15.8248  -40.0762  -12.4124 C   0  0  0  0  0  0  0  0  0  0  0  0
  -16.0696  -38.7142  -12.4006 C   0  0  0  0  0  0  0  0  0  0  0  0
  -15.6061  -37.9106  -11.3834 C   0  0  0  0  0  0  0  0  0  0  0  0
  -14.8825  -38.4930  -10.3598 C   0  0  0  0  0  0  0  0  0  0  0  0
  -15.8681  -36.4636  -11.3693 C   0  0  0  0  0  0  0  0  0  0  0  0
  -16.6789  -36.0513  -10.1631 C   0  0  0  0  0  0  0  0  0  0  0  0
  -14.5745  -35.6581  -11.3612 C   0  0  0  0  0  0  0  0  0  0  0  0
  -21.0850  -39.1987   -8.3279 C   0  0  0  0  0  0  0  0  0  0  0  0
  1  2  1  0
  2  3  1  0
  3  4  2  0
  4  5  1  0
  5  6  2  0
  6  7  1  0
  7  8  2  0
  7  9  1  0
  9 10  1  0
  9 11  1  0
 11 12  1  0
 12 13  1  0
 13 14  1  0
 14 15  1  0
 15 16  1  0
 16 17  2  0
 17 18  1  0
 18 19  2  0
 19 20  1  0
 21 20  1  1
 21 22  1  0
 22 23  1  0
 23 24  2  0
 21 25  1  0
 25 26  1  1
 25 27  1  0
 27 28  1  0
 28 29  1  0
 29 30  1  0
 30 31  2  0
 31 32  1  0
 32 33  2  0
 33 34  1  0
 34 35  2  0
 34 36  1  0
 36 37  1  0
 36 38  1  0
 19 39  1  0
  8  3  1  0
 23  5  1  0
 35 30  1  0
 39 15  2  0
M  END
$$$$
