
     RDKit          3D

 39 42  0  0  0  0  0  0  0  0999 V2000
  -20.4224  -46.8030   -7.8733 C   0  0  0  0  0  0  0  0  0  0  0  0
  -19.3214  -45.9448   -8.0922 O   0  0  0  0  0  0  0  0  0  0  0  0
  -19.4826  -44.5711   -7.9164 C   0  0  0  0  0  0  0  0  0  0  0  0
  -18.8805  -43.6686   -8.7658 C   0  0  0  0  0  0  0  0  0  0  0  0
  -18.9980  -42.2628   -8.6495 C   0  0  0  0  0  0  0  0  0  0  0  0
  -19.7647  -41.7724   -7.6170 C   0  0  0  0  0  0  0  0  0  0  0  0
  -20.3679  -42.6638   -6.7703 C   0  0  0  0  0  0  0  0  0  0  0  0
  -20.1969  -44.0264   -6.9603 N   0  0  0  0  0  0  0  0  0  0  0  0
  -21.2496  -42.5035   -5.6458 N   0  0  0  0  0  0  0  0  0  0  0  0
  -20.9808  -43.2757   -4.4053 C   0  0  0  0  0  0  0  0  0  0  0  0
  -22.4469  -41.6955   -5.5430 C   0  0  0  0  0  0  0  0  0  0  0  0
  -22.4863  -40.6823   -6.6667 C   0  0  0  0  0  0  0  0  0  0  0  0
  -23.8346  -40.1484   -6.9937 C   0  0  0  0  0  0  0  0  0  0  0  0
  -23.6643  -38.9169   -7.8279 C   0  0  0  0  0  0  0  0  0  0  0  0
  -22.2737  -38.4217   -8.0369 C   0  0  0  0  0  0  0  0  0  0  0  0
  -21.9607  -37.4618   -7.0398 C   0  0  0  0  0  0  0  0  0  0  0  0
  -20.7767  -36.7764   -6.9911 C   0  0  0  0  0  0  0  0  0  0  0  0
  -19.9001  -37.0835   -7.9884 C   0  0  0  0  0  0  0  0  0  0  0  0
  -20.1351  -38.0281   -9.0204 C   0  0  0  0  0  0  0  0  0  0  0  0
  -19.0074  -38.0409   -9.9716 C   0  0  0  0  0  0  0  0  0  0  0  0
  -17.8897  -38.9884   -9.8649 C   0  0  2  0  0  0  0  0  0  0  0  0
  -18.3063  -40.3148  -10.3000 N   0  0  0  0  0  0  0  0  0  0  0  0
  -18.2601  -41.5807   -9.7304 C   0  0  0  0  0  0  0  0  0  0  0  0
  -17.3093  -42.2985  -10.3524 O   0  0  0  0  0  0  0  0  0  0  0  0
  -16.9701  -38.9778   -8.7405 C   0  0  2  0  0  0  0  0  0  0  0  0
  -17.0637  -37.8190   -7.9284 O   0  0  0  0  0  0  0  0  0  0  0  0
  -15.5644  -39.3451   -8.7876 C   0  0  0  0  0  0  0  0  0  0  0  0
  -15.0866  -40.6225   -9.0437 N   0  0  0  0  0  0  0  0  0  0  0  0
  -14.9431  -41.2300  -10.2773 C   0  0  0  0  0  0  0  0  0  0  0  0
  -14.0801  -40.4105  -11.2211 C   0  0  0  0  0  0  0  0  0  0  0  0
  -13.7167  -40.8795  -12.4575 C   0  0  0  0  0  0  0  0  0  0  0  0
  -12.9320  -40.1468  -13.3301 C   0  0  0  0  0  0  0  0  0  0  0  0
  -12.5082  -38.8950  -12.9197 C   0  0  0  0  0  0  0  0  0  0  0  0
  -12.8520  -38.3896  -11.6862 C   0  0  0  0  0  0  0  0  0  0  0  0
  -13.6380  -39.1625  -10.8521 C   0  0  0  0  0  0  0  0  0  0  0  0
  -12.4039  -37.0584  -11.2508 C   0  0  0  0  0  0  0  0  0  0  0  0
  -11.8774  -36.2377  -12.4047 C   0  0  0  0  0  0  0  0  0  0  0  0
  -13.5321  -36.2725  -10.5938 C   0  0  0  0  0  0  0  0  0  0  0  0
  -21.3503  -38.6934   -9.0112 C   0  0  0  0  0  0  0  0  0  0  0  0
  1  2  1  0
  2  3  1  0
  3  4  2  0
  4  5  1  0
  5  6  2  0
  6  7  1  0
  7  8  2  0
  7  9  1  0
  9 10  1  0
  9 11  1  0
 11 12  1  0
 12 13  1  0
 13 14  1  0
 14 15  1  0
 15 16  1  0
 16 17  2  0
 17 18  1  0
 18 19  2  0
 19 20  1  0
 21 20  1  1
 21 22  1  0
 22 23  1  0
 23 24  2  0
 21 25  1  0
 25 26  1  6
 25 27  1  0
 27 28  1  0
 28 29  1  0
 29 30  1  0
 30 31  2  0
 31 32  1  0
 32 33  2  0
 33 34  1  0
 34 35  2  0
 34 36  1  0
 36 37  1  0
 36 38  1  0
 19 39  1  0
  8  3  1  0
 23  5  1  0
 35 30  1  0
 39 15  2  0
M  END
$$$$
