
     RDKit          3D

 38 40  0  0  0  0  0  0  0  0999 V2000
  -16.9748  -45.2117  -11.9069 C   0  0  0  0  0  0  0  0  0  0  0  0
  -16.9652  -45.2203  -10.5106 O   0  0  0  0  0  0  0  0  0  0  0  0
  -18.2367  -45.4737  -10.0128 C   0  0  0  0  0  0  0  0  0  0  0  0
  -18.4726  -44.7013   -8.7601 C   0  0  0  0  0  0  0  0  0  0  0  0
  -19.5177  -44.9821   -7.9264 C   0  0  0  0  0  0  0  0  0  0  0  0
  -19.7808  -44.2671   -6.7223 C   0  0  0  0  0  0  0  0  0  0  0  0
  -18.9423  -43.2292   -6.3637 C   0  0  0  0  0  0  0  0  0  0  0  0
  -17.8758  -42.9168   -7.1846 C   0  0  0  0  0  0  0  0  0  0  0  0
  -17.6694  -43.6712   -8.3720 C   0  0  0  0  0  0  0  0  0  0  0  0
  -16.8322  -41.8907   -7.0882 C   0  0  0  0  0  0  0  0  0  0  0  0
  -15.5641  -42.2485   -7.2499 O   0  0  0  0  0  0  0  0  0  0  0  0
  -16.9151  -40.4890   -6.8423 N   0  0  0  0  0  0  0  0  0  0  0  0
  -17.7484  -39.5717   -7.6501 C   0  0  1  0  0  0  0  0  0  0  0  0
  -18.5722  -38.7396   -6.7233 C   0  0  0  0  0  0  0  0  0  0  0  0
  -19.9348  -39.3809   -6.5441 C   0  0  2  0  0  0  0  0  0  0  0  0
  -20.5482  -39.7993   -7.8842 C   0  0  0  0  0  0  0  0  0  0  0  0
  -20.8949  -38.4995   -5.8108 C   0  0  0  0  0  0  0  0  0  0  0  0
  -21.5957  -39.1752   -4.6659 C   0  0  0  0  0  0  0  0  0  0  0  0
  -22.8077  -39.9798   -5.0811 C   0  0  0  0  0  0  0  0  0  0  0  0
  -22.4344  -41.4455   -5.1350 C   0  0  0  0  0  0  0  0  0  0  0  0
  -23.5858  -42.3629   -5.4022 C   0  0  0  0  0  0  0  0  0  0  0  0
  -23.0589  -43.5550   -6.2138 C   0  0  0  0  0  0  0  0  0  0  0  0
  -22.0373  -44.2406   -5.3708 C   0  0  0  0  0  0  0  0  0  0  0  0
  -20.9324  -44.8287   -6.0955 N   0  0  0  0  0  0  0  0  0  0  0  0
  -16.8621  -38.8126   -8.5744 C   0  0  2  0  0  0  0  0  0  0  0  0
  -17.5518  -38.2094   -9.6379 O   0  0  0  0  0  0  0  0  0  0  0  0
  -15.6650  -39.5190   -9.0972 C   0  0  0  0  0  0  0  0  0  0  0  0
  -14.4901  -39.3007   -8.3172 N   0  0  0  0  0  0  0  0  0  0  0  0
  -13.2900  -39.8315   -8.9448 C   0  0  0  0  0  0  0  0  0  0  0  0
  -13.1325  -39.1911  -10.2873 C   0  0  0  0  0  0  0  0  0  0  0  0
  -12.7021  -37.8948  -10.3664 C   0  0  0  0  0  0  0  0  0  0  0  0
  -12.5787  -37.2728  -11.5783 C   0  0  0  0  0  0  0  0  0  0  0  0
  -12.8899  -37.9505  -12.7592 C   0  0  0  0  0  0  0  0  0  0  0  0
  -13.3183  -39.2498  -12.6469 C   0  0  0  0  0  0  0  0  0  0  0  0
  -13.4453  -39.8835  -11.4324 C   0  0  0  0  0  0  0  0  0  0  0  0
  -12.0939  -35.8588  -11.7239 C   0  0  0  0  0  0  0  0  0  0  0  0
  -11.0734  -35.8319  -12.8713 C   0  0  0  0  0  0  0  0  0  0  0  0
  -11.3618  -35.4132  -10.4999 C   0  0  0  0  0  0  0  0  0  0  0  0
  1  2  1  0
  2  3  1  0
  3  4  1  0
  4  5  2  0
  5  6  1  0
  6  7  2  0
  7  8  1  0
  8  9  2  0
  8 10  1  0
 10 11  2  0
 10 12  1  0
 12 13  1  0
 13 14  1  1
 14 15  1  0
 15 16  1  6
 15 17  1  0
 17 18  1  0
 18 19  1  0
 19 20  1  0
 20 21  1  0
 21 22  1  0
 22 23  1  0
 23 24  1  0
 13 25  1  0
 25 26  1  6
 25 27  1  0
 27 28  1  0
 28 29  1  0
 29 30  1  0
 30 31  2  0
 31 32  1  0
 32 33  2  0
 33 34  1  0
 34 35  2  0
 32 36  1  0
 36 37  1  0
 36 38  1  0
  9  4  1  0
 24  6  1  0
 35 30  1  0
M  END
$$$$
