
     RDKit          3D

 38 40  0  0  0  0  0  0  0  0999 V2000
  -19.0503  -42.9694  -11.9070 C   0  0  0  0  0  0  0  0  0  0  0  0
  -17.7274  -43.4124  -11.9649 O   0  0  0  0  0  0  0  0  0  0  0  0
  -17.5416  -44.5121  -11.1374 C   0  0  0  0  0  0  0  0  0  0  0  0
  -17.9521  -44.1923   -9.7407 C   0  0  0  0  0  0  0  0  0  0  0  0
  -19.1249  -44.6509   -9.2113 C   0  0  0  0  0  0  0  0  0  0  0  0
  -19.5561  -44.3662   -7.8835 C   0  0  0  0  0  0  0  0  0  0  0  0
  -18.7555  -43.5842   -7.0733 C   0  0  0  0  0  0  0  0  0  0  0  0
  -17.5626  -43.1022   -7.5767 C   0  0  0  0  0  0  0  0  0  0  0  0
  -17.1912  -43.4247   -8.9108 C   0  0  0  0  0  0  0  0  0  0  0  0
  -16.5180  -42.2595   -6.9852 C   0  0  0  0  0  0  0  0  0  0  0  0
  -15.2515  -42.6454   -7.0817 O   0  0  0  0  0  0  0  0  0  0  0  0
  -16.5977  -41.0220   -6.2821 N   0  0  0  0  0  0  0  0  0  0  0  0
  -17.2635  -39.8196   -6.8295 C   0  0  1  0  0  0  0  0  0  0  0  0
  -18.2000  -39.2848   -5.7966 C   0  0  0  0  0  0  0  0  0  0  0  0
  -19.5921  -39.8337   -6.0438 C   0  0  2  0  0  0  0  0  0  0  0  0
  -19.9952  -39.7215   -7.5176 C   0  0  0  0  0  0  0  0  0  0  0  0
  -20.6307  -39.1758   -5.1924 C   0  0  0  0  0  0  0  0  0  0  0  0
  -21.5253  -40.1385   -4.4633 C   0  0  0  0  0  0  0  0  0  0  0  0
  -22.6785  -40.6516   -5.2972 C   0  0  0  0  0  0  0  0  0  0  0  0
  -22.3450  -42.0383   -5.8038 C   0  0  0  0  0  0  0  0  0  0  0  0
  -23.4653  -42.7122   -6.5311 C   0  0  0  0  0  0  0  0  0  0  0  0
  -22.8508  -43.5988   -7.6237 C   0  0  0  0  0  0  0  0  0  0  0  0
  -21.9980  -44.6115   -6.9370 C   0  0  0  0  0  0  0  0  0  0  0  0
  -20.8092  -45.0092   -7.6584 N   0  0  0  0  0  0  0  0  0  0  0  0
  -16.2186  -38.8689   -7.2992 C   0  0  2  0  0  0  0  0  0  0  0  0
  -16.6620  -38.0132   -8.3198 O   0  0  0  0  0  0  0  0  0  0  0  0
  -14.8998  -39.4416   -7.6705 C   0  0  0  0  0  0  0  0  0  0  0  0
  -14.5780  -39.2798   -9.0514 N   0  0  0  0  0  0  0  0  0  0  0  0
  -13.7232  -38.1294   -9.3001 C   0  0  0  0  0  0  0  0  0  0  0  0
  -14.1022  -37.5315  -10.6176 C   0  0  0  0  0  0  0  0  0  0  0  0
  -15.1557  -36.6609  -10.6816 C   0  0  0  0  0  0  0  0  0  0  0  0
  -15.5451  -36.1228  -11.8772 C   0  0  0  0  0  0  0  0  0  0  0  0
  -14.8733  -36.4520  -13.0566 C   0  0  0  0  0  0  0  0  0  0  0  0
  -13.8204  -37.3274  -12.9595 C   0  0  0  0  0  0  0  0  0  0  0  0
  -13.4216  -37.8735  -11.7615 C   0  0  0  0  0  0  0  0  0  0  0  0
  -16.6819  -35.1492  -12.0019 C   0  0  0  0  0  0  0  0  0  0  0  0
  -16.2114  -33.9963  -12.9010 C   0  0  0  0  0  0  0  0  0  0  0  0
  -17.0158  -34.5408  -10.6787 C   0  0  0  0  0  0  0  0  0  0  0  0
  1  2  1  0
  2  3  1  0
  3  4  1  0
  4  5  2  0
  5  6  1  0
  6  7  2  0
  7  8  1  0
  8  9  2  0
  8 10  1  0
 10 11  2  0
 10 12  1  0
 12 13  1  0
 13 14  1  1
 14 15  1  0
 15 16  1  6
 15 17  1  0
 17 18  1  0
 18 19  1  0
 19 20  1  0
 20 21  1  0
 21 22  1  0
 22 23  1  0
 23 24  1  0
 13 25  1  0
 25 26  1  6
 25 27  1  0
 27 28  1  0
 28 29  1  0
 29 30  1  0
 30 31  2  0
 31 32  1  0
 32 33  2  0
 33 34  1  0
 34 35  2  0
 32 36  1  0
 36 37  1  0
 36 38  1  0
  9  4  1  0
 24  6  1  0
 35 30  1  0
M  END
$$$$
