
     RDKit          3D

 38 40  0  0  0  0  0  0  0  0999 V2000
  -23.8335  -43.7245   -6.0425 C   0  0  0  0  0  0  0  0  0  0  0  0
  -22.6291  -43.0195   -5.9973 O   0  0  0  0  0  0  0  0  0  0  0  0
  -21.5503  -43.8933   -5.9587 C   0  0  0  0  0  0  0  0  0  0  0  0
  -20.7010  -43.7313   -7.1727 C   0  0  0  0  0  0  0  0  0  0  0  0
  -20.1821  -44.8059   -7.8378 C   0  0  0  0  0  0  0  0  0  0  0  0
  -19.3637  -44.6953   -8.9989 C   0  0  0  0  0  0  0  0  0  0  0  0
  -19.0688  -43.4389   -9.4924 C   0  0  0  0  0  0  0  0  0  0  0  0
  -19.5760  -42.3295   -8.8436 C   0  0  0  0  0  0  0  0  0  0  0  0
  -20.3872  -42.5103   -7.6900 C   0  0  0  0  0  0  0  0  0  0  0  0
  -19.4426  -40.8931   -9.1081 C   0  0  0  0  0  0  0  0  0  0  0  0
  -20.5364  -40.1411   -9.1321 O   0  0  0  0  0  0  0  0  0  0  0  0
  -18.2929  -40.0882   -9.3581 N   0  0  0  0  0  0  0  0  0  0  0  0
  -17.1280  -40.0330   -8.4478 C   0  0  1  0  0  0  0  0  0  0  0  0
  -15.8872  -40.2384   -9.2530 C   0  0  0  0  0  0  0  0  0  0  0  0
  -15.4992  -41.7041   -9.2188 C   0  0  2  0  0  0  0  0  0  0  0  0
  -15.5448  -42.2724   -7.7968 C   0  0  0  0  0  0  0  0  0  0  0  0
  -14.1504  -41.9575   -9.8129 C   0  0  0  0  0  0  0  0  0  0  0  0
  -14.1270  -43.0622  -10.8316 C   0  0  0  0  0  0  0  0  0  0  0  0
  -14.0103  -44.4452  -10.2298 C   0  0  0  0  0  0  0  0  0  0  0  0
  -15.3773  -45.0945  -10.2120 C   0  0  0  0  0  0  0  0  0  0  0  0
  -15.3732  -46.5221   -9.7641 C   0  0  0  0  0  0  0  0  0  0  0  0
  -16.6921  -46.7865   -9.0237 C   0  0  0  0  0  0  0  0  0  0  0  0
  -17.7956  -46.5549   -9.9999 C   0  0  0  0  0  0  0  0  0  0  0  0
  -19.0104  -46.0049   -9.4397 N   0  0  0  0  0  0  0  0  0  0  0  0
  -17.1866  -38.7614   -7.6761 C   0  0  2  0  0  0  0  0  0  0  0  0
  -16.3481  -38.7537   -6.5503 O   0  0  0  0  0  0  0  0  0  0  0  0
  -18.5322  -38.2619   -7.2953 C   0  0  0  0  0  0  0  0  0  0  0  0
  -18.7694  -36.9106   -7.6883 N   0  0  0  0  0  0  0  0  0  0  0  0
  -19.7845  -36.7945   -8.7237 C   0  0  0  0  0  0  0  0  0  0  0  0
  -19.1060  -36.7923  -10.0566 C   0  0  0  0  0  0  0  0  0  0  0  0
  -18.1420  -35.8573  -10.3177 C   0  0  0  0  0  0  0  0  0  0  0  0
  -17.5266  -35.8110  -11.5384 C   0  0  0  0  0  0  0  0  0  0  0  0
  -17.8711  -36.7188  -12.5422 C   0  0  0  0  0  0  0  0  0  0  0  0
  -18.8411  -37.6450  -12.2495 C   0  0  0  0  0  0  0  0  0  0  0  0
  -19.4653  -37.6992  -11.0247 C   0  0  0  0  0  0  0  0  0  0  0  0
  -16.4503  -34.8181  -11.8721 C   0  0  0  0  0  0  0  0  0  0  0  0
  -16.3879  -34.6950  -13.4018 C   0  0  0  0  0  0  0  0  0  0  0  0
  -15.1094  -35.3122  -11.4354 C   0  0  0  0  0  0  0  0  0  0  0  0
  1  2  1  0
  2  3  1  0
  3  4  1  0
  4  5  2  0
  5  6  1  0
  6  7  2  0
  7  8  1  0
  8  9  2  0
  8 10  1  0
 10 11  2  0
 10 12  1  0
 12 13  1  0
 13 14  1  6
 14 15  1  0
 15 16  1  1
 15 17  1  0
 17 18  1  0
 18 19  1  0
 19 20  1  0
 20 21  1  0
 21 22  1  0
 22 23  1  0
 23 24  1  0
 13 25  1  0
 25 26  1  1
 25 27  1  0
 27 28  1  0
 28 29  1  0
 29 30  1  0
 30 31  2  0
 31 32  1  0
 32 33  2  0
 33 34  1  0
 34 35  2  0
 32 36  1  0
 36 37  1  0
 36 38  1  0
  9  4  1  0
 24  6  1  0
 35 30  1  0
M  END
$$$$
