
     RDKit          3D

 38 40  0  0  0  0  0  0  0  0999 V2000
  -20.3777  -42.7362  -14.1763 C   0  0  0  0  0  0  0  0  0  0  0  0
  -19.6573  -41.5523  -14.0060 O   0  0  0  0  0  0  0  0  0  0  0  0
  -20.3082  -40.7053  -13.1186 C   0  0  0  0  0  0  0  0  0  0  0  0
  -20.1878  -41.2153  -11.7233 C   0  0  0  0  0  0  0  0  0  0  0  0
  -21.2414  -41.7939  -11.0741 C   0  0  0  0  0  0  0  0  0  0  0  0
  -21.1700  -42.2911   -9.7407 C   0  0  0  0  0  0  0  0  0  0  0  0
  -19.9765  -42.1899   -9.0519 C   0  0  0  0  0  0  0  0  0  0  0  0
  -18.8904  -41.6088   -9.6777 C   0  0  0  0  0  0  0  0  0  0  0  0
  -19.0292  -41.1338  -11.0106 C   0  0  0  0  0  0  0  0  0  0  0  0
  -17.5191  -41.3531   -9.2244 C   0  0  0  0  0  0  0  0  0  0  0  0
  -16.5077  -41.7183  -10.0028 O   0  0  0  0  0  0  0  0  0  0  0  0
  -17.0228  -40.7453   -8.0343 N   0  0  0  0  0  0  0  0  0  0  0  0
  -17.4282  -39.3962   -7.5827 C   0  0  1  0  0  0  0  0  0  0  0  0
  -17.8271  -39.4774   -6.1459 C   0  0  0  0  0  0  0  0  0  0  0  0
  -19.3292  -39.6633   -6.0480 C   0  0  2  0  0  0  0  0  0  0  0  0
  -20.0843  -38.6890   -6.9576 C   0  0  0  0  0  0  0  0  0  0  0  0
  -19.8363  -39.5313   -4.6474 C   0  0  0  0  0  0  0  0  0  0  0  0
  -20.7292  -40.6583   -4.2100 C   0  0  0  0  0  0  0  0  0  0  0  0
  -22.1706  -40.4974   -4.6399 C   0  0  0  0  0  0  0  0  0  0  0  0
  -22.4239  -41.3611   -5.8568 C   0  0  0  0  0  0  0  0  0  0  0  0
  -23.8528  -41.3951   -6.2989 C   0  0  0  0  0  0  0  0  0  0  0  0
  -23.8689  -41.5382   -7.8276 C   0  0  0  0  0  0  0  0  0  0  0  0
  -23.1969  -42.8293   -8.1530 C   0  0  0  0  0  0  0  0  0  0  0  0
  -22.4384  -42.8375   -9.3844 N   0  0  0  0  0  0  0  0  0  0  0  0
  -16.3279  -38.4411   -7.8880 C   0  0  2  0  0  0  0  0  0  0  0  0
  -16.3623  -37.2807   -7.0989 O   0  0  0  0  0  0  0  0  0  0  0  0
  -16.1318  -38.0669   -9.3116 C   0  0  0  0  0  0  0  0  0  0  0  0
  -15.3029  -38.9794  -10.0305 N   0  0  0  0  0  0  0  0  0  0  0  0
  -13.9051  -38.9027   -9.6355 C   0  0  0  0  0  0  0  0  0  0  0  0
  -13.0852  -38.5898  -10.8467 C   0  0  0  0  0  0  0  0  0  0  0  0
  -12.9239  -39.5446  -11.8132 C   0  0  0  0  0  0  0  0  0  0  0  0
  -12.1540  -39.2981  -12.9166 C   0  0  0  0  0  0  0  0  0  0  0  0
  -11.5177  -38.0653  -13.0775 C   0  0  0  0  0  0  0  0  0  0  0  0
  -11.6995  -37.1280  -12.0912 C   0  0  0  0  0  0  0  0  0  0  0  0
  -12.4720  -37.3670  -10.9782 C   0  0  0  0  0  0  0  0  0  0  0  0
  -11.9580  -40.3029  -14.0155 C   0  0  0  0  0  0  0  0  0  0  0  0
  -12.2699  -41.6916  -13.4383 C   0  0  0  0  0  0  0  0  0  0  0  0
  -10.5316  -40.3428  -14.4587 C   0  0  0  0  0  0  0  0  0  0  0  0
  1  2  1  0
  2  3  1  0
  3  4  1  0
  4  5  2  0
  5  6  1  0
  6  7  2  0
  7  8  1  0
  8  9  2  0
  8 10  1  0
 10 11  2  0
 10 12  1  0
 12 13  1  0
 13 14  1  1
 14 15  1  0
 15 16  1  6
 15 17  1  0
 17 18  1  0
 18 19  1  0
 19 20  1  0
 20 21  1  0
 21 22  1  0
 22 23  1  0
 23 24  1  0
 13 25  1  0
 25 26  1  1
 25 27  1  0
 27 28  1  0
 28 29  1  0
 29 30  1  0
 30 31  2  0
 31 32  1  0
 32 33  2  0
 33 34  1  0
 34 35  2  0
 32 36  1  0
 36 37  1  0
 36 38  1  0
  9  4  1  0
 24  6  1  0
 35 30  1  0
M  END
$$$$
