
     RDKit          3D

 38 40  0  0  0  0  0  0  0  0999 V2000
  -14.7700  -45.7216  -11.2149 C   0  0  0  0  0  0  0  0  0  0  0  0
  -16.0649  -45.9757  -10.7586 O   0  0  0  0  0  0  0  0  0  0  0  0
  -16.8676  -44.8525  -10.9099 C   0  0  0  0  0  0  0  0  0  0  0  0
  -17.3585  -44.3769   -9.5854 C   0  0  0  0  0  0  0  0  0  0  0  0
  -18.4338  -44.9496   -8.9674 C   0  0  0  0  0  0  0  0  0  0  0  0
  -18.9371  -44.5240   -7.7042 C   0  0  0  0  0  0  0  0  0  0  0  0
  -18.3149  -43.4750   -7.0550 C   0  0  0  0  0  0  0  0  0  0  0  0
  -17.2249  -42.8713   -7.6520 C   0  0  0  0  0  0  0  0  0  0  0  0
  -16.7729  -43.3459   -8.9137 C   0  0  0  0  0  0  0  0  0  0  0  0
  -16.3702  -41.7558   -7.2321 C   0  0  0  0  0  0  0  0  0  0  0  0
  -15.0519  -41.9055   -7.2771 O   0  0  0  0  0  0  0  0  0  0  0  0
  -16.6961  -40.4522   -6.7561 N   0  0  0  0  0  0  0  0  0  0  0  0
  -17.5662  -39.5124   -7.4966 C   0  0  1  0  0  0  0  0  0  0  0  0
  -18.6071  -38.9925   -6.5606 C   0  0  0  0  0  0  0  0  0  0  0  0
  -19.8652  -39.8297   -6.6881 C   0  0  2  0  0  0  0  0  0  0  0  0
  -20.2531  -40.0556   -8.1529 C   0  0  0  0  0  0  0  0  0  0  0  0
  -21.0260  -39.2420   -5.9509 C   0  0  0  0  0  0  0  0  0  0  0  0
  -21.7368  -40.2140   -5.0517 C   0  0  0  0  0  0  0  0  0  0  0  0
  -22.7556  -41.0742   -5.7665 C   0  0  0  0  0  0  0  0  0  0  0  0
  -22.1561  -42.4393   -6.0264 C   0  0  0  0  0  0  0  0  0  0  0  0
  -23.1144  -43.4300   -6.6084 C   0  0  0  0  0  0  0  0  0  0  0  0
  -22.3219  -44.3613   -7.5370 C   0  0  0  0  0  0  0  0  0  0  0  0
  -21.3069  -45.0580   -6.6952 C   0  0  0  0  0  0  0  0  0  0  0  0
  -20.0504  -45.3432   -7.3522 N   0  0  0  0  0  0  0  0  0  0  0  0
  -16.7107  -38.4780   -8.1404 C   0  0  2  0  0  0  0  0  0  0  0  0
  -17.4281  -37.5935   -8.9610 O   0  0  0  0  0  0  0  0  0  0  0  0
  -15.5014  -38.9518   -8.8603 C   0  0  0  0  0  0  0  0  0  0  0  0
  -14.3858  -38.0701   -8.7395 N   0  0  0  0  0  0  0  0  0  0  0  0
  -14.5465  -36.8482   -9.5121 C   0  0  0  0  0  0  0  0  0  0  0  0
  -14.0410  -37.0923  -10.8985 C   0  0  0  0  0  0  0  0  0  0  0  0
  -13.0208  -37.9827  -11.0940 C   0  0  0  0  0  0  0  0  0  0  0  0
  -12.5167  -38.2030  -12.3463 C   0  0  0  0  0  0  0  0  0  0  0  0
  -13.0351  -37.5224  -13.4503 C   0  0  0  0  0  0  0  0  0  0  0  0
  -14.0583  -36.6364  -13.2218 C   0  0  0  0  0  0  0  0  0  0  0  0
  -14.5717  -36.4085  -11.9659 C   0  0  0  0  0  0  0  0  0  0  0  0
  -11.4107  -39.1815  -12.6199 C   0  0  0  0  0  0  0  0  0  0  0  0
  -11.2257  -40.0399  -11.3599 C   0  0  0  0  0  0  0  0  0  0  0  0
  -10.1123  -38.4763  -12.8423 C   0  0  0  0  0  0  0  0  0  0  0  0
  1  2  1  0
  2  3  1  0
  3  4  1  0
  4  5  2  0
  5  6  1  0
  6  7  2  0
  7  8  1  0
  8  9  2  0
  8 10  1  0
 10 11  2  0
 10 12  1  0
 12 13  1  0
 13 14  1  1
 14 15  1  0
 15 16  1  6
 15 17  1  0
 17 18  1  0
 18 19  1  0
 19 20  1  0
 20 21  1  0
 21 22  1  0
 22 23  1  0
 23 24  1  0
 13 25  1  0
 25 26  1  6
 25 27  1  0
 27 28  1  0
 28 29  1  0
 29 30  1  0
 30 31  2  0
 31 32  1  0
 32 33  2  0
 33 34  1  0
 34 35  2  0
 32 36  1  0
 36 37  1  0
 36 38  1  0
  9  4  1  0
 24  6  1  0
 35 30  1  0
M  END
$$$$
