
     RDKit          3D

 38 40  0  0  0  0  0  0  0  0999 V2000
  -18.9707  -43.2613  -13.1284 C   0  0  0  0  0  0  0  0  0  0  0  0
  -17.8683  -43.3404  -12.2750 O   0  0  0  0  0  0  0  0  0  0  0  0
  -18.0110  -44.3976  -11.3858 C   0  0  0  0  0  0  0  0  0  0  0  0
  -18.1462  -43.8936   -9.9897 C   0  0  0  0  0  0  0  0  0  0  0  0
  -19.0676  -44.4098   -9.1232 C   0  0  0  0  0  0  0  0  0  0  0  0
  -19.2319  -43.9552   -7.7829 C   0  0  0  0  0  0  0  0  0  0  0  0
  -18.4226  -42.9363   -7.3180 C   0  0  0  0  0  0  0  0  0  0  0  0
  -17.4805  -42.3899   -8.1681 C   0  0  0  0  0  0  0  0  0  0  0  0
  -17.3680  -42.8908   -9.4940 C   0  0  0  0  0  0  0  0  0  0  0  0
  -16.4979  -41.3169   -7.9825 C   0  0  0  0  0  0  0  0  0  0  0  0
  -15.2377  -41.5325   -8.3400 O   0  0  0  0  0  0  0  0  0  0  0  0
  -16.6374  -39.9971   -7.4623 N   0  0  0  0  0  0  0  0  0  0  0  0
  -17.6141  -39.0176   -7.9869 C   0  0  1  0  0  0  0  0  0  0  0  0
  -18.3737  -38.4431   -6.8367 C   0  0  0  0  0  0  0  0  0  0  0  0
  -19.6641  -39.2170   -6.6460 C   0  0  2  0  0  0  0  0  0  0  0  0
  -20.4028  -39.4283   -7.9715 C   0  0  0  0  0  0  0  0  0  0  0  0
  -20.5844  -38.5695   -5.6611 C   0  0  0  0  0  0  0  0  0  0  0  0
  -21.1039  -39.5018   -4.6029 C   0  0  0  0  0  0  0  0  0  0  0  0
  -22.3043  -40.3124   -5.0393 C   0  0  0  0  0  0  0  0  0  0  0  0
  -21.8505  -41.7067   -5.4144 C   0  0  0  0  0  0  0  0  0  0  0  0
  -22.9666  -42.6504   -5.7345 C   0  0  0  0  0  0  0  0  0  0  0  0
  -22.4657  -43.6232   -6.8116 C   0  0  0  0  0  0  0  0  0  0  0  0
  -21.3126  -44.3668   -6.2271 C   0  0  0  0  0  0  0  0  0  0  0  0
  -20.2657  -44.7166   -7.1618 N   0  0  0  0  0  0  0  0  0  0  0  0
  -16.8901  -38.0294   -8.8327 C   0  0  2  0  0  0  0  0  0  0  0  0
  -17.7447  -37.1954   -9.5707 O   0  0  0  0  0  0  0  0  0  0  0  0
  -15.8205  -38.5526   -9.7200 C   0  0  0  0  0  0  0  0  0  0  0  0
  -14.6722  -39.0191   -9.0125 N   0  0  0  0  0  0  0  0  0  0  0  0
  -13.5962  -39.4375   -9.8974 C   0  0  0  0  0  0  0  0  0  0  0  0
  -13.6989  -38.6605  -11.1713 C   0  0  0  0  0  0  0  0  0  0  0  0
  -13.6612  -37.2935  -11.1288 C   0  0  0  0  0  0  0  0  0  0  0  0
  -13.7844  -36.5557  -12.2738 C   0  0  0  0  0  0  0  0  0  0  0  0
  -13.9509  -37.1849  -13.5096 C   0  0  0  0  0  0  0  0  0  0  0  0
  -13.9841  -38.5572  -13.5194 C   0  0  0  0  0  0  0  0  0  0  0  0
  -13.8609  -39.3075  -12.3729 C   0  0  0  0  0  0  0  0  0  0  0  0
  -13.7318  -35.0548  -12.2868 C   0  0  0  0  0  0  0  0  0  0  0  0
  -12.2625  -34.6387  -12.1233 C   0  0  0  0  0  0  0  0  0  0  0  0
  -14.4635  -34.4815  -11.1170 C   0  0  0  0  0  0  0  0  0  0  0  0
  1  2  1  0
  2  3  1  0
  3  4  1  0
  4  5  2  0
  5  6  1  0
  6  7  2  0
  7  8  1  0
  8  9  2  0
  8 10  1  0
 10 11  2  0
 10 12  1  0
 12 13  1  0
 13 14  1  1
 14 15  1  0
 15 16  1  6
 15 17  1  0
 17 18  1  0
 18 19  1  0
 19 20  1  0
 20 21  1  0
 21 22  1  0
 22 23  1  0
 23 24  1  0
 13 25  1  0
 25 26  1  6
 25 27  1  0
 27 28  1  0
 28 29  1  0
 29 30  1  0
 30 31  2  0
 31 32  1  0
 32 33  2  0
 33 34  1  0
 34 35  2  0
 32 36  1  0
 36 37  1  0
 36 38  1  0
  9  4  1  0
 24  6  1  0
 35 30  1  0
M  END
$$$$
