
     RDKit          3D

 38 40  0  0  0  0  0  0  0  0999 V2000
  -16.4158  -47.2920  -10.1773 C   0  0  0  0  0  0  0  0  0  0  0  0
  -16.5460  -45.9063  -10.0654 O   0  0  0  0  0  0  0  0  0  0  0  0
  -17.8812  -45.5314  -10.1392 C   0  0  0  0  0  0  0  0  0  0  0  0
  -18.2789  -44.7669   -8.9232 C   0  0  0  0  0  0  0  0  0  0  0  0
  -19.3932  -45.0893   -8.2016 C   0  0  0  0  0  0  0  0  0  0  0  0
  -19.8104  -44.3834   -7.0364 C   0  0  0  0  0  0  0  0  0  0  0  0
  -19.0577  -43.3106   -6.5987 C   0  0  0  0  0  0  0  0  0  0  0  0
  -17.9248  -42.9557   -7.3055 C   0  0  0  0  0  0  0  0  0  0  0  0
  -17.5640  -43.7033   -8.4598 C   0  0  0  0  0  0  0  0  0  0  0  0
  -16.9404  -41.8867   -7.1071 C   0  0  0  0  0  0  0  0  0  0  0  0
  -15.6486  -42.1916   -7.1328 O   0  0  0  0  0  0  0  0  0  0  0  0
  -17.1064  -40.4892   -6.8802 N   0  0  0  0  0  0  0  0  0  0  0  0
  -17.8876  -39.6092   -7.7768 C   0  0  1  0  0  0  0  0  0  0  0  0
  -18.8377  -38.8102   -6.9468 C   0  0  0  0  0  0  0  0  0  0  0  0
  -20.1839  -39.5076   -6.9070 C   0  0  2  0  0  0  0  0  0  0  0  0
  -20.6356  -39.9540   -8.3012 C   0  0  0  0  0  0  0  0  0  0  0  0
  -21.2512  -38.6654   -6.2841 C   0  0  0  0  0  0  0  0  0  0  0  0
  -22.0397  -39.3674   -5.2144 C   0  0  0  0  0  0  0  0  0  0  0  0
  -23.1672  -40.2227   -5.7489 C   0  0  0  0  0  0  0  0  0  0  0  0
  -22.7301  -41.6718   -5.7540 C   0  0  0  0  0  0  0  0  0  0  0  0
  -23.8082  -42.6369   -6.1343 C   0  0  0  0  0  0  0  0  0  0  0  0
  -23.1503  -43.8077   -6.8785 C   0  0  0  0  0  0  0  0  0  0  0  0
  -22.1954  -44.4483   -5.9288 C   0  0  0  0  0  0  0  0  0  0  0  0
  -20.9971  -44.9912   -6.5300 N   0  0  0  0  0  0  0  0  0  0  0  0
  -16.9414  -38.8157   -8.6082 C   0  0  2  0  0  0  0  0  0  0  0  0
  -17.5713  -38.0943   -9.6345 O   0  0  0  0  0  0  0  0  0  0  0  0
  -15.7600  -39.5290   -9.1567 C   0  0  0  0  0  0  0  0  0  0  0  0
  -14.5269  -39.1297   -8.5597 N   0  0  0  0  0  0  0  0  0  0  0  0
  -13.3789  -39.8295   -9.1151 C   0  0  0  0  0  0  0  0  0  0  0  0
  -13.0110  -39.1840  -10.4132 C   0  0  0  0  0  0  0  0  0  0  0  0
  -12.9785  -37.8190  -10.4988 C   0  0  0  0  0  0  0  0  0  0  0  0
  -12.6762  -37.2005  -11.6807 C   0  0  0  0  0  0  0  0  0  0  0  0
  -12.3944  -37.9520  -12.8237 C   0  0  0  0  0  0  0  0  0  0  0  0
  -12.4345  -39.3190  -12.7056 C   0  0  0  0  0  0  0  0  0  0  0  0
  -12.7373  -39.9498  -11.5211 C   0  0  0  0  0  0  0  0  0  0  0  0
  -12.6087  -35.7072  -11.8260 C   0  0  0  0  0  0  0  0  0  0  0  0
  -12.2666  -35.3966  -13.2907 C   0  0  0  0  0  0  0  0  0  0  0  0
  -11.4978  -35.1373  -11.0051 C   0  0  0  0  0  0  0  0  0  0  0  0
  1  2  1  0
  2  3  1  0
  3  4  1  0
  4  5  2  0
  5  6  1  0
  6  7  2  0
  7  8  1  0
  8  9  2  0
  8 10  1  0
 10 11  2  0
 10 12  1  0
 12 13  1  0
 13 14  1  1
 14 15  1  0
 15 16  1  6
 15 17  1  0
 17 18  1  0
 18 19  1  0
 19 20  1  0
 20 21  1  0
 21 22  1  0
 22 23  1  0
 23 24  1  0
 13 25  1  0
 25 26  1  6
 25 27  1  0
 27 28  1  0
 28 29  1  0
 29 30  1  0
 30 31  2  0
 31 32  1  0
 32 33  2  0
 33 34  1  0
 34 35  2  0
 32 36  1  0
 36 37  1  0
 36 38  1  0
  9  4  1  0
 24  6  1  0
 35 30  1  0
M  END
$$$$
