
     RDKit          3D

 38 40  0  0  0  0  0  0  0  0999 V2000
  -11.0585  -45.0607   -8.8069 C   0  0  0  0  0  0  0  0  0  0  0  0
  -11.6360  -43.8999   -9.3253 O   0  0  0  0  0  0  0  0  0  0  0  0
  -11.5307  -43.8756  -10.7098 C   0  0  0  0  0  0  0  0  0  0  0  0
  -12.4062  -42.8145  -11.2835 C   0  0  0  0  0  0  0  0  0  0  0  0
  -12.0012  -42.0331  -12.3283 C   0  0  0  0  0  0  0  0  0  0  0  0
  -12.8047  -41.0067  -12.9039 C   0  0  0  0  0  0  0  0  0  0  0  0
  -14.0656  -40.7758  -12.3884 C   0  0  0  0  0  0  0  0  0  0  0  0
  -14.5071  -41.5469  -11.3303 C   0  0  0  0  0  0  0  0  0  0  0  0
  -13.6550  -42.5558  -10.8034 C   0  0  0  0  0  0  0  0  0  0  0  0
  -15.7627  -41.5444  -10.5723 C   0  0  0  0  0  0  0  0  0  0  0  0
  -16.3961  -42.6945  -10.3767 O   0  0  0  0  0  0  0  0  0  0  0  0
  -16.4856  -40.4799   -9.9587 N   0  0  0  0  0  0  0  0  0  0  0  0
  -15.8848  -39.5529   -8.9748 C   0  0  1  0  0  0  0  0  0  0  0  0
  -16.1987  -38.1530   -9.3895 C   0  0  0  0  0  0  0  0  0  0  0  0
  -15.0480  -37.5977  -10.2065 C   0  0  2  0  0  0  0  0  0  0  0  0
  -13.6942  -37.8728   -9.5442 C   0  0  0  0  0  0  0  0  0  0  0  0
  -15.1836  -36.1322  -10.4716 C   0  0  0  0  0  0  0  0  0  0  0  0
  -15.0073  -35.7513  -11.9146 C   0  0  0  0  0  0  0  0  0  0  0  0
  -13.5620  -35.5905  -12.3314 C   0  0  0  0  0  0  0  0  0  0  0  0
  -13.1174  -36.8357  -13.0681 C   0  0  0  0  0  0  0  0  0  0  0  0
  -11.7433  -36.7454  -13.6530 C   0  0  0  0  0  0  0  0  0  0  0  0
  -11.1186  -38.1472  -13.6050 C   0  0  0  0  0  0  0  0  0  0  0  0
  -11.9771  -39.0373  -14.4387 C   0  0  0  0  0  0  0  0  0  0  0  0
  -12.0828  -40.4035  -13.9760 N   0  0  0  0  0  0  0  0  0  0  0  0
  -16.3498  -39.9363   -7.6136 C   0  0  2  0  0  0  0  0  0  0  0  0
  -15.3442  -40.5155   -6.8238 O   0  0  0  0  0  0  0  0  0  0  0  0
  -17.5836  -40.7579   -7.5261 C   0  0  0  0  0  0  0  0  0  0  0  0
  -18.5294  -40.2646   -6.5781 N   0  0  0  0  0  0  0  0  0  0  0  0
  -19.7593  -41.0408   -6.5524 C   0  0  0  0  0  0  0  0  0  0  0  0
  -20.7338  -40.4191   -7.5015 C   0  0  0  0  0  0  0  0  0  0  0  0
  -21.0135  -39.0839   -7.3978 C   0  0  0  0  0  0  0  0  0  0  0  0
  -21.9237  -38.4943   -8.2312 C   0  0  0  0  0  0  0  0  0  0  0  0
  -22.5852  -39.2453   -9.2054 C   0  0  0  0  0  0  0  0  0  0  0  0
  -22.2826  -40.5819   -9.2850 C   0  0  0  0  0  0  0  0  0  0  0  0
  -21.3686  -41.1834   -8.4511 C   0  0  0  0  0  0  0  0  0  0  0  0
  -22.2548  -37.0305   -8.1729 C   0  0  0  0  0  0  0  0  0  0  0  0
  -23.4794  -36.8657   -7.2609 C   0  0  0  0  0  0  0  0  0  0  0  0
  -22.6595  -36.5173   -9.5166 C   0  0  0  0  0  0  0  0  0  0  0  0
  1  2  1  0
  2  3  1  0
  3  4  1  0
  4  5  2  0
  5  6  1  0
  6  7  2  0
  7  8  1  0
  8  9  2  0
  8 10  1  0
 10 11  2  0
 10 12  1  0
 12 13  1  0
 13 14  1  6
 14 15  1  0
 15 16  1  1
 15 17  1  0
 17 18  1  0
 18 19  1  0
 19 20  1  0
 20 21  1  0
 21 22  1  0
 22 23  1  0
 23 24  1  0
 13 25  1  0
 25 26  1  6
 25 27  1  0
 27 28  1  0
 28 29  1  0
 29 30  1  0
 30 31  2  0
 31 32  1  0
 32 33  2  0
 33 34  1  0
 34 35  2  0
 32 36  1  0
 36 37  1  0
 36 38  1  0
  9  4  1  0
 24  6  1  0
 35 30  1  0
M  END
$$$$
