
     RDKit          3D

 38 40  0  0  0  0  0  0  0  0999 V2000
  -17.2827  -47.6685   -9.3622 C   0  0  0  0  0  0  0  0  0  0  0  0
  -18.4185  -46.9206   -9.6787 O   0  0  0  0  0  0  0  0  0  0  0  0
  -18.0845  -45.5906   -9.8986 C   0  0  0  0  0  0  0  0  0  0  0  0
  -18.5222  -44.7439   -8.7527 C   0  0  0  0  0  0  0  0  0  0  0  0
  -19.6821  -44.9923   -8.0750 C   0  0  0  0  0  0  0  0  0  0  0  0
  -20.1383  -44.2066   -6.9773 C   0  0  0  0  0  0  0  0  0  0  0  0
  -19.3776  -43.1303   -6.5629 C   0  0  0  0  0  0  0  0  0  0  0  0
  -18.1990  -42.8492   -7.2268 C   0  0  0  0  0  0  0  0  0  0  0  0
  -17.8008  -43.6743   -8.3142 C   0  0  0  0  0  0  0  0  0  0  0  0
  -17.1944  -41.7974   -7.0382 C   0  0  0  0  0  0  0  0  0  0  0  0
  -15.9129  -42.1381   -6.9759 O   0  0  0  0  0  0  0  0  0  0  0  0
  -17.3298  -40.3847   -6.9027 N   0  0  0  0  0  0  0  0  0  0  0  0
  -18.0359  -39.5393   -7.8902 C   0  0  1  0  0  0  0  0  0  0  0  0
  -19.0036  -38.6665   -7.1610 C   0  0  0  0  0  0  0  0  0  0  0  0
  -20.3706  -39.3235   -7.1536 C   0  0  2  0  0  0  0  0  0  0  0  0
  -20.7617  -39.8404   -8.5417 C   0  0  0  0  0  0  0  0  0  0  0  0
  -21.4432  -38.4170   -6.6397 C   0  0  0  0  0  0  0  0  0  0  0  0
  -22.3075  -39.0319   -5.5751 C   0  0  0  0  0  0  0  0  0  0  0  0
  -23.4307  -39.8869   -6.1190 C   0  0  0  0  0  0  0  0  0  0  0  0
  -23.0380  -41.3449   -6.0157 C   0  0  0  0  0  0  0  0  0  0  0  0
  -24.1234  -42.3017   -6.3967 C   0  0  0  0  0  0  0  0  0  0  0  0
  -23.4630  -43.5323   -7.0345 C   0  0  0  0  0  0  0  0  0  0  0  0
  -22.5790  -44.1404   -5.9986 C   0  0  0  0  0  0  0  0  0  0  0  0
  -21.3679  -44.7507   -6.5012 N   0  0  0  0  0  0  0  0  0  0  0  0
  -17.0237  -38.8230   -8.7141 C   0  0  2  0  0  0  0  0  0  0  0  0
  -17.5085  -38.4240   -9.9696 O   0  0  0  0  0  0  0  0  0  0  0  0
  -15.6999  -39.4755   -8.8784 C   0  0  0  0  0  0  0  0  0  0  0  0
  -14.6103  -38.5541   -8.8976 N   0  0  0  0  0  0  0  0  0  0  0  0
  -14.8831  -37.3749   -9.7044 C   0  0  0  0  0  0  0  0  0  0  0  0
  -13.9242  -37.3517  -10.8520 C   0  0  0  0  0  0  0  0  0  0  0  0
  -12.7683  -36.6275  -10.7465 C   0  0  0  0  0  0  0  0  0  0  0  0
  -11.8876  -36.5620  -11.7909 C   0  0  0  0  0  0  0  0  0  0  0  0
  -12.1521  -37.2345  -12.9861 C   0  0  0  0  0  0  0  0  0  0  0  0
  -13.3194  -37.9529  -13.0607 C   0  0  0  0  0  0  0  0  0  0  0  0
  -14.2110  -38.0246  -12.0155 C   0  0  0  0  0  0  0  0  0  0  0  0
  -10.5967  -35.7974  -11.7227 C   0  0  0  0  0  0  0  0  0  0  0  0
  -10.9442  -34.3080  -11.5821 C   0  0  0  0  0  0  0  0  0  0  0  0
   -9.8256  -35.9306  -12.9956 C   0  0  0  0  0  0  0  0  0  0  0  0
  1  2  1  0
  2  3  1  0
  3  4  1  0
  4  5  2  0
  5  6  1  0
  6  7  2  0
  7  8  1  0
  8  9  2  0
  8 10  1  0
 10 11  2  0
 10 12  1  0
 12 13  1  0
 13 14  1  1
 14 15  1  0
 15 16  1  6
 15 17  1  0
 17 18  1  0
 18 19  1  0
 19 20  1  0
 20 21  1  0
 21 22  1  0
 22 23  1  0
 23 24  1  0
 13 25  1  0
 25 26  1  6
 25 27  1  0
 27 28  1  0
 28 29  1  0
 29 30  1  0
 30 31  2  0
 31 32  1  0
 32 33  2  0
 33 34  1  0
 34 35  2  0
 32 36  1  0
 36 37  1  0
 36 38  1  0
  9  4  1  0
 24  6  1  0
 35 30  1  0
M  END
$$$$
