
     RDKit          3D

 38 40  0  0  0  0  0  0  0  0999 V2000
  -20.5011  -46.4826   -8.1592 C   0  0  0  0  0  0  0  0  0  0  0  0
  -19.6654  -45.6289   -7.4364 O   0  0  0  0  0  0  0  0  0  0  0  0
  -18.3451  -46.0524   -7.5151 C   0  0  0  0  0  0  0  0  0  0  0  0
  -17.6009  -45.2612   -8.5358 C   0  0  0  0  0  0  0  0  0  0  0  0
  -16.7195  -45.8469   -9.3996 C   0  0  0  0  0  0  0  0  0  0  0  0
  -15.9860  -45.1277  -10.3869 C   0  0  0  0  0  0  0  0  0  0  0  0
  -16.1641  -43.7614  -10.4894 C   0  0  0  0  0  0  0  0  0  0  0  0
  -17.0472  -43.1357   -9.6306 C   0  0  0  0  0  0  0  0  0  0  0  0
  -17.7484  -43.9130   -8.6684 C   0  0  0  0  0  0  0  0  0  0  0  0
  -17.4438  -41.7313   -9.4846 C   0  0  0  0  0  0  0  0  0  0  0  0
  -18.7360  -41.4318   -9.4323 O   0  0  0  0  0  0  0  0  0  0  0  0
  -16.6639  -40.5429   -9.3766 N   0  0  0  0  0  0  0  0  0  0  0  0
  -15.6085  -40.3553   -8.3570 C   0  0  1  0  0  0  0  0  0  0  0  0
  -14.3701  -39.8752   -9.0396 C   0  0  0  0  0  0  0  0  0  0  0  0
  -13.4750  -41.0586   -9.3539 C   0  0  2  0  0  0  0  0  0  0  0  0
  -13.3248  -41.9946   -8.1504 C   0  0  0  0  0  0  0  0  0  0  0  0
  -12.1207  -40.6453   -9.8350 C   0  0  0  0  0  0  0  0  0  0  0  0
  -11.6860  -41.3266  -11.1021 C   0  0  0  0  0  0  0  0  0  0  0  0
  -11.0795  -42.6950  -10.8824 C   0  0  0  0  0  0  0  0  0  0  0  0
  -12.1161  -43.7523  -11.1960 C   0  0  0  0  0  0  0  0  0  0  0  0
  -11.5967  -45.1546  -11.1484 C   0  0  0  0  0  0  0  0  0  0  0  0
  -12.7360  -46.0619  -10.6622 C   0  0  0  0  0  0  0  0  0  0  0  0
  -13.8380  -45.9533  -11.6612 C   0  0  0  0  0  0  0  0  0  0  0  0
  -15.1753  -46.0457  -11.1179 N   0  0  0  0  0  0  0  0  0  0  0  0
  -16.1342  -39.4655   -7.2856 C   0  0  2  0  0  0  0  0  0  0  0  0
  -15.3888  -39.5234   -6.0975 O   0  0  0  0  0  0  0  0  0  0  0  0
  -17.5812  -39.5694   -6.9685 C   0  0  0  0  0  0  0  0  0  0  0  0
  -18.4289  -39.1373   -8.0321 N   0  0  0  0  0  0  0  0  0  0  0  0
  -19.8233  -39.4945   -7.8223 C   0  0  0  0  0  0  0  0  0  0  0  0
  -20.6498  -38.2504   -7.9006 C   0  0  0  0  0  0  0  0  0  0  0  0
  -20.3312  -37.2896   -8.8211 C   0  0  0  0  0  0  0  0  0  0  0  0
  -21.0494  -36.1279   -8.8949 C   0  0  0  0  0  0  0  0  0  0  0  0
  -22.1230  -35.9007   -8.0309 C   0  0  0  0  0  0  0  0  0  0  0  0
  -22.4181  -36.8835   -7.1192 C   0  0  0  0  0  0  0  0  0  0  0  0
  -21.7015  -38.0551   -7.0378 C   0  0  0  0  0  0  0  0  0  0  0  0
  -20.7547  -35.0489   -9.8971 C   0  0  0  0  0  0  0  0  0  0  0  0
  -19.9550  -33.9517   -9.1791 C   0  0  0  0  0  0  0  0  0  0  0  0
  -22.0139  -34.4043  -10.3784 C   0  0  0  0  0  0  0  0  0  0  0  0
  1  2  1  0
  2  3  1  0
  3  4  1  0
  4  5  2  0
  5  6  1  0
  6  7  2  0
  7  8  1  0
  8  9  2  0
  8 10  1  0
 10 11  2  0
 10 12  1  0
 12 13  1  0
 13 14  1  6
 14 15  1  0
 15 16  1  1
 15 17  1  0
 17 18  1  0
 18 19  1  0
 19 20  1  0
 20 21  1  0
 21 22  1  0
 22 23  1  0
 23 24  1  0
 13 25  1  0
 25 26  1  1
 25 27  1  0
 27 28  1  0
 28 29  1  0
 29 30  1  0
 30 31  2  0
 31 32  1  0
 32 33  2  0
 33 34  1  0
 34 35  2  0
 32 36  1  0
 36 37  1  0
 36 38  1  0
  9  4  1  0
 24  6  1  0
 35 30  1  0
M  END
$$$$
