
     RDKit          3D

 38 40  0  0  0  0  0  0  0  0999 V2000
  -14.0163  -46.0704  -12.8631 C   0  0  0  0  0  0  0  0  0  0  0  0
  -14.5447  -45.4517  -11.7283 O   0  0  0  0  0  0  0  0  0  0  0  0
  -13.6747  -44.4812  -11.2487 C   0  0  0  0  0  0  0  0  0  0  0  0
  -14.1492  -43.1195  -11.6260 C   0  0  0  0  0  0  0  0  0  0  0  0
  -13.5500  -42.3971  -12.6186 C   0  0  0  0  0  0  0  0  0  0  0  0
  -13.9694  -41.0923  -13.0082 C   0  0  0  0  0  0  0  0  0  0  0  0
  -15.0397  -40.5109  -12.3558 C   0  0  0  0  0  0  0  0  0  0  0  0
  -15.6686  -41.2129  -11.3456 C   0  0  0  0  0  0  0  0  0  0  0  0
  -15.2001  -42.5119  -11.0069 C   0  0  0  0  0  0  0  0  0  0  0  0
  -16.8016  -40.8770  -10.4769 C   0  0  0  0  0  0  0  0  0  0  0  0
  -17.7883  -41.7547  -10.3416 O   0  0  0  0  0  0  0  0  0  0  0  0
  -17.0705  -39.7175   -9.6924 N   0  0  0  0  0  0  0  0  0  0  0  0
  -16.1314  -39.1879   -8.6794 C   0  0  1  0  0  0  0  0  0  0  0  0
  -15.9535  -37.7244   -8.9173 C   0  0  0  0  0  0  0  0  0  0  0  0
  -14.7251  -37.4977   -9.7774 C   0  0  2  0  0  0  0  0  0  0  0  0
  -13.5223  -38.3037   -9.2767 C   0  0  0  0  0  0  0  0  0  0  0  0
  -14.3497  -36.0535   -9.8771 C   0  0  0  0  0  0  0  0  0  0  0  0
  -14.1260  -35.5740  -11.2837 C   0  0  0  0  0  0  0  0  0  0  0  0
  -12.7404  -35.8670  -11.8156 C   0  0  0  0  0  0  0  0  0  0  0  0
  -12.8017  -37.0832  -12.7143 C   0  0  0  0  0  0  0  0  0  0  0  0
  -11.5162  -37.3957  -13.4131 C   0  0  0  0  0  0  0  0  0  0  0  0
  -11.4235  -38.9205  -13.5677 C   0  0  0  0  0  0  0  0  0  0  0  0
  -12.5826  -39.3465  -14.4040 C   0  0  0  0  0  0  0  0  0  0  0  0
  -13.1383  -40.6409  -14.0758 N   0  0  0  0  0  0  0  0  0  0  0  0
  -16.6300  -39.5602   -7.3271 C   0  0  2  0  0  0  0  0  0  0  0  0
  -15.6708  -40.2178   -6.5410 O   0  0  0  0  0  0  0  0  0  0  0  0
  -17.9168  -40.2983   -7.2595 C   0  0  0  0  0  0  0  0  0  0  0  0
  -19.0579  -39.4455   -7.1761 N   0  0  0  0  0  0  0  0  0  0  0  0
  -20.1714  -39.9126   -7.9871 C   0  0  0  0  0  0  0  0  0  0  0  0
  -21.2455  -40.4154   -7.0757 C   0  0  0  0  0  0  0  0  0  0  0  0
  -21.0580  -40.3585   -5.7217 C   0  0  0  0  0  0  0  0  0  0  0  0
  -22.0089  -40.8396   -4.8643 C   0  0  0  0  0  0  0  0  0  0  0  0
  -23.1909  -41.3982   -5.3558 C   0  0  0  0  0  0  0  0  0  0  0  0
  -23.3498  -41.4403   -6.7187 C   0  0  0  0  0  0  0  0  0  0  0  0
  -22.3989  -40.9588   -7.5885 C   0  0  0  0  0  0  0  0  0  0  0  0
  -21.8627  -40.7857   -3.3705 C   0  0  0  0  0  0  0  0  0  0  0  0
  -20.7903  -39.7356   -3.0449 C   0  0  0  0  0  0  0  0  0  0  0  0
  -21.3558  -42.0846   -2.8332 C   0  0  0  0  0  0  0  0  0  0  0  0
  1  2  1  0
  2  3  1  0
  3  4  1  0
  4  5  2  0
  5  6  1  0
  6  7  2  0
  7  8  1  0
  8  9  2  0
  8 10  1  0
 10 11  2  0
 10 12  1  0
 12 13  1  0
 13 14  1  1
 14 15  1  0
 15 16  1  1
 15 17  1  0
 17 18  1  0
 18 19  1  0
 19 20  1  0
 20 21  1  0
 21 22  1  0
 22 23  1  0
 23 24  1  0
 13 25  1  0
 25 26  1  6
 25 27  1  0
 27 28  1  0
 28 29  1  0
 29 30  1  0
 30 31  2  0
 31 32  1  0
 32 33  2  0
 33 34  1  0
 34 35  2  0
 32 36  1  0
 36 37  1  0
 36 38  1  0
  9  4  1  0
 24  6  1  0
 35 30  1  0
M  END
$$$$
