
     RDKit          3D

 38 40  0  0  0  0  0  0  0  0999 V2000
  -15.4225  -45.4394  -10.7386 C   0  0  0  0  0  0  0  0  0  0  0  0
  -16.7295  -45.8603  -10.4853 O   0  0  0  0  0  0  0  0  0  0  0  0
  -17.6363  -44.8517  -10.7841 C   0  0  0  0  0  0  0  0  0  0  0  0
  -18.1670  -44.2370   -9.5343 C   0  0  0  0  0  0  0  0  0  0  0  0
  -19.4282  -44.5010   -9.0805 C   0  0  0  0  0  0  0  0  0  0  0  0
  -19.9750  -43.9326   -7.8939 C   0  0  0  0  0  0  0  0  0  0  0  0
  -19.2001  -43.0642   -7.1494 C   0  0  0  0  0  0  0  0  0  0  0  0
  -17.9198  -42.7736   -7.5797 C   0  0  0  0  0  0  0  0  0  0  0  0
  -17.4349  -43.3761   -8.7728 C   0  0  0  0  0  0  0  0  0  0  0  0
  -16.8738  -41.9055   -7.0289 C   0  0  0  0  0  0  0  0  0  0  0  0
  -15.6452  -42.3893   -6.8918 O   0  0  0  0  0  0  0  0  0  0  0  0
  -16.9164  -40.5517   -6.5843 N   0  0  0  0  0  0  0  0  0  0  0  0
  -17.4045  -39.4369   -7.4254 C   0  0  1  0  0  0  0  0  0  0  0  0
  -18.3960  -38.6468   -6.6363 C   0  0  0  0  0  0  0  0  0  0  0  0
  -19.7969  -39.1361   -6.9500 C   0  0  2  0  0  0  0  0  0  0  0  0
  -20.0232  -39.2873   -8.4577 C   0  0  0  0  0  0  0  0  0  0  0  0
  -20.8581  -38.2541   -6.3735 C   0  0  0  0  0  0  0  0  0  0  0  0
  -21.9123  -38.9913   -5.5962 C   0  0  0  0  0  0  0  0  0  0  0  0
  -23.0088  -39.5770   -6.4583 C   0  0  0  0  0  0  0  0  0  0  0  0
  -22.7503  -41.0556   -6.6516 C   0  0  0  0  0  0  0  0  0  0  0  0
  -23.8409  -41.7801   -7.3757 C   0  0  0  0  0  0  0  0  0  0  0  0
  -23.1937  -42.9037   -8.1980 C   0  0  0  0  0  0  0  0  0  0  0  0
  -22.5185  -43.8186   -7.2330 C   0  0  0  0  0  0  0  0  0  0  0  0
  -21.2990  -44.4310   -7.7124 N   0  0  0  0  0  0  0  0  0  0  0  0
  -16.2314  -38.6710   -7.9287 C   0  0  2  0  0  0  0  0  0  0  0  0
  -16.3004  -38.3840   -9.3010 O   0  0  0  0  0  0  0  0  0  0  0  0
  -14.8843  -39.2029   -7.6007 C   0  0  0  0  0  0  0  0  0  0  0  0
  -13.8190  -38.4462   -8.1744 N   0  0  0  0  0  0  0  0  0  0  0  0
  -12.9849  -39.2347   -9.0680 C   0  0  0  0  0  0  0  0  0  0  0  0
  -13.0544  -38.6346  -10.4363 C   0  0  0  0  0  0  0  0  0  0  0  0
  -12.2735  -39.1486  -11.4352 C   0  0  0  0  0  0  0  0  0  0  0  0
  -12.2924  -38.6005  -12.6882 C   0  0  0  0  0  0  0  0  0  0  0  0
  -13.1106  -37.5047  -12.9718 C   0  0  0  0  0  0  0  0  0  0  0  0
  -13.8826  -37.0124  -11.9490 C   0  0  0  0  0  0  0  0  0  0  0  0
  -13.8702  -37.5571  -10.6858 C   0  0  0  0  0  0  0  0  0  0  0  0
  -11.4700  -39.1358  -13.8252 C   0  0  0  0  0  0  0  0  0  0  0  0
  -10.0771  -38.4951  -13.7349 C   0  0  0  0  0  0  0  0  0  0  0  0
  -12.0393  -38.7196  -15.1425 C   0  0  0  0  0  0  0  0  0  0  0  0
  1  2  1  0
  2  3  1  0
  3  4  1  0
  4  5  2  0
  5  6  1  0
  6  7  2  0
  7  8  1  0
  8  9  2  0
  8 10  1  0
 10 11  2  0
 10 12  1  0
 12 13  1  0
 13 14  1  1
 14 15  1  0
 15 16  1  6
 15 17  1  0
 17 18  1  0
 18 19  1  0
 19 20  1  0
 20 21  1  0
 21 22  1  0
 22 23  1  0
 23 24  1  0
 13 25  1  0
 25 26  1  6
 25 27  1  0
 27 28  1  0
 28 29  1  0
 29 30  1  0
 30 31  2  0
 31 32  1  0
 32 33  2  0
 33 34  1  0
 34 35  2  0
 32 36  1  0
 36 37  1  0
 36 38  1  0
  9  4  1  0
 24  6  1  0
 35 30  1  0
M  END
$$$$
