
     RDKit          3D

 38 40  0  0  0  0  0  0  0  0999 V2000
  -14.7966  -44.4088  -12.2974 C   0  0  0  0  0  0  0  0  0  0  0  0
  -15.5707  -43.9104  -11.2476 O   0  0  0  0  0  0  0  0  0  0  0  0
  -16.6634  -44.7340  -11.0099 C   0  0  0  0  0  0  0  0  0  0  0  0
  -17.2880  -44.4098   -9.6960 C   0  0  0  0  0  0  0  0  0  0  0  0
  -18.4791  -44.9560   -9.3100 C   0  0  0  0  0  0  0  0  0  0  0  0
  -19.1116  -44.6708   -8.0655 C   0  0  0  0  0  0  0  0  0  0  0  0
  -18.4999  -43.7951   -7.1892 C   0  0  0  0  0  0  0  0  0  0  0  0
  -17.2946  -43.2229   -7.5479 C   0  0  0  0  0  0  0  0  0  0  0  0
  -16.7169  -43.5514   -8.8049 C   0  0  0  0  0  0  0  0  0  0  0  0
  -16.4171  -42.2716   -6.8579 C   0  0  0  0  0  0  0  0  0  0  0  0
  -15.1211  -42.5442   -6.7667 O   0  0  0  0  0  0  0  0  0  0  0  0
  -16.6981  -41.0252   -6.2255 N   0  0  0  0  0  0  0  0  0  0  0  0
  -17.3823  -39.9054   -6.9084 C   0  0  1  0  0  0  0  0  0  0  0  0
  -18.4943  -39.4259   -6.0346 C   0  0  0  0  0  0  0  0  0  0  0  0
  -19.7872  -40.1056   -6.4430 C   0  0  2  0  0  0  0  0  0  0  0  0
  -19.9917  -40.0757   -7.9610 C   0  0  0  0  0  0  0  0  0  0  0  0
  -20.9854  -39.5185   -5.7678 C   0  0  0  0  0  0  0  0  0  0  0  0
  -21.8865  -40.5352   -5.1250 C   0  0  0  0  0  0  0  0  0  0  0  0
  -22.8658  -41.1758   -6.0837 C   0  0  0  0  0  0  0  0  0  0  0  0
  -22.3486  -42.5415   -6.4810 C   0  0  0  0  0  0  0  0  0  0  0  0
  -23.2966  -43.3360   -7.3229 C   0  0  0  0  0  0  0  0  0  0  0  0
  -22.4641  -44.1966   -8.2841 C   0  0  0  0  0  0  0  0  0  0  0  0
  -21.6307  -45.1064   -7.4462 C   0  0  0  0  0  0  0  0  0  0  0  0
  -20.3243  -45.4171   -7.9836 N   0  0  0  0  0  0  0  0  0  0  0  0
  -16.3677  -38.8790   -7.2735 C   0  0  2  0  0  0  0  0  0  0  0  0
  -16.7740  -38.0436   -8.3259 O   0  0  0  0  0  0  0  0  0  0  0  0
  -14.9835  -39.3546   -7.5243 C   0  0  0  0  0  0  0  0  0  0  0  0
  -14.2569  -38.5338   -8.4380 N   0  0  0  0  0  0  0  0  0  0  0  0
  -13.2510  -39.2740   -9.1837 C   0  0  0  0  0  0  0  0  0  0  0  0
  -13.2386  -38.7722  -10.5927 C   0  0  0  0  0  0  0  0  0  0  0  0
  -12.9871  -37.4488  -10.8317 C   0  0  0  0  0  0  0  0  0  0  0  0
  -13.0003  -36.9548  -12.1071 C   0  0  0  0  0  0  0  0  0  0  0  0
  -13.2707  -37.7935  -13.1907 C   0  0  0  0  0  0  0  0  0  0  0  0
  -13.5183  -39.1160  -12.9185 C   0  0  0  0  0  0  0  0  0  0  0  0
  -13.5071  -39.6216  -11.6391 C   0  0  0  0  0  0  0  0  0  0  0  0
  -12.7135  -35.5158  -12.4276 C   0  0  0  0  0  0  0  0  0  0  0  0
  -13.9001  -34.9735  -13.2379 C   0  0  0  0  0  0  0  0  0  0  0  0
  -11.5119  -35.3905  -13.3069 C   0  0  0  0  0  0  0  0  0  0  0  0
  1  2  1  0
  2  3  1  0
  3  4  1  0
  4  5  2  0
  5  6  1  0
  6  7  2  0
  7  8  1  0
  8  9  2  0
  8 10  1  0
 10 11  2  0
 10 12  1  0
 12 13  1  0
 13 14  1  1
 14 15  1  0
 15 16  1  6
 15 17  1  0
 17 18  1  0
 18 19  1  0
 19 20  1  0
 20 21  1  0
 21 22  1  0
 22 23  1  0
 23 24  1  0
 13 25  1  0
 25 26  1  6
 25 27  1  0
 27 28  1  0
 28 29  1  0
 29 30  1  0
 30 31  2  0
 31 32  1  0
 32 33  2  0
 33 34  1  0
 34 35  2  0
 32 36  1  0
 36 37  1  0
 36 38  1  0
  9  4  1  0
 24  6  1  0
 35 30  1  0
M  END
$$$$
