
     RDKit          3D

 37 39  0  0  0  0  0  0  0  0999 V2000
  -16.3654  -44.8984   -9.3336 C   0  0  0  0  0  0  0  0  0  0  0  0
  -14.8861  -44.7396   -9.5904 C   0  0  0  0  0  0  0  0  0  0  0  0
  -14.2037  -44.4211   -8.2576 C   0  0  0  0  0  0  0  0  0  0  0  0
  -14.6771  -43.5222  -10.4279 C   0  0  0  0  0  0  0  0  0  0  0  0
  -14.5722  -42.2619   -9.8572 C   0  0  0  0  0  0  0  0  0  0  0  0
  -14.3852  -41.1362  -10.6220 C   0  0  0  0  0  0  0  0  0  0  0  0
  -14.3082  -41.3288  -11.9828 C   0  0  0  0  0  0  0  0  0  0  0  0
  -14.4070  -42.5521  -12.5785 C   0  0  0  0  0  0  0  0  0  0  0  0
  -14.5972  -43.6855  -11.7831 C   0  0  0  0  0  0  0  0  0  0  0  0
  -14.2895  -39.7548  -10.0239 C   0  0  0  0  0  0  0  0  0  0  0  0
  -13.5098  -38.9030  -10.9719 C   0  0  0  0  0  0  0  0  0  0  0  0
  -13.5440  -39.8774   -8.7413 C   0  0  0  0  0  0  0  0  0  0  0  0
  -15.6112  -39.1917   -9.8730 N   0  0  0  0  0  0  0  0  0  0  0  0
  -16.5928  -40.2304   -9.9256 C   0  0  0  0  0  0  0  0  0  0  0  0
  -17.9025  -39.7226   -9.2991 C   0  0  1  0  0  0  0  0  0  0  0  0
  -18.9155  -39.9705  -10.2227 O   0  0  0  0  0  0  0  0  0  0  0  0
  -18.1699  -40.2462   -7.9446 C   0  0  2  0  0  0  0  0  0  0  0  0
  -18.2374  -39.2547   -6.8515 C   0  0  0  0  0  0  0  0  0  0  0  0
  -19.4278  -38.3354   -6.8412 C   0  0  2  0  0  0  0  0  0  0  0  0
  -19.1776  -37.3235   -5.7176 C   0  0  0  0  0  0  0  0  0  0  0  0
  -20.6227  -39.1501   -6.4087 C   0  0  0  0  0  0  0  0  0  0  0  0
  -21.8466  -38.2765   -6.1897 C   0  0  0  0  0  0  0  0  0  0  0  0
  -22.6915  -38.8632   -5.0798 C   0  0  0  0  0  0  0  0  0  0  0  0
  -23.9671  -39.4777   -5.5720 C   0  0  0  0  0  0  0  0  0  0  0  0
  -24.4238  -40.6318   -4.7418 C   0  0  0  0  0  0  0  0  0  0  0  0
  -24.3782  -41.9665   -5.4244 C   0  0  0  0  0  0  0  0  0  0  0  0
  -23.3833  -42.0728   -6.5179 C   0  0  0  0  0  0  0  0  0  0  0  0
  -22.5991  -43.3100   -6.5137 N   0  0  0  0  0  0  0  0  0  0  0  0
  -21.2545  -43.5334   -6.9626 C   0  0  0  0  0  0  0  0  0  0  0  0
  -20.1010  -42.8092   -6.7679 C   0  0  0  0  0  0  0  0  0  0  0  0
  -18.9512  -43.2504   -7.4005 C   0  0  0  0  0  0  0  0  0  0  0  0
  -18.9839  -44.4161   -8.2084 C   0  0  0  0  0  0  0  0  0  0  0  0
  -20.1156  -45.1577   -8.4138 C   0  0  0  0  0  0  0  0  0  0  0  0
  -21.2347  -44.6948   -7.7813 C   0  0  0  0  0  0  0  0  0  0  0  0
  -17.6013  -42.6633   -7.4643 C   0  0  0  0  0  0  0  0  0  0  0  0
  -16.6162  -43.5007   -7.3537 O   0  0  0  0  0  0  0  0  0  0  0  0
  -17.2045  -41.3070   -7.6340 N   0  0  0  0  0  0  0  0  0  0  0  0
  1  2  1  0
  2  3  1  0
  2  4  1  0
  4  5  2  0
  5  6  1  0
  6  7  2  0
  7  8  1  0
  8  9  2  0
  6 10  1  0
 10 11  1  0
 10 12  1  0
 10 13  1  0
 13 14  1  0
 14 15  1  0
 15 16  1  6
 15 17  1  0
 17 18  1  1
 18 19  1  0
 19 20  1  1
 19 21  1  0
 21 22  1  0
 22 23  1  0
 23 24  1  0
 24 25  1  0
 25 26  1  0
 26 27  1  0
 27 28  1  0
 28 29  1  0
 29 30  2  0
 30 31  1  0
 31 32  2  0
 32 33  1  0
 33 34  2  0
 31 35  1  0
 35 36  2  0
 35 37  1  0
  9  4  1  0
 34 29  1  0
 37 17  1  0
M  END
$$$$
