
     RDKit          3D

 37 39  0  0  0  0  0  0  0  0999 V2000
  -23.4345  -39.9757   -4.0819 C   0  0  0  0  0  0  0  0  0  0  0  0
  -23.8699  -40.7104   -5.3269 C   0  0  0  0  0  0  0  0  0  0  0  0
  -23.7031  -42.2113   -5.0761 C   0  0  0  0  0  0  0  0  0  0  0  0
  -22.9087  -40.3967   -6.4245 C   0  0  0  0  0  0  0  0  0  0  0  0
  -21.5872  -40.8160   -6.3695 C   0  0  0  0  0  0  0  0  0  0  0  0
  -20.6954  -40.5264   -7.3735 C   0  0  0  0  0  0  0  0  0  0  0  0
  -21.1856  -39.7985   -8.4340 C   0  0  0  0  0  0  0  0  0  0  0  0
  -22.4776  -39.3697   -8.5218 C   0  0  0  0  0  0  0  0  0  0  0  0
  -23.3699  -39.6745   -7.4901 C   0  0  0  0  0  0  0  0  0  0  0  0
  -19.2499  -40.9545   -7.3239 C   0  0  0  0  0  0  0  0  0  0  0  0
  -19.1773  -42.3643   -7.8132 C   0  0  0  0  0  0  0  0  0  0  0  0
  -18.8204  -40.9024   -5.8996 C   0  0  0  0  0  0  0  0  0  0  0  0
  -18.4593  -40.1184   -8.1973 N   0  0  0  0  0  0  0  0  0  0  0  0
  -17.0926  -40.1283   -7.7761 C   0  0  0  0  0  0  0  0  0  0  0  0
  -16.3951  -38.8567   -8.2882 C   0  0  1  0  0  0  0  0  0  0  0  0
  -15.2380  -38.6964   -7.5290 O   0  0  0  0  0  0  0  0  0  0  0  0
  -16.1757  -38.8313   -9.7482 C   0  0  2  0  0  0  0  0  0  0  0  0
  -16.5008  -37.5705  -10.4460 C   0  0  0  0  0  0  0  0  0  0  0  0
  -15.5948  -36.3980  -10.1873 C   0  0  2  0  0  0  0  0  0  0  0  0
  -16.2336  -35.1987  -10.8962 C   0  0  0  0  0  0  0  0  0  0  0  0
  -14.2960  -36.6642  -10.9089 C   0  0  0  0  0  0  0  0  0  0  0  0
  -13.3725  -35.4585  -10.8633 C   0  0  0  0  0  0  0  0  0  0  0  0
  -12.5525  -35.4042  -12.1340 C   0  0  0  0  0  0  0  0  0  0  0  0
  -11.1111  -35.7560  -11.9208 C   0  0  0  0  0  0  0  0  0  0  0  0
  -10.4837  -36.4134  -13.1057 C   0  0  0  0  0  0  0  0  0  0  0  0
  -10.1017  -37.8506  -12.9103 C   0  0  0  0  0  0  0  0  0  0  0  0
  -10.8911  -38.5703  -11.8829 C   0  0  0  0  0  0  0  0  0  0  0  0
  -11.3285  -39.9119  -12.2759 N   0  0  0  0  0  0  0  0  0  0  0  0
  -12.5045  -40.6344  -11.8826 C   0  0  0  0  0  0  0  0  0  0  0  0
  -13.8193  -40.2418  -11.7831 C   0  0  0  0  0  0  0  0  0  0  0  0
  -14.7299  -41.1645  -11.2967 C   0  0  0  0  0  0  0  0  0  0  0  0
  -14.3002  -42.4656  -10.9293 C   0  0  0  0  0  0  0  0  0  0  0  0
  -13.0004  -42.8834  -11.0239 C   0  0  0  0  0  0  0  0  0  0  0  0
  -12.1248  -41.9498  -11.5018 C   0  0  0  0  0  0  0  0  0  0  0  0
  -16.1657  -41.0326  -10.9933 C   0  0  0  0  0  0  0  0  0  0  0  0
  -16.9109  -42.0350  -11.3452 O   0  0  0  0  0  0  0  0  0  0  0  0
  -16.8702  -39.9680  -10.3641 N   0  0  0  0  0  0  0  0  0  0  0  0
  1  2  1  0
  2  3  1  0
  2  4  1  0
  4  5  2  0
  5  6  1  0
  6  7  2  0
  7  8  1  0
  8  9  2  0
  6 10  1  0
 10 11  1  0
 10 12  1  0
 10 13  1  0
 13 14  1  0
 14 15  1  0
 15 16  1  1
 15 17  1  0
 17 18  1  6
 18 19  1  0
 19 20  1  6
 19 21  1  0
 21 22  1  0
 22 23  1  0
 23 24  1  0
 24 25  1  0
 25 26  1  0
 26 27  1  0
 27 28  1  0
 28 29  1  0
 29 30  2  0
 30 31  1  0
 31 32  2  0
 32 33  1  0
 33 34  2  0
 31 35  1  0
 35 36  2  0
 35 37  1  0
  9  4  1  0
 34 29  1  0
 37 17  1  0
M  END
$$$$
