
     RDKit          3D

 37 39  0  0  0  0  0  0  0  0999 V2000
  -22.0571  -38.5370   -9.4166 C   0  0  0  0  0  0  0  0  0  0  0  0
  -22.9638  -38.3230   -8.2285 C   0  0  0  0  0  0  0  0  0  0  0  0
  -22.7125  -36.9135   -7.6866 C   0  0  0  0  0  0  0  0  0  0  0  0
  -22.5327  -39.2376   -7.1309 C   0  0  0  0  0  0  0  0  0  0  0  0
  -21.2418  -39.7431   -7.0767 C   0  0  0  0  0  0  0  0  0  0  0  0
  -20.8393  -40.5896   -6.0724 C   0  0  0  0  0  0  0  0  0  0  0  0
  -21.7868  -40.9072   -5.1257 C   0  0  0  0  0  0  0  0  0  0  0  0
  -23.0644  -40.4297   -5.1471 C   0  0  0  0  0  0  0  0  0  0  0  0
  -23.4547  -39.5695   -6.1773 C   0  0  0  0  0  0  0  0  0  0  0  0
  -19.4474  -41.1668   -6.0061 C   0  0  0  0  0  0  0  0  0  0  0  0
  -19.5740  -42.6554   -5.9879 C   0  0  0  0  0  0  0  0  0  0  0  0
  -18.8365  -40.7066   -4.7291 C   0  0  0  0  0  0  0  0  0  0  0  0
  -18.6978  -40.7789   -7.1786 N   0  0  0  0  0  0  0  0  0  0  0  0
  -17.2961  -40.8265   -6.8991 C   0  0  0  0  0  0  0  0  0  0  0  0
  -16.5997  -39.6456   -7.5964 C   0  0  1  0  0  0  0  0  0  0  0  0
  -15.2907  -39.6100   -7.1210 O   0  0  0  0  0  0  0  0  0  0  0  0
  -16.7144  -39.6571   -9.0684 C   0  0  2  0  0  0  0  0  0  0  0  0
  -17.4431  -38.5299   -9.6858 C   0  0  0  0  0  0  0  0  0  0  0  0
  -16.7714  -37.1846   -9.6473 C   0  0  2  0  0  0  0  0  0  0  0  0
  -17.7883  -36.1822  -10.2043 C   0  0  0  0  0  0  0  0  0  0  0  0
  -15.6352  -37.2196  -10.6403 C   0  0  0  0  0  0  0  0  0  0  0  0
  -15.0003  -35.8500  -10.8136 C   0  0  0  0  0  0  0  0  0  0  0  0
  -14.5077  -35.7000  -12.2367 C   0  0  0  0  0  0  0  0  0  0  0  0
  -13.0135  -35.7377  -12.3502 C   0  0  0  0  0  0  0  0  0  0  0  0
  -12.5352  -36.3179  -13.6403 C   0  0  0  0  0  0  0  0  0  0  0  0
  -11.8248  -37.6336  -13.5239 C   0  0  0  0  0  0  0  0  0  0  0  0
  -12.2005  -38.4412  -12.3392 C   0  0  0  0  0  0  0  0  0  0  0  0
  -12.4192  -39.8636  -12.6126 N   0  0  0  0  0  0  0  0  0  0  0  0
  -13.3010  -40.7880  -11.9588 C   0  0  0  0  0  0  0  0  0  0  0  0
  -14.6150  -40.6674  -11.5694 C   0  0  0  0  0  0  0  0  0  0  0  0
  -15.1814  -41.7281  -10.8829 C   0  0  0  0  0  0  0  0  0  0  0  0
  -14.4167  -42.8916  -10.6107 C   0  0  0  0  0  0  0  0  0  0  0  0
  -13.1106  -43.0397  -10.9918 C   0  0  0  0  0  0  0  0  0  0  0  0
  -12.5780  -41.9750  -11.6621 C   0  0  0  0  0  0  0  0  0  0  0  0
  -16.5111  -41.8756  -10.2654 C   0  0  0  0  0  0  0  0  0  0  0  0
  -17.0858  -43.0270  -10.4324 O   0  0  0  0  0  0  0  0  0  0  0  0
  -17.2702  -40.9440   -9.5029 N   0  0  0  0  0  0  0  0  0  0  0  0
  1  2  1  0
  2  3  1  0
  2  4  1  0
  4  5  2  0
  5  6  1  0
  6  7  2  0
  7  8  1  0
  8  9  2  0
  6 10  1  0
 10 11  1  0
 10 12  1  0
 10 13  1  0
 13 14  1  0
 14 15  1  0
 15 16  1  6
 15 17  1  0
 17 18  1  1
 18 19  1  0
 19 20  1  6
 19 21  1  0
 21 22  1  0
 22 23  1  0
 23 24  1  0
 24 25  1  0
 25 26  1  0
 26 27  1  0
 27 28  1  0
 28 29  1  0
 29 30  2  0
 30 31  1  0
 31 32  2  0
 32 33  1  0
 33 34  2  0
 31 35  1  0
 35 36  2  0
 35 37  1  0
  9  4  1  0
 34 29  1  0
 37 17  1  0
M  END
$$$$
