
     RDKit          3D

 37 39  0  0  0  0  0  0  0  0999 V2000
  -21.4031  -42.5480   -6.5875 C   0  0  0  0  0  0  0  0  0  0  0  0
  -22.3097  -41.5532   -5.9034 C   0  0  0  0  0  0  0  0  0  0  0  0
  -23.7488  -41.8464   -6.3350 C   0  0  0  0  0  0  0  0  0  0  0  0
  -22.0173  -40.1935   -6.4444 C   0  0  0  0  0  0  0  0  0  0  0  0
  -20.9810  -39.9805   -7.3420 C   0  0  0  0  0  0  0  0  0  0  0  0
  -20.7025  -38.7309   -7.8402 C   0  0  0  0  0  0  0  0  0  0  0  0
  -21.5075  -37.7050   -7.3995 C   0  0  0  0  0  0  0  0  0  0  0  0
  -22.5345  -37.8770   -6.5182 C   0  0  0  0  0  0  0  0  0  0  0  0
  -22.8020  -39.1562   -6.0227 C   0  0  0  0  0  0  0  0  0  0  0  0
  -19.5680  -38.4739   -8.8004 C   0  0  0  0  0  0  0  0  0  0  0  0
  -20.0294  -37.4478   -9.7835 C   0  0  0  0  0  0  0  0  0  0  0  0
  -19.2910  -39.7516   -9.5121 C   0  0  0  0  0  0  0  0  0  0  0  0
  -18.4270  -37.9514   -8.0847 N   0  0  0  0  0  0  0  0  0  0  0  0
  -17.9970  -38.8933   -7.0982 C   0  0  0  0  0  0  0  0  0  0  0  0
  -16.4816  -39.1168   -7.2371 C   0  0  1  0  0  0  0  0  0  0  0  0
  -16.0843  -39.8853   -6.1452 O   0  0  0  0  0  0  0  0  0  0  0  0
  -16.0657  -39.6566   -8.5471 C   0  0  2  0  0  0  0  0  0  0  0  0
  -14.9403  -38.9745   -9.2186 C   0  0  0  0  0  0  0  0  0  0  0  0
  -13.5787  -39.1440   -8.6024 C   0  0  2  0  0  0  0  0  0  0  0  0
  -12.6360  -38.2255   -9.3879 C   0  0  0  0  0  0  0  0  0  0  0  0
  -13.1243  -40.5536   -8.8941 C   0  0  0  0  0  0  0  0  0  0  0  0
  -11.6818  -40.7759   -8.4716 C   0  0  0  0  0  0  0  0  0  0  0  0
  -11.0293  -41.7671   -9.4106 C   0  0  0  0  0  0  0  0  0  0  0  0
  -10.7849  -43.1044   -8.7790 C   0  0  0  0  0  0  0  0  0  0  0  0
  -10.8605  -44.2369   -9.7493 C   0  0  0  0  0  0  0  0  0  0  0  0
  -12.0144  -45.1737   -9.5481 C   0  0  0  0  0  0  0  0  0  0  0  0
  -13.1928  -44.5748   -8.8778 C   0  0  0  0  0  0  0  0  0  0  0  0
  -14.4814  -44.9161   -9.4851 N   0  0  0  0  0  0  0  0  0  0  0  0
  -15.6920  -44.1471   -9.5370 C   0  0  0  0  0  0  0  0  0  0  0  0
  -15.9124  -42.8211   -9.8298 C   0  0  0  0  0  0  0  0  0  0  0  0
  -17.2090  -42.3470   -9.7244 C   0  0  0  0  0  0  0  0  0  0  0  0
  -18.2581  -43.2192   -9.3354 C   0  0  0  0  0  0  0  0  0  0  0  0
  -18.0673  -44.5428   -9.0445 C   0  0  0  0  0  0  0  0  0  0  0  0
  -16.7774  -44.9799   -9.1521 C   0  0  0  0  0  0  0  0  0  0  0  0
  -17.7528  -40.9866   -9.8815 C   0  0  0  0  0  0  0  0  0  0  0  0
  -18.8777  -40.8995  -10.5226 O   0  0  0  0  0  0  0  0  0  0  0  0
  -17.2337  -39.7401   -9.4317 N   0  0  0  0  0  0  0  0  0  0  0  0
  1  2  1  0
  2  3  1  0
  2  4  1  0
  4  5  2  0
  5  6  1  0
  6  7  2  0
  7  8  1  0
  8  9  2  0
  6 10  1  0
 10 11  1  0
 10 12  1  0
 10 13  1  0
 13 14  1  0
 14 15  1  0
 15 16  1  1
 15 17  1  0
 17 18  1  6
 18 19  1  0
 19 20  1  6
 19 21  1  0
 21 22  1  0
 22 23  1  0
 23 24  1  0
 24 25  1  0
 25 26  1  0
 26 27  1  0
 27 28  1  0
 28 29  1  0
 29 30  2  0
 30 31  1  0
 31 32  2  0
 32 33  1  0
 33 34  2  0
 31 35  1  0
 35 36  2  0
 35 37  1  0
  9  4  1  0
 34 29  1  0
 37 17  1  0
M  END
$$$$
