
     RDKit          3D

 37 39  0  0  0  0  0  0  0  0999 V2000
  -23.0777  -40.1994  -11.1340 C   0  0  0  0  0  0  0  0  0  0  0  0
  -23.2981  -41.2427  -10.0652 C   0  0  0  0  0  0  0  0  0  0  0  0
  -24.3051  -40.6844   -9.0564 C   0  0  0  0  0  0  0  0  0  0  0  0
  -22.0321  -41.4059   -9.2920 C   0  0  0  0  0  0  0  0  0  0  0  0
  -21.4490  -40.3371   -8.6267 C   0  0  0  0  0  0  0  0  0  0  0  0
  -20.2810  -40.4784   -7.9174 C   0  0  0  0  0  0  0  0  0  0  0  0
  -19.7235  -41.7369   -7.9045 C   0  0  0  0  0  0  0  0  0  0  0  0
  -20.2682  -42.8101   -8.5467 C   0  0  0  0  0  0  0  0  0  0  0  0
  -21.4570  -42.6460   -9.2631 C   0  0  0  0  0  0  0  0  0  0  0  0
  -19.6194  -39.3256   -7.2045 C   0  0  0  0  0  0  0  0  0  0  0  0
  -20.0059  -39.4015   -5.7633 C   0  0  0  0  0  0  0  0  0  0  0  0
  -20.1584  -38.0702   -7.7957 C   0  0  0  0  0  0  0  0  0  0  0  0
  -18.1832  -39.4431   -7.3070 N   0  0  0  0  0  0  0  0  0  0  0  0
  -17.6960  -38.5821   -8.3398 C   0  0  0  0  0  0  0  0  0  0  0  0
  -16.1741  -38.7606   -8.4727 C   0  0  1  0  0  0  0  0  0  0  0  0
  -15.8335  -39.8919   -7.7344 O   0  0  0  0  0  0  0  0  0  0  0  0
  -15.6839  -38.7703   -9.8655 C   0  0  2  0  0  0  0  0  0  0  0  0
  -15.0291  -37.5366  -10.3469 C   0  0  0  0  0  0  0  0  0  0  0  0
  -13.6793  -37.2137   -9.7669 C   0  0  2  0  0  0  0  0  0  0  0  0
  -13.3008  -35.8304  -10.3076 C   0  0  0  0  0  0  0  0  0  0  0  0
  -12.6877  -38.1805  -10.3675 C   0  0  0  0  0  0  0  0  0  0  0  0
  -11.2598  -37.8269   -9.9869 C   0  0  0  0  0  0  0  0  0  0  0  0
  -10.3291  -38.2043  -11.1189 C   0  0  0  0  0  0  0  0  0  0  0  0
   -9.4751  -39.3962  -10.8073 C   0  0  0  0  0  0  0  0  0  0  0  0
   -9.1393  -40.2115  -12.0123 C   0  0  0  0  0  0  0  0  0  0  0  0
   -9.7512  -41.5804  -12.0475 C   0  0  0  0  0  0  0  0  0  0  0  0
  -11.0080  -41.7204  -11.2744 C   0  0  0  0  0  0  0  0  0  0  0  0
  -12.0705  -42.4582  -11.9618 N   0  0  0  0  0  0  0  0  0  0  0  0
  -13.4939  -42.3112  -11.8531 C   0  0  0  0  0  0  0  0  0  0  0  0
  -14.2914  -41.1902  -11.8372 C   0  0  0  0  0  0  0  0  0  0  0  0
  -15.6503  -41.3716  -11.6442 C   0  0  0  0  0  0  0  0  0  0  0  0
  -16.1797  -42.6776  -11.4803 C   0  0  0  0  0  0  0  0  0  0  0  0
  -15.4099  -43.8091  -11.4979 C   0  0  0  0  0  0  0  0  0  0  0  0
  -14.0732  -43.5979  -11.6847 C   0  0  0  0  0  0  0  0  0  0  0  0
  -16.7408  -40.3923  -11.4929 C   0  0  0  0  0  0  0  0  0  0  0  0
  -17.8447  -40.6771  -12.1127 O   0  0  0  0  0  0  0  0  0  0  0  0
  -16.7743  -39.1714  -10.7621 N   0  0  0  0  0  0  0  0  0  0  0  0
  1  2  1  0
  2  3  1  0
  2  4  1  0
  4  5  2  0
  5  6  1  0
  6  7  2  0
  7  8  1  0
  8  9  2  0
  6 10  1  0
 10 11  1  0
 10 12  1  0
 10 13  1  0
 13 14  1  0
 14 15  1  0
 15 16  1  6
 15 17  1  0
 17 18  1  6
 18 19  1  0
 19 20  1  6
 19 21  1  0
 21 22  1  0
 22 23  1  0
 23 24  1  0
 24 25  1  0
 25 26  1  0
 26 27  1  0
 27 28  1  0
 28 29  1  0
 29 30  2  0
 30 31  1  0
 31 32  2  0
 32 33  1  0
 33 34  2  0
 31 35  1  0
 35 36  2  0
 35 37  1  0
  9  4  1  0
 34 29  1  0
 37 17  1  0
M  END
$$$$
