
     RDKit          3D

 37 39  0  0  0  0  0  0  0  0999 V2000
  -12.1428  -34.3015  -11.4561 C   0  0  0  0  0  0  0  0  0  0  0  0
  -13.5000  -34.5418  -12.0723 C   0  0  0  0  0  0  0  0  0  0  0  0
  -14.5648  -34.1294  -11.0528 C   0  0  0  0  0  0  0  0  0  0  0  0
  -13.6881  -36.0118  -12.2489 C   0  0  0  0  0  0  0  0  0  0  0  0
  -13.6142  -36.8841  -11.1725 C   0  0  0  0  0  0  0  0  0  0  0  0
  -13.7810  -38.2387  -11.3281 C   0  0  0  0  0  0  0  0  0  0  0  0
  -14.0247  -38.6804  -12.6089 C   0  0  0  0  0  0  0  0  0  0  0  0
  -14.1039  -37.8526  -13.6903 C   0  0  0  0  0  0  0  0  0  0  0  0
  -13.9313  -36.4772  -13.5114 C   0  0  0  0  0  0  0  0  0  0  0  0
  -13.6840  -39.2065  -10.1753 C   0  0  0  0  0  0  0  0  0  0  0  0
  -12.3495  -39.0132   -9.5319 C   0  0  0  0  0  0  0  0  0  0  0  0
  -13.7659  -40.5807  -10.7415 C   0  0  0  0  0  0  0  0  0  0  0  0
  -14.7139  -38.9189   -9.2039 N   0  0  0  0  0  0  0  0  0  0  0  0
  -15.4943  -40.0920   -8.9587 C   0  0  0  0  0  0  0  0  0  0  0  0
  -16.9671  -39.6909   -8.7699 C   0  0  1  0  0  0  0  0  0  0  0  0
  -17.6199  -39.9730   -9.9679 O   0  0  0  0  0  0  0  0  0  0  0  0
  -17.6064  -40.2753   -7.5741 C   0  0  2  0  0  0  0  0  0  0  0  0
  -18.1666  -39.3258   -6.5906 C   0  0  0  0  0  0  0  0  0  0  0  0
  -19.3986  -38.5682   -7.0038 C   0  0  2  0  0  0  0  0  0  0  0  0
  -19.6756  -37.5583   -5.8847 C   0  0  0  0  0  0  0  0  0  0  0  0
  -20.5535  -39.5399   -6.9823 C   0  0  0  0  0  0  0  0  0  0  0  0
  -21.8813  -38.8368   -7.2093 C   0  0  0  0  0  0  0  0  0  0  0  0
  -22.9683  -39.5527   -6.4372 C   0  0  0  0  0  0  0  0  0  0  0  0
  -23.9120  -40.3152   -7.3176 C   0  0  0  0  0  0  0  0  0  0  0  0
  -24.4693  -41.5371   -6.6649 C   0  0  0  0  0  0  0  0  0  0  0  0
  -24.0238  -42.8390   -7.2618 C   0  0  0  0  0  0  0  0  0  0  0  0
  -22.7131  -42.7911   -7.9522 C   0  0  0  0  0  0  0  0  0  0  0  0
  -21.8237  -43.9166   -7.6556 N   0  0  0  0  0  0  0  0  0  0  0  0
  -20.3896  -43.9544   -7.6186 C   0  0  0  0  0  0  0  0  0  0  0  0
  -19.4735  -43.0920   -7.0619 C   0  0  0  0  0  0  0  0  0  0  0  0
  -18.1309  -43.3667   -7.2588 C   0  0  0  0  0  0  0  0  0  0  0  0
  -17.7379  -44.5083   -8.0038 C   0  0  0  0  0  0  0  0  0  0  0  0
  -18.6279  -45.3848   -8.5628 C   0  0  0  0  0  0  0  0  0  0  0  0
  -19.9446  -45.0847   -8.3562 C   0  0  0  0  0  0  0  0  0  0  0  0
  -16.9266  -42.6090   -6.8758 C   0  0  0  0  0  0  0  0  0  0  0  0
  -15.9375  -43.3146   -6.4202 O   0  0  0  0  0  0  0  0  0  0  0  0
  -16.6743  -41.2094   -6.9318 N   0  0  0  0  0  0  0  0  0  0  0  0
  1  2  1  0
  2  3  1  0
  2  4  1  0
  4  5  2  0
  5  6  1  0
  6  7  2  0
  7  8  1  0
  8  9  2  0
  6 10  1  0
 10 11  1  0
 10 12  1  0
 10 13  1  0
 13 14  1  0
 14 15  1  0
 15 16  1  6
 15 17  1  0
 17 18  1  1
 18 19  1  0
 19 20  1  1
 19 21  1  0
 21 22  1  0
 22 23  1  0
 23 24  1  0
 24 25  1  0
 25 26  1  0
 26 27  1  0
 27 28  1  0
 28 29  1  0
 29 30  2  0
 30 31  1  0
 31 32  2  0
 32 33  1  0
 33 34  2  0
 31 35  1  0
 35 36  2  0
 35 37  1  0
  9  4  1  0
 34 29  1  0
 37 17  1  0
M  END
$$$$
