
     RDKit          3D

 37 39  0  0  0  0  0  0  0  0999 V2000
  -11.3218  -37.5522  -16.4117 C   0  0  0  0  0  0  0  0  0  0  0  0
  -11.0533  -37.2915  -14.9490 C   0  0  0  0  0  0  0  0  0  0  0  0
   -9.6495  -37.8080  -14.6238 C   0  0  0  0  0  0  0  0  0  0  0  0
  -11.9720  -38.1433  -14.1380 C   0  0  0  0  0  0  0  0  0  0  0  0
  -12.6638  -37.6282  -13.0512 C   0  0  0  0  0  0  0  0  0  0  0  0
  -13.5071  -38.4074  -12.2968 C   0  0  0  0  0  0  0  0  0  0  0  0
  -13.6261  -39.7244  -12.6791 C   0  0  0  0  0  0  0  0  0  0  0  0
  -12.9619  -40.2649  -13.7410 C   0  0  0  0  0  0  0  0  0  0  0  0
  -12.1085  -39.4558  -14.4962 C   0  0  0  0  0  0  0  0  0  0  0  0
  -14.2523  -37.8731  -11.0993 C   0  0  0  0  0  0  0  0  0  0  0  0
  -15.3127  -36.9476  -11.6007 C   0  0  0  0  0  0  0  0  0  0  0  0
  -13.2772  -37.1078  -10.2751 C   0  0  0  0  0  0  0  0  0  0  0  0
  -14.8834  -38.9603  -10.3876 N   0  0  0  0  0  0  0  0  0  0  0  0
  -16.1199  -38.5191   -9.8203 C   0  0  0  0  0  0  0  0  0  0  0  0
  -16.1063  -38.7853   -8.3055 C   0  0  1  0  0  0  0  0  0  0  0  0
  -16.4871  -37.5986   -7.6829 O   0  0  0  0  0  0  0  0  0  0  0  0
  -16.8849  -39.9694   -7.8907 C   0  0  2  0  0  0  0  0  0  0  0  0
  -17.5838  -39.8821   -6.5920 C   0  0  0  0  0  0  0  0  0  0  0  0
  -18.7648  -38.9536   -6.5176 C   0  0  2  0  0  0  0  0  0  0  0  0
  -19.2015  -38.9332   -5.0486 C   0  0  0  0  0  0  0  0  0  0  0  0
  -19.8960  -39.6012   -7.2788 C   0  0  0  0  0  0  0  0  0  0  0  0
  -21.1951  -38.8303   -7.1149 C   0  0  0  0  0  0  0  0  0  0  0  0
  -22.3604  -39.7953   -7.1469 C   0  0  0  0  0  0  0  0  0  0  0  0
  -23.1690  -39.7012   -8.4056 C   0  0  0  0  0  0  0  0  0  0  0  0
  -23.7851  -41.0004   -8.8085 C   0  0  0  0  0  0  0  0  0  0  0  0
  -23.2439  -41.5984  -10.0731 C   0  0  0  0  0  0  0  0  0  0  0  0
  -21.8560  -41.1991  -10.4062 C   0  0  0  0  0  0  0  0  0  0  0  0
  -20.9932  -42.2966  -10.8500 N   0  0  0  0  0  0  0  0  0  0  0  0
  -19.5755  -42.4560  -10.6946 C   0  0  0  0  0  0  0  0  0  0  0  0
  -18.7541  -42.2578   -9.6089 C   0  0  0  0  0  0  0  0  0  0  0  0
  -17.3927  -42.4294   -9.7938 C   0  0  0  0  0  0  0  0  0  0  0  0
  -16.8871  -42.8058  -11.0648 C   0  0  0  0  0  0  0  0  0  0  0  0
  -17.6822  -43.0149  -12.1589 C   0  0  0  0  0  0  0  0  0  0  0  0
  -19.0195  -42.8328  -11.9470 C   0  0  0  0  0  0  0  0  0  0  0  0
  -16.2612  -42.2140   -8.8749 C   0  0  0  0  0  0  0  0  0  0  0  0
  -15.3274  -43.1144   -8.9093 O   0  0  0  0  0  0  0  0  0  0  0  0
  -16.0279  -41.1594   -7.9481 N   0  0  0  0  0  0  0  0  0  0  0  0
  1  2  1  0
  2  3  1  0
  2  4  1  0
  4  5  2  0
  5  6  1  0
  6  7  2  0
  7  8  1  0
  8  9  2  0
  6 10  1  0
 10 11  1  0
 10 12  1  0
 10 13  1  0
 13 14  1  0
 14 15  1  0
 15 16  1  1
 15 17  1  0
 17 18  1  1
 18 19  1  0
 19 20  1  1
 19 21  1  0
 21 22  1  0
 22 23  1  0
 23 24  1  0
 24 25  1  0
 25 26  1  0
 26 27  1  0
 27 28  1  0
 28 29  1  0
 29 30  2  0
 30 31  1  0
 31 32  2  0
 32 33  1  0
 33 34  2  0
 31 35  1  0
 35 36  2  0
 35 37  1  0
  9  4  1  0
 34 29  1  0
 37 17  1  0
M  END
$$$$
