
     RDKit          3D

 37 39  0  0  0  0  0  0  0  0999 V2000
  -10.2044  -39.2698  -13.9119 C   0  0  0  0  0  0  0  0  0  0  0  0
  -11.3339  -38.4890  -14.5397 C   0  0  0  0  0  0  0  0  0  0  0  0
  -10.7239  -37.4033  -15.4301 C   0  0  0  0  0  0  0  0  0  0  0  0
  -12.0516  -37.7436  -13.4643 C   0  0  0  0  0  0  0  0  0  0  0  0
  -13.1459  -38.2925  -12.8115 C   0  0  0  0  0  0  0  0  0  0  0  0
  -13.8147  -37.6103  -11.8244 C   0  0  0  0  0  0  0  0  0  0  0  0
  -13.3393  -36.3547  -11.5208 C   0  0  0  0  0  0  0  0  0  0  0  0
  -12.2671  -35.7834  -12.1413 C   0  0  0  0  0  0  0  0  0  0  0  0
  -11.5998  -36.4936  -13.1432 C   0  0  0  0  0  0  0  0  0  0  0  0
  -15.0188  -38.1798  -11.1167 C   0  0  0  0  0  0  0  0  0  0  0  0
  -14.9380  -39.6688  -11.2107 C   0  0  0  0  0  0  0  0  0  0  0  0
  -16.2272  -37.7031  -11.8434 C   0  0  0  0  0  0  0  0  0  0  0  0
  -14.9950  -37.8006   -9.7229 N   0  0  0  0  0  0  0  0  0  0  0  0
  -15.0800  -38.9663   -8.8988 C   0  0  0  0  0  0  0  0  0  0  0  0
  -16.1089  -38.7234   -7.7816 C   0  0  1  0  0  0  0  0  0  0  0  0
  -16.7558  -37.5264   -8.0806 O   0  0  0  0  0  0  0  0  0  0  0  0
  -17.0158  -39.8621   -7.5343 C   0  0  2  0  0  0  0  0  0  0  0  0
  -17.8830  -39.7726   -6.3416 C   0  0  0  0  0  0  0  0  0  0  0  0
  -18.9977  -38.7636   -6.3868 C   0  0  2  0  0  0  0  0  0  0  0  0
  -19.6343  -38.7663   -4.9926 C   0  0  0  0  0  0  0  0  0  0  0  0
  -20.0515  -39.2980   -7.3262 C   0  0  0  0  0  0  0  0  0  0  0  0
  -21.3060  -38.4409   -7.3065 C   0  0  0  0  0  0  0  0  0  0  0  0
  -22.5174  -39.3162   -7.5442 C   0  0  0  0  0  0  0  0  0  0  0  0
  -23.1327  -39.1164   -8.8964 C   0  0  0  0  0  0  0  0  0  0  0  0
  -23.7718  -40.3511   -9.4411 C   0  0  0  0  0  0  0  0  0  0  0  0
  -23.0995  -40.9393  -10.6459 C   0  0  0  0  0  0  0  0  0  0  0  0
  -21.6549  -40.6304  -10.7655 C   0  0  0  0  0  0  0  0  0  0  0  0
  -20.8140  -41.7707  -11.1376 N   0  0  0  0  0  0  0  0  0  0  0  0
  -19.4461  -42.0390  -10.7961 C   0  0  0  0  0  0  0  0  0  0  0  0
  -18.7741  -41.9420   -9.5995 C   0  0  0  0  0  0  0  0  0  0  0  0
  -17.4149  -42.2057   -9.6031 C   0  0  0  0  0  0  0  0  0  0  0  0
  -16.7620  -42.5703  -10.8087 C   0  0  0  0  0  0  0  0  0  0  0  0
  -17.4075  -42.6797  -12.0105 C   0  0  0  0  0  0  0  0  0  0  0  0
  -18.7461  -42.4084  -11.9764 C   0  0  0  0  0  0  0  0  0  0  0  0
  -16.4121  -42.1081   -8.5280 C   0  0  0  0  0  0  0  0  0  0  0  0
  -15.5454  -43.0724   -8.4759 O   0  0  0  0  0  0  0  0  0  0  0  0
  -16.2412  -41.1086   -7.5292 N   0  0  0  0  0  0  0  0  0  0  0  0
  1  2  1  0
  2  3  1  0
  2  4  1  0
  4  5  2  0
  5  6  1  0
  6  7  2  0
  7  8  1  0
  8  9  2  0
  6 10  1  0
 10 11  1  0
 10 12  1  0
 10 13  1  0
 13 14  1  0
 14 15  1  0
 15 16  1  6
 15 17  1  0
 17 18  1  1
 18 19  1  0
 19 20  1  1
 19 21  1  0
 21 22  1  0
 22 23  1  0
 23 24  1  0
 24 25  1  0
 25 26  1  0
 26 27  1  0
 27 28  1  0
 28 29  1  0
 29 30  2  0
 30 31  1  0
 31 32  2  0
 32 33  1  0
 33 34  2  0
 31 35  1  0
 35 36  2  0
 35 37  1  0
  9  4  1  0
 34 29  1  0
 37 17  1  0
M  END
$$$$
