
     RDKit          3D

 37 39  0  0  0  0  0  0  0  0999 V2000
  -11.7424  -36.0686  -12.9466 C   0  0  0  0  0  0  0  0  0  0  0  0
  -13.2458  -36.2027  -12.9070 C   0  0  0  0  0  0  0  0  0  0  0  0
  -13.7733  -35.3088  -11.7818 C   0  0  0  0  0  0  0  0  0  0  0  0
  -13.5879  -37.5924  -12.4841 C   0  0  0  0  0  0  0  0  0  0  0  0
  -13.2100  -38.0836  -11.2427 C   0  0  0  0  0  0  0  0  0  0  0  0
  -13.5168  -39.3634  -10.8486 C   0  0  0  0  0  0  0  0  0  0  0  0
  -14.2181  -40.1287  -11.7527 C   0  0  0  0  0  0  0  0  0  0  0  0
  -14.6058  -39.6795  -12.9810 C   0  0  0  0  0  0  0  0  0  0  0  0
  -14.2842  -38.3743  -13.3636 C   0  0  0  0  0  0  0  0  0  0  0  0
  -13.0977  -39.9240   -9.5125 C   0  0  0  0  0  0  0  0  0  0  0  0
  -12.2789  -38.8832   -8.8206 C   0  0  0  0  0  0  0  0  0  0  0  0
  -12.2540  -41.1211   -9.7786 C   0  0  0  0  0  0  0  0  0  0  0  0
  -14.2651  -40.2060   -8.7096 N   0  0  0  0  0  0  0  0  0  0  0  0
  -15.3853  -39.4649   -9.2006 C   0  0  0  0  0  0  0  0  0  0  0  0
  -16.2443  -38.9982   -8.0132 C   0  0  1  0  0  0  0  0  0  0  0  0
  -16.9257  -37.8570   -8.4306 O   0  0  0  0  0  0  0  0  0  0  0  0
  -17.1082  -40.0493   -7.4393 C   0  0  2  0  0  0  0  0  0  0  0  0
  -17.9392  -39.6651   -6.2799 C   0  0  0  0  0  0  0  0  0  0  0  0
  -19.0846  -38.7273   -6.5464 C   0  0  2  0  0  0  0  0  0  0  0  0
  -19.6760  -38.3739   -5.1773 C   0  0  0  0  0  0  0  0  0  0  0  0
  -20.1512  -39.5128   -7.2700 C   0  0  0  0  0  0  0  0  0  0  0  0
  -21.4297  -38.7070   -7.4286 C   0  0  0  0  0  0  0  0  0  0  0  0
  -22.6212  -39.6388   -7.3799 C   0  0  0  0  0  0  0  0  0  0  0  0
  -23.2851  -39.8167   -8.7120 C   0  0  0  0  0  0  0  0  0  0  0  0
  -23.9038  -41.1645   -8.8865 C   0  0  0  0  0  0  0  0  0  0  0  0
  -23.2529  -42.0366   -9.9186 C   0  0  0  0  0  0  0  0  0  0  0  0
  -21.8227  -41.7407  -10.1713 C   0  0  0  0  0  0  0  0  0  0  0  0
  -20.9602  -42.9212  -10.2618 N   0  0  0  0  0  0  0  0  0  0  0  0
  -19.5747  -43.0613   -9.9149 C   0  0  0  0  0  0  0  0  0  0  0  0
  -18.8681  -42.6373   -8.8132 C   0  0  0  0  0  0  0  0  0  0  0  0
  -17.5024  -42.8645   -8.7997 C   0  0  0  0  0  0  0  0  0  0  0  0
  -16.8776  -43.5216   -9.8908 C   0  0  0  0  0  0  0  0  0  0  0  0
  -17.5575  -43.9585  -10.9953 C   0  0  0  0  0  0  0  0  0  0  0  0
  -18.9019  -43.7155  -10.9821 C   0  0  0  0  0  0  0  0  0  0  0  0
  -16.4692  -42.4652   -7.8281 C   0  0  0  0  0  0  0  0  0  0  0  0
  -15.5726  -43.3633   -7.5571 O   0  0  0  0  0  0  0  0  0  0  0  0
  -16.2966  -41.2337   -7.1357 N   0  0  0  0  0  0  0  0  0  0  0  0
  1  2  1  0
  2  3  1  0
  2  4  1  0
  4  5  2  0
  5  6  1  0
  6  7  2  0
  7  8  1  0
  8  9  2  0
  6 10  1  0
 10 11  1  0
 10 12  1  0
 10 13  1  0
 13 14  1  0
 14 15  1  0
 15 16  1  6
 15 17  1  0
 17 18  1  1
 18 19  1  0
 19 20  1  1
 19 21  1  0
 21 22  1  0
 22 23  1  0
 23 24  1  0
 24 25  1  0
 25 26  1  0
 26 27  1  0
 27 28  1  0
 28 29  1  0
 29 30  2  0
 30 31  1  0
 31 32  2  0
 32 33  1  0
 33 34  2  0
 31 35  1  0
 35 36  2  0
 35 37  1  0
  9  4  1  0
 34 29  1  0
 37 17  1  0
M  END
$$$$
