
     RDKit          3D

 37 39  0  0  0  0  0  0  0  0999 V2000
  -21.8613  -37.2175   -7.0347 C   0  0  0  0  0  0  0  0  0  0  0  0
  -22.9212  -38.2383   -6.6968 C   0  0  0  0  0  0  0  0  0  0  0  0
  -23.0405  -38.3130   -5.1725 C   0  0  0  0  0  0  0  0  0  0  0  0
  -22.4312  -39.5864   -7.1089 C   0  0  0  0  0  0  0  0  0  0  0  0
  -21.1648  -40.0328   -6.7594 C   0  0  0  0  0  0  0  0  0  0  0  0
  -20.7050  -41.2702   -7.1396 C   0  0  0  0  0  0  0  0  0  0  0  0
  -21.5692  -42.0398   -7.8850 C   0  0  0  0  0  0  0  0  0  0  0  0
  -22.8202  -41.6339   -8.2470 C   0  0  0  0  0  0  0  0  0  0  0  0
  -23.2699  -40.3713   -7.8505 C   0  0  0  0  0  0  0  0  0  0  0  0
  -19.3247  -41.7666   -6.7883 C   0  0  0  0  0  0  0  0  0  0  0  0
  -18.8308  -42.5845   -7.9369 C   0  0  0  0  0  0  0  0  0  0  0  0
  -19.4575  -42.6329   -5.5851 C   0  0  0  0  0  0  0  0  0  0  0  0
  -18.4327  -40.6461   -6.5986 N   0  0  0  0  0  0  0  0  0  0  0  0
  -17.1555  -40.9369   -7.1726 C   0  0  0  0  0  0  0  0  0  0  0  0
  -16.5604  -39.6481   -7.7646 C   0  0  1  0  0  0  0  0  0  0  0  0
  -15.3181  -39.4622   -7.1621 O   0  0  0  0  0  0  0  0  0  0  0  0
  -16.5342  -39.6142   -9.2405 C   0  0  2  0  0  0  0  0  0  0  0  0
  -17.4816  -38.6921   -9.8998 C   0  0  0  0  0  0  0  0  0  0  0  0
  -17.2050  -37.2202   -9.7600 C   0  0  2  0  0  0  0  0  0  0  0  0
  -18.4004  -36.4981  -10.3915 C   0  0  0  0  0  0  0  0  0  0  0  0
  -16.0167  -36.9000  -10.6340 C   0  0  0  0  0  0  0  0  0  0  0  0
  -15.7628  -35.4036  -10.7080 C   0  0  0  0  0  0  0  0  0  0  0  0
  -15.2026  -35.0550  -12.0699 C   0  0  0  0  0  0  0  0  0  0  0  0
  -13.7500  -34.6870  -12.0330 C   0  0  0  0  0  0  0  0  0  0  0  0
  -13.0180  -35.0516  -13.2824 C   0  0  0  0  0  0  0  0  0  0  0  0
  -11.9918  -36.1345  -13.1279 C   0  0  0  0  0  0  0  0  0  0  0  0
  -12.2407  -37.0727  -12.0078 C   0  0  0  0  0  0  0  0  0  0  0  0
  -12.0410  -38.4859  -12.3373 N   0  0  0  0  0  0  0  0  0  0  0  0
  -12.6954  -39.6443  -11.7992 C   0  0  0  0  0  0  0  0  0  0  0  0
  -14.0227  -39.8985  -11.5414 C   0  0  0  0  0  0  0  0  0  0  0  0
  -14.3408  -41.1055  -10.9424 C   0  0  0  0  0  0  0  0  0  0  0  0
  -13.3179  -42.0354  -10.6236 C   0  0  0  0  0  0  0  0  0  0  0  0
  -11.9915  -41.8101  -10.8746 C   0  0  0  0  0  0  0  0  0  0  0  0
  -11.7083  -40.6090  -11.4609 C   0  0  0  0  0  0  0  0  0  0  0  0
  -15.6312  -41.6338  -10.4661 C   0  0  0  0  0  0  0  0  0  0  0  0
  -15.8557  -42.8866  -10.7189 O   0  0  0  0  0  0  0  0  0  0  0  0
  -16.6797  -40.9787   -9.7609 N   0  0  0  0  0  0  0  0  0  0  0  0
  1  2  1  0
  2  3  1  0
  2  4  1  0
  4  5  2  0
  5  6  1  0
  6  7  2  0
  7  8  1  0
  8  9  2  0
  6 10  1  0
 10 11  1  0
 10 12  1  0
 10 13  1  0
 13 14  1  0
 14 15  1  0
 15 16  1  1
 15 17  1  0
 17 18  1  6
 18 19  1  0
 19 20  1  6
 19 21  1  0
 21 22  1  0
 22 23  1  0
 23 24  1  0
 24 25  1  0
 25 26  1  0
 26 27  1  0
 27 28  1  0
 28 29  1  0
 29 30  2  0
 30 31  1  0
 31 32  2  0
 32 33  1  0
 33 34  2  0
 31 35  1  0
 35 36  2  0
 35 37  1  0
  9  4  1  0
 34 29  1  0
 37 17  1  0
M  END
$$$$
