
     RDKit          3D

 37 39  0  0  0  0  0  0  0  0999 V2000
  -11.8831  -34.6499  -10.5845 C   0  0  0  0  0  0  0  0  0  0  0  0
  -12.1023  -35.0096  -12.0344 C   0  0  0  0  0  0  0  0  0  0  0  0
  -13.4809  -34.4900  -12.4500 C   0  0  0  0  0  0  0  0  0  0  0  0
  -12.2034  -36.4944  -12.1456 C   0  0  0  0  0  0  0  0  0  0  0  0
  -12.5715  -37.2768  -11.0606 C   0  0  0  0  0  0  0  0  0  0  0  0
  -12.6616  -38.6444  -11.1539 C   0  0  0  0  0  0  0  0  0  0  0  0
  -12.3665  -39.1930  -12.3815 C   0  0  0  0  0  0  0  0  0  0  0  0
  -12.0012  -38.4555  -13.4694 C   0  0  0  0  0  0  0  0  0  0  0  0
  -11.9153  -37.0652  -13.3543 C   0  0  0  0  0  0  0  0  0  0  0  0
  -13.0394  -39.5152   -9.9817 C   0  0  0  0  0  0  0  0  0  0  0  0
  -11.8484  -39.6103   -9.0847 C   0  0  0  0  0  0  0  0  0  0  0  0
  -13.3638  -40.8653  -10.5182 C   0  0  0  0  0  0  0  0  0  0  0  0
  -14.1258  -38.9080   -9.2482 N   0  0  0  0  0  0  0  0  0  0  0  0
  -15.2777  -39.7544   -9.2931 C   0  0  0  0  0  0  0  0  0  0  0  0
  -16.4416  -39.0661   -8.5601 C   0  0  1  0  0  0  0  0  0  0  0  0
  -17.2292  -38.4565   -9.5341 O   0  0  0  0  0  0  0  0  0  0  0  0
  -17.1846  -39.9486   -7.6385 C   0  0  2  0  0  0  0  0  0  0  0  0
  -17.7769  -39.3124   -6.4439 C   0  0  0  0  0  0  0  0  0  0  0  0
  -18.9478  -38.3963   -6.6727 C   0  0  2  0  0  0  0  0  0  0  0  0
  -19.2650  -37.7598   -5.3149 C   0  0  0  0  0  0  0  0  0  0  0  0
  -20.1367  -39.2613   -7.0144 C   0  0  0  0  0  0  0  0  0  0  0  0
  -21.4182  -38.4482   -7.0883 C   0  0  0  0  0  0  0  0  0  0  0  0
  -22.5826  -39.3017   -6.6345 C   0  0  0  0  0  0  0  0  0  0  0  0
  -23.4897  -39.7060   -7.7573 C   0  0  0  0  0  0  0  0  0  0  0  0
  -24.1366  -41.0346   -7.5428 C   0  0  0  0  0  0  0  0  0  0  0  0
  -23.6990  -42.1169   -8.4845 C   0  0  0  0  0  0  0  0  0  0  0  0
  -22.3421  -41.9363   -9.0530 C   0  0  0  0  0  0  0  0  0  0  0  0
  -21.5182  -43.1473   -9.0669 N   0  0  0  0  0  0  0  0  0  0  0  0
  -20.0926  -43.2761   -8.9637 C   0  0  0  0  0  0  0  0  0  0  0  0
  -19.1865  -42.6770   -8.1194 C   0  0  0  0  0  0  0  0  0  0  0  0
  -17.8445  -42.9548   -8.3161 C   0  0  0  0  0  0  0  0  0  0  0  0
  -17.4428  -43.8366   -9.3523 C   0  0  0  0  0  0  0  0  0  0  0  0
  -18.3233  -44.4500  -10.2017 C   0  0  0  0  0  0  0  0  0  0  0  0
  -19.6392  -44.1524   -9.9865 C   0  0  0  0  0  0  0  0  0  0  0  0
  -16.6427  -42.4189   -7.6529 C   0  0  0  0  0  0  0  0  0  0  0  0
  -15.7150  -43.2846   -7.3814 O   0  0  0  0  0  0  0  0  0  0  0  0
  -16.3354  -41.0851   -7.2629 N   0  0  0  0  0  0  0  0  0  0  0  0
  1  2  1  0
  2  3  1  0
  2  4  1  0
  4  5  2  0
  5  6  1  0
  6  7  2  0
  7  8  1  0
  8  9  2  0
  6 10  1  0
 10 11  1  0
 10 12  1  0
 10 13  1  0
 13 14  1  0
 14 15  1  0
 15 16  1  6
 15 17  1  0
 17 18  1  1
 18 19  1  0
 19 20  1  1
 19 21  1  0
 21 22  1  0
 22 23  1  0
 23 24  1  0
 24 25  1  0
 25 26  1  0
 26 27  1  0
 27 28  1  0
 28 29  1  0
 29 30  2  0
 30 31  1  0
 31 32  2  0
 32 33  1  0
 33 34  2  0
 31 35  1  0
 35 36  2  0
 35 37  1  0
  9  4  1  0
 34 29  1  0
 37 17  1  0
M  END
$$$$
