
     RDKit          3D

 37 39  0  0  0  0  0  0  0  0999 V2000
  -23.1716  -40.5073   -6.1829 C   0  0  0  0  0  0  0  0  0  0  0  0
  -23.2139  -39.2325   -6.9908 C   0  0  0  0  0  0  0  0  0  0  0  0
  -24.3390  -39.3597   -8.0210 C   0  0  0  0  0  0  0  0  0  0  0  0
  -21.9630  -39.1408   -7.7995 C   0  0  0  0  0  0  0  0  0  0  0  0
  -20.7753  -38.6866   -7.2442 C   0  0  0  0  0  0  0  0  0  0  0  0
  -19.6213  -38.5944   -7.9836 C   0  0  0  0  0  0  0  0  0  0  0  0
  -19.7097  -38.9768   -9.3030 C   0  0  0  0  0  0  0  0  0  0  0  0
  -20.8594  -39.4277   -9.8824 C   0  0  0  0  0  0  0  0  0  0  0  0
  -22.0233  -39.5143   -9.1134 C   0  0  0  0  0  0  0  0  0  0  0  0
  -18.3251  -38.0839   -7.4054 C   0  0  0  0  0  0  0  0  0  0  0  0
  -18.3294  -38.3892   -5.9429 C   0  0  0  0  0  0  0  0  0  0  0  0
  -18.3018  -36.6086   -7.6027 C   0  0  0  0  0  0  0  0  0  0  0  0
  -17.2100  -38.7671   -8.0192 N   0  0  0  0  0  0  0  0  0  0  0  0
  -16.8134  -39.8777   -7.2101 C   0  0  0  0  0  0  0  0  0  0  0  0
  -16.7040  -41.1335   -8.0914 C   0  0  1  0  0  0  0  0  0  0  0  0
  -15.6533  -41.8941   -7.5832 O   0  0  0  0  0  0  0  0  0  0  0  0
  -17.9713  -41.8739   -8.2525 C   0  0  2  0  0  0  0  0  0  0  0  0
  -18.7296  -41.6284   -9.4964 C   0  0  0  0  0  0  0  0  0  0  0  0
  -18.1364  -42.1651  -10.7702 C   0  0  2  0  0  0  0  0  0  0  0  0
  -19.0243  -41.6475  -11.9073 C   0  0  0  0  0  0  0  0  0  0  0  0
  -18.3138  -43.6640  -10.7535 C   0  0  0  0  0  0  0  0  0  0  0  0
  -17.9109  -44.2906  -12.0778 C   0  0  0  0  0  0  0  0  0  0  0  0
  -18.7751  -45.5040  -12.3441 C   0  0  0  0  0  0  0  0  0  0  0  0
  -18.0342  -46.7988  -12.1982 C   0  0  0  0  0  0  0  0  0  0  0  0
  -18.8981  -47.9222  -11.7277 C   0  0  0  0  0  0  0  0  0  0  0  0
  -18.5848  -48.4360  -10.3539 C   0  0  0  0  0  0  0  0  0  0  0  0
  -17.9398  -47.4514   -9.4532 C   0  0  0  0  0  0  0  0  0  0  0  0
  -18.4808  -47.4207   -8.0923 N   0  0  0  0  0  0  0  0  0  0  0  0
  -18.5692  -46.3200   -7.1757 C   0  0  0  0  0  0  0  0  0  0  0  0
  -18.9724  -45.0174   -7.3586 C   0  0  0  0  0  0  0  0  0  0  0  0
  -18.8757  -44.1574   -6.2778 C   0  0  0  0  0  0  0  0  0  0  0  0
  -18.3839  -44.6282   -5.0332 C   0  0  0  0  0  0  0  0  0  0  0  0
  -17.9820  -45.9194   -4.8228 C   0  0  0  0  0  0  0  0  0  0  0  0
  -18.0840  -46.7424   -5.9085 C   0  0  0  0  0  0  0  0  0  0  0  0
  -19.1385  -42.7115   -6.1711 C   0  0  0  0  0  0  0  0  0  0  0  0
  -19.7554  -42.3283   -5.0957 O   0  0  0  0  0  0  0  0  0  0  0  0
  -18.8144  -41.6575   -7.0709 N   0  0  0  0  0  0  0  0  0  0  0  0
  1  2  1  0
  2  3  1  0
  2  4  1  0
  4  5  2  0
  5  6  1  0
  6  7  2  0
  7  8  1  0
  8  9  2  0
  6 10  1  0
 10 11  1  0
 10 12  1  0
 10 13  1  0
 13 14  1  0
 14 15  1  0
 15 16  1  1
 15 17  1  0
 17 18  1  6
 18 19  1  0
 19 20  1  6
 19 21  1  0
 21 22  1  0
 22 23  1  0
 23 24  1  0
 24 25  1  0
 25 26  1  0
 26 27  1  0
 27 28  1  0
 28 29  1  0
 29 30  2  0
 30 31  1  0
 31 32  2  0
 32 33  1  0
 33 34  2  0
 31 35  1  0
 35 36  2  0
 35 37  1  0
  9  4  1  0
 34 29  1  0
 37 17  1  0
M  END
$$$$
