
     RDKit          3D

 37 39  0  0  0  0  0  0  0  0999 V2000
  -15.0692  -34.0015  -11.2041 C   0  0  0  0  0  0  0  0  0  0  0  0
  -13.7069  -34.6256  -11.0195 C   0  0  0  0  0  0  0  0  0  0  0  0
  -12.7370  -33.9453  -11.9891 C   0  0  0  0  0  0  0  0  0  0  0  0
  -13.7692  -36.0457  -11.4740 C   0  0  0  0  0  0  0  0  0  0  0  0
  -13.7393  -37.0962  -10.5681 C   0  0  0  0  0  0  0  0  0  0  0  0
  -13.7909  -38.4060  -10.9793 C   0  0  0  0  0  0  0  0  0  0  0  0
  -13.8736  -38.6165  -12.3371 C   0  0  0  0  0  0  0  0  0  0  0  0
  -13.9051  -37.6091  -13.2563 C   0  0  0  0  0  0  0  0  0  0  0  0
  -13.8516  -36.2829  -12.8181 C   0  0  0  0  0  0  0  0  0  0  0  0
  -13.7387  -39.5630  -10.0130 C   0  0  0  0  0  0  0  0  0  0  0  0
  -12.4135  -39.5193   -9.3243 C   0  0  0  0  0  0  0  0  0  0  0  0
  -13.8394  -40.8142  -10.8131 C   0  0  0  0  0  0  0  0  0  0  0  0
  -14.7814  -39.4242   -9.0228 N   0  0  0  0  0  0  0  0  0  0  0  0
  -15.9596  -40.1093   -9.4560 C   0  0  0  0  0  0  0  0  0  0  0  0
  -17.1915  -39.4653   -8.7978 C   0  0  1  0  0  0  0  0  0  0  0  0
  -18.2036  -39.4568   -9.7551 O   0  0  0  0  0  0  0  0  0  0  0  0
  -17.5765  -40.0717   -7.5077 C   0  0  2  0  0  0  0  0  0  0  0  0
  -18.0725  -39.1514   -6.4639 C   0  0  0  0  0  0  0  0  0  0  0  0
  -19.4240  -38.5316   -6.6915 C   0  0  2  0  0  0  0  0  0  0  0  0
  -19.6268  -37.5191   -5.5589 C   0  0  0  0  0  0  0  0  0  0  0  0
  -20.4570  -39.6106   -6.4747 C   0  0  0  0  0  0  0  0  0  0  0  0
  -21.8684  -39.0486   -6.5026 C   0  0  0  0  0  0  0  0  0  0  0  0
  -22.7453  -39.8430   -5.5591 C   0  0  0  0  0  0  0  0  0  0  0  0
  -23.7305  -40.7217   -6.2692 C   0  0  0  0  0  0  0  0  0  0  0  0
  -24.0536  -41.9713   -5.5183 C   0  0  0  0  0  0  0  0  0  0  0  0
  -23.5751  -43.2413   -6.1569 C   0  0  0  0  0  0  0  0  0  0  0  0
  -22.3979  -43.0868   -7.0441 C   0  0  0  0  0  0  0  0  0  0  0  0
  -21.3637  -44.1098   -6.8724 N   0  0  0  0  0  0  0  0  0  0  0  0
  -19.9446  -44.0056   -7.0592 C   0  0  0  0  0  0  0  0  0  0  0  0
  -19.0464  -43.0405   -6.6660 C   0  0  0  0  0  0  0  0  0  0  0  0
  -17.7290  -43.1883   -7.0658 C   0  0  0  0  0  0  0  0  0  0  0  0
  -17.3412  -44.3086   -7.8450 C   0  0  0  0  0  0  0  0  0  0  0  0
  -18.2128  -45.2853   -8.2443 C   0  0  0  0  0  0  0  0  0  0  0  0
  -19.5057  -45.1094   -7.8394 C   0  0  0  0  0  0  0  0  0  0  0  0
  -16.5636  -42.3045   -6.8875 C   0  0  0  0  0  0  0  0  0  0  0  0
  -15.4496  -42.8951   -6.5809 O   0  0  0  0  0  0  0  0  0  0  0  0
  -16.4667  -40.8894   -7.0043 N   0  0  0  0  0  0  0  0  0  0  0  0
  1  2  1  0
  2  3  1  0
  2  4  1  0
  4  5  2  0
  5  6  1  0
  6  7  2  0
  7  8  1  0
  8  9  2  0
  6 10  1  0
 10 11  1  0
 10 12  1  0
 10 13  1  0
 13 14  1  0
 14 15  1  0
 15 16  1  6
 15 17  1  0
 17 18  1  1
 18 19  1  0
 19 20  1  1
 19 21  1  0
 21 22  1  0
 22 23  1  0
 23 24  1  0
 24 25  1  0
 25 26  1  0
 26 27  1  0
 27 28  1  0
 28 29  1  0
 29 30  2  0
 30 31  1  0
 31 32  2  0
 32 33  1  0
 33 34  2  0
 31 35  1  0
 35 36  2  0
 35 37  1  0
  9  4  1  0
 34 29  1  0
 37 17  1  0
M  END
$$$$
