
     RDKit          3D

 37 39  0  0  0  0  0  0  0  0999 V2000
  -17.4339  -36.7877  -12.5207 C   0  0  0  0  0  0  0  0  0  0  0  0
  -15.9401  -36.7670  -12.8351 C   0  0  0  0  0  0  0  0  0  0  0  0
  -15.3814  -35.5210  -12.1822 C   0  0  0  0  0  0  0  0  0  0  0  0
  -15.3345  -37.9729  -12.2091 C   0  0  0  0  0  0  0  0  0  0  0  0
  -14.5317  -37.8625  -11.0993 C   0  0  0  0  0  0  0  0  0  0  0  0
  -13.9833  -38.9890  -10.5413 C   0  0  0  0  0  0  0  0  0  0  0  0
  -13.1201  -38.8787   -9.3556 C   0  0  0  0  0  0  0  0  0  0  0  0
  -13.7573  -39.4374   -8.1737 N   0  0  0  0  0  0  0  0  0  0  0  0
  -15.1755  -39.5875   -8.4095 C   0  0  0  0  0  0  0  0  0  0  0  0
  -16.0248  -39.0313   -7.2909 C   0  0  1  0  0  0  0  0  0  0  0  0
  -16.4129  -37.7284   -7.5770 O   0  0  0  0  0  0  0  0  0  0  0  0
  -17.3220  -39.8789   -7.2415 C   0  0  2  0  0  0  0  0  0  0  0  0
  -18.0797  -39.5706   -6.0275 C   0  0  0  0  0  0  0  0  0  0  0  0
  -19.5662  -39.5132   -6.0189 C   0  0  0  0  0  0  0  0  0  0  0  0
  -20.4678  -38.9949   -6.9071 C   0  0  0  0  0  0  0  0  0  0  0  0
  -21.8171  -39.1114   -6.6135 C   0  0  0  0  0  0  0  0  0  0  0  0
  -22.2389  -39.7420   -5.4321 C   0  0  0  0  0  0  0  0  0  0  0  0
  -21.3684  -40.2728   -4.5160 C   0  0  0  0  0  0  0  0  0  0  0  0
  -20.0485  -40.1425   -4.8388 C   0  0  0  0  0  0  0  0  0  0  0  0
  -22.9047  -38.6749   -7.3499 O   0  0  0  0  0  0  0  0  0  0  0  0
  -23.3974  -38.8604   -8.6256 C   0  0  0  0  0  0  0  0  0  0  0  0
  -23.7480  -40.2873   -8.9855 C   0  0  0  0  0  0  0  0  0  0  0  0
  -22.5104  -41.1478   -9.2105 C   0  0  0  0  0  0  0  0  0  0  0  0
  -22.5346  -42.3010   -8.2645 C   0  0  0  0  0  0  0  0  0  0  0  0
  -21.8145  -43.5284   -8.7287 C   0  0  0  0  0  0  0  0  0  0  0  0
  -20.5432  -43.3008   -9.4131 C   0  0  0  0  0  0  0  0  0  0  0  0
  -20.5310  -43.5002  -10.6798 O   0  0  0  0  0  0  0  0  0  0  0  0
  -19.3287  -42.8899   -8.8588 N   0  0  0  0  0  0  0  0  0  0  0  0
  -18.2262  -42.4608   -9.6978 C   0  0  0  0  0  0  0  0  0  0  0  0
  -19.0495  -42.8525   -7.4140 C   0  0  1  0  0  0  0  0  0  0  0  0
  -19.3185  -44.1930   -6.7803 C   0  0  0  0  0  0  0  0  0  0  0  0
  -17.6689  -42.4241   -7.1163 C   0  0  0  0  0  0  0  0  0  0  0  0
  -16.9785  -43.2420   -6.4000 O   0  0  0  0  0  0  0  0  0  0  0  0
  -17.0054  -41.2627   -7.4991 N   0  0  0  0  0  0  0  0  0  0  0  0
  -14.2333  -40.2261  -11.0865 C   0  0  0  0  0  0  0  0  0  0  0  0
  -15.0307  -40.3418  -12.1895 C   0  0  0  0  0  0  0  0  0  0  0  0
  -15.5920  -39.2152  -12.7655 C   0  0  0  0  0  0  0  0  0  0  0  0
  1  2  1  0
  2  3  1  0
  2  4  1  0
  4  5  2  0
  5  6  1  0
  6  7  1  0
  7  8  1  0
  8  9  1  0
  9 10  1  0
 10 11  1  6
 10 12  1  0
 12 13  1  1
 13 14  1  0
 14 15  2  0
 15 16  1  0
 16 17  2  0
 17 18  1  0
 18 19  2  0
 16 20  1  0
 20 21  1  0
 21 22  1  0
 22 23  1  0
 23 24  1  0
 24 25  1  0
 25 26  1  0
 26 27  2  0
 26 28  1  0
 28 29  1  0
 28 30  1  0
 30 31  1  6
 30 32  1  0
 32 33  2  0
 32 34  1  0
  6 35  2  0
 35 36  1  0
 36 37  2  0
 19 14  1  0
 34 12  1  0
 37  4  1  0
M  END
$$$$
