
     RDKit          3D

 37 39  0  0  0  0  0  0  0  0999 V2000
  -11.0907  -35.8693  -12.0200 C   0  0  0  0  0  0  0  0  0  0  0  0
  -12.4996  -36.0897  -12.5651 C   0  0  0  0  0  0  0  0  0  0  0  0
  -12.4201  -35.8713  -14.0607 C   0  0  0  0  0  0  0  0  0  0  0  0
  -12.8712  -37.5028  -12.2861 C   0  0  0  0  0  0  0  0  0  0  0  0
  -12.8708  -37.9908  -11.0015 C   0  0  0  0  0  0  0  0  0  0  0  0
  -13.2153  -39.2980  -10.7699 C   0  0  0  0  0  0  0  0  0  0  0  0
  -13.2139  -39.8286   -9.3982 C   0  0  0  0  0  0  0  0  0  0  0  0
  -14.5599  -40.1320   -8.9384 N   0  0  0  0  0  0  0  0  0  0  0  0
  -15.4503  -39.0484   -9.2884 C   0  0  0  0  0  0  0  0  0  0  0  0
  -16.1862  -38.4779   -8.0989 C   0  0  1  0  0  0  0  0  0  0  0  0
  -16.6754  -37.2111   -8.3919 O   0  0  0  0  0  0  0  0  0  0  0  0
  -17.4205  -39.3830   -7.8522 C   0  0  2  0  0  0  0  0  0  0  0  0
  -18.2688  -38.8052   -6.8085 C   0  0  0  0  0  0  0  0  0  0  0  0
  -19.7536  -38.8746   -6.8706 C   0  0  0  0  0  0  0  0  0  0  0  0
  -20.6355  -38.7115   -7.9031 C   0  0  0  0  0  0  0  0  0  0  0  0
  -21.9881  -38.8534   -7.6373 C   0  0  0  0  0  0  0  0  0  0  0  0
  -22.4333  -39.1522   -6.3397 C   0  0  0  0  0  0  0  0  0  0  0  0
  -21.5831  -39.3217   -5.2780 C   0  0  0  0  0  0  0  0  0  0  0  0
  -20.2589  -39.1776   -5.5769 C   0  0  0  0  0  0  0  0  0  0  0  0
  -23.0584  -38.7407   -8.5076 O   0  0  0  0  0  0  0  0  0  0  0  0
  -23.4602  -39.3256   -9.6912 C   0  0  0  0  0  0  0  0  0  0  0  0
  -23.6867  -40.8202   -9.6333 C   0  0  0  0  0  0  0  0  0  0  0  0
  -22.3799  -41.6004   -9.5537 C   0  0  0  0  0  0  0  0  0  0  0  0
  -22.3780  -42.4316   -8.3148 C   0  0  0  0  0  0  0  0  0  0  0  0
  -21.5463  -43.6745   -8.3759 C   0  0  0  0  0  0  0  0  0  0  0  0
  -20.2561  -43.5454   -9.0505 C   0  0  0  0  0  0  0  0  0  0  0  0
  -20.1547  -44.0979  -10.2032 O   0  0  0  0  0  0  0  0  0  0  0  0
  -19.1088  -42.8908   -8.5960 N   0  0  0  0  0  0  0  0  0  0  0  0
  -17.9919  -42.6282   -9.4831 C   0  0  0  0  0  0  0  0  0  0  0  0
  -18.9191  -42.4170   -7.2153 C   0  0  1  0  0  0  0  0  0  0  0  0
  -19.1292  -43.5372   -6.2296 C   0  0  0  0  0  0  0  0  0  0  0  0
  -17.5925  -41.8052   -7.0053 C   0  0  0  0  0  0  0  0  0  0  0  0
  -16.8893  -42.3214   -6.0578 O   0  0  0  0  0  0  0  0  0  0  0  0
  -16.9917  -40.7503   -7.6849 N   0  0  0  0  0  0  0  0  0  0  0  0
  -13.5608  -40.1207  -11.8159 C   0  0  0  0  0  0  0  0  0  0  0  0
  -13.5631  -39.6410  -13.0948 C   0  0  0  0  0  0  0  0  0  0  0  0
  -13.2178  -38.3244  -13.3464 C   0  0  0  0  0  0  0  0  0  0  0  0
  1  2  1  0
  2  3  1  0
  2  4  1  0
  4  5  2  0
  5  6  1  0
  6  7  1  0
  7  8  1  0
  8  9  1  0
  9 10  1  0
 10 11  1  6
 10 12  1  0
 12 13  1  1
 13 14  1  0
 14 15  2  0
 15 16  1  0
 16 17  2  0
 17 18  1  0
 18 19  2  0
 16 20  1  0
 20 21  1  0
 21 22  1  0
 22 23  1  0
 23 24  1  0
 24 25  1  0
 25 26  1  0
 26 27  2  0
 26 28  1  0
 28 29  1  0
 28 30  1  0
 30 31  1  1
 30 32  1  0
 32 33  2  0
 32 34  1  0
  6 35  2  0
 35 36  1  0
 36 37  2  0
 19 14  1  0
 34 12  1  0
 37  4  1  0
M  END
$$$$
