
     RDKit          3D

 37 39  0  0  0  0  0  0  0  0999 V2000
   -9.5242  -41.9549  -10.4004 C   0  0  0  0  0  0  0  0  0  0  0  0
  -10.8783  -42.3339   -9.8057 C   0  0  0  0  0  0  0  0  0  0  0  0
  -10.8425  -41.9109   -8.3529 C   0  0  0  0  0  0  0  0  0  0  0  0
  -11.9183  -41.5528  -10.5275 C   0  0  0  0  0  0  0  0  0  0  0  0
  -12.2557  -40.2844  -10.1204 C   0  0  0  0  0  0  0  0  0  0  0  0
  -13.2192  -39.5849  -10.8011 C   0  0  0  0  0  0  0  0  0  0  0  0
  -13.5884  -38.2283  -10.3692 C   0  0  0  0  0  0  0  0  0  0  0  0
  -13.9886  -38.2001   -8.9713 N   0  0  0  0  0  0  0  0  0  0  0  0
  -15.1624  -39.0226   -8.7837 C   0  0  0  0  0  0  0  0  0  0  0  0
  -16.1871  -38.3938   -7.8691 C   0  0  1  0  0  0  0  0  0  0  0  0
  -16.6584  -37.2049   -8.4116 O   0  0  0  0  0  0  0  0  0  0  0  0
  -17.3960  -39.3625   -7.8080 C   0  0  2  0  0  0  0  0  0  0  0  0
  -18.3039  -38.9682   -6.7295 C   0  0  0  0  0  0  0  0  0  0  0  0
  -19.7817  -39.0734   -6.8647 C   0  0  0  0  0  0  0  0  0  0  0  0
  -20.6290  -38.7896   -7.8999 C   0  0  0  0  0  0  0  0  0  0  0  0
  -21.9848  -39.0099   -7.7155 C   0  0  0  0  0  0  0  0  0  0  0  0
  -22.4677  -39.5070   -6.4945 C   0  0  0  0  0  0  0  0  0  0  0  0
  -21.6530  -39.8024   -5.4327 C   0  0  0  0  0  0  0  0  0  0  0  0
  -20.3245  -39.5760   -5.6506 C   0  0  0  0  0  0  0  0  0  0  0  0
  -23.0246  -38.8052   -8.6057 O   0  0  0  0  0  0  0  0  0  0  0  0
  -23.3594  -39.2245   -9.8772 C   0  0  0  0  0  0  0  0  0  0  0  0
  -23.5331  -40.7180  -10.0441 C   0  0  0  0  0  0  0  0  0  0  0  0
  -22.2027  -41.4611  -10.0213 C   0  0  0  0  0  0  0  0  0  0  0  0
  -22.2176  -42.4625   -8.9156 C   0  0  0  0  0  0  0  0  0  0  0  0
  -21.3393  -43.6573   -9.1186 C   0  0  0  0  0  0  0  0  0  0  0  0
  -20.0300  -43.3924   -9.7117 C   0  0  0  0  0  0  0  0  0  0  0  0
  -19.8647  -43.7687  -10.9264 O   0  0  0  0  0  0  0  0  0  0  0  0
  -18.9255  -42.7757   -9.1192 N   0  0  0  0  0  0  0  0  0  0  0  0
  -17.7859  -42.3532   -9.9106 C   0  0  0  0  0  0  0  0  0  0  0  0
  -18.8059  -42.5012   -7.6779 C   0  0  1  0  0  0  0  0  0  0  0  0
  -19.0123  -43.7584   -6.8731 C   0  0  0  0  0  0  0  0  0  0  0  0
  -17.5115  -41.8860   -7.3256 C   0  0  0  0  0  0  0  0  0  0  0  0
  -16.8264  -42.5122   -6.4326 O   0  0  0  0  0  0  0  0  0  0  0  0
  -16.9242  -40.7259   -7.8203 N   0  0  0  0  0  0  0  0  0  0  0  0
  -13.8474  -40.1462  -11.8876 C   0  0  0  0  0  0  0  0  0  0  0  0
  -13.5159  -41.4065  -12.2969 C   0  0  0  0  0  0  0  0  0  0  0  0
  -12.5460  -42.1266  -11.6211 C   0  0  0  0  0  0  0  0  0  0  0  0
  1  2  1  0
  2  3  1  0
  2  4  1  0
  4  5  2  0
  5  6  1  0
  6  7  1  0
  7  8  1  0
  8  9  1  0
  9 10  1  0
 10 11  1  6
 10 12  1  0
 12 13  1  1
 13 14  1  0
 14 15  2  0
 15 16  1  0
 16 17  2  0
 17 18  1  0
 18 19  2  0
 16 20  1  0
 20 21  1  0
 21 22  1  0
 22 23  1  0
 23 24  1  0
 24 25  1  0
 25 26  1  0
 26 27  2  0
 26 28  1  0
 28 29  1  0
 28 30  1  0
 30 31  1  1
 30 32  1  0
 32 33  2  0
 32 34  1  0
  6 35  2  0
 35 36  1  0
 36 37  2  0
 19 14  1  0
 34 12  1  0
 37  4  1  0
M  END
$$$$
