
     RDKit          3D

 37 39  0  0  0  0  0  0  0  0999 V2000
  -14.2425  -35.8730  -14.1710 C   0  0  0  0  0  0  0  0  0  0  0  0
  -13.8103  -35.2745  -12.8347 C   0  0  0  0  0  0  0  0  0  0  0  0
  -15.0809  -34.9338  -12.0861 C   0  0  0  0  0  0  0  0  0  0  0  0
  -13.0618  -36.3258  -12.0949 C   0  0  0  0  0  0  0  0  0  0  0  0
  -13.7103  -37.4235  -11.5824 C   0  0  0  0  0  0  0  0  0  0  0  0
  -12.9985  -38.3784  -10.9023 C   0  0  0  0  0  0  0  0  0  0  0  0
  -13.6861  -39.5544  -10.3477 C   0  0  0  0  0  0  0  0  0  0  0  0
  -14.0487  -39.3564   -8.9533 N   0  0  0  0  0  0  0  0  0  0  0  0
  -15.4520  -39.0233   -8.8572 C   0  0  0  0  0  0  0  0  0  0  0  0
  -15.9502  -38.9598   -7.4325 C   0  0  1  0  0  0  0  0  0  0  0  0
  -16.3787  -37.6748   -7.1242 O   0  0  0  0  0  0  0  0  0  0  0  0
  -17.1985  -39.8752   -7.3470 C   0  0  2  0  0  0  0  0  0  0  0  0
  -17.7781  -39.8132   -6.0043 C   0  0  0  0  0  0  0  0  0  0  0  0
  -19.2482  -39.8413   -5.7777 C   0  0  0  0  0  0  0  0  0  0  0  0
  -20.2868  -39.2354   -6.4293 C   0  0  0  0  0  0  0  0  0  0  0  0
  -21.5737  -39.4738   -5.9737 C   0  0  0  0  0  0  0  0  0  0  0  0
  -21.7964  -40.3123   -4.8699 C   0  0  0  0  0  0  0  0  0  0  0  0
  -20.7840  -40.9367   -4.1888 C   0  0  0  0  0  0  0  0  0  0  0  0
  -19.5309  -40.6816   -4.6665 C   0  0  0  0  0  0  0  0  0  0  0  0
  -22.7712  -38.9839   -6.4651 O   0  0  0  0  0  0  0  0  0  0  0  0
  -23.4406  -38.9847   -7.6719 C   0  0  0  0  0  0  0  0  0  0  0  0
  -23.7954  -40.3505   -8.2171 C   0  0  0  0  0  0  0  0  0  0  0  0
  -22.5780  -41.0919   -8.7567 C   0  0  0  0  0  0  0  0  0  0  0  0
  -22.4259  -42.3843   -8.0273 C   0  0  0  0  0  0  0  0  0  0  0  0
  -21.7439  -43.4766   -8.7902 C   0  0  0  0  0  0  0  0  0  0  0  0
  -20.5953  -43.0691   -9.5971 C   0  0  0  0  0  0  0  0  0  0  0  0
  -20.7639  -43.0569  -10.8682 O   0  0  0  0  0  0  0  0  0  0  0  0
  -19.3259  -42.6874   -9.1566 N   0  0  0  0  0  0  0  0  0  0  0  0
  -18.3734  -42.0655  -10.0562 C   0  0  0  0  0  0  0  0  0  0  0  0
  -18.8379  -42.8721   -7.7801 C   0  0  1  0  0  0  0  0  0  0  0  0
  -18.9681  -44.3113   -7.3530 C   0  0  0  0  0  0  0  0  0  0  0  0
  -17.4427  -42.4218   -7.6102 C   0  0  0  0  0  0  0  0  0  0  0  0
  -16.6287  -43.3063   -7.1478 O   0  0  0  0  0  0  0  0  0  0  0  0
  -16.8799  -41.1781   -7.8786 N   0  0  0  0  0  0  0  0  0  0  0  0
  -11.6411  -38.2424  -10.7319 C   0  0  0  0  0  0  0  0  0  0  0  0
  -10.9912  -37.1535  -11.2393 C   0  0  0  0  0  0  0  0  0  0  0  0
  -11.6943  -36.1801  -11.9280 C   0  0  0  0  0  0  0  0  0  0  0  0
  1  2  1  0
  2  3  1  0
  2  4  1  0
  4  5  2  0
  5  6  1  0
  6  7  1  0
  7  8  1  0
  8  9  1  0
  9 10  1  0
 10 11  1  6
 10 12  1  0
 12 13  1  1
 13 14  1  0
 14 15  2  0
 15 16  1  0
 16 17  2  0
 17 18  1  0
 18 19  2  0
 16 20  1  0
 20 21  1  0
 21 22  1  0
 22 23  1  0
 23 24  1  0
 24 25  1  0
 25 26  1  0
 26 27  2  0
 26 28  1  0
 28 29  1  0
 28 30  1  0
 30 31  1  6
 30 32  1  0
 32 33  2  0
 32 34  1  0
  6 35  2  0
 35 36  1  0
 36 37  2  0
 19 14  1  0
 34 12  1  0
 37  4  1  0
M  END
$$$$
