
     RDKit          3D

 37 39  0  0  0  0  0  0  0  0999 V2000
  -12.3501  -34.9772  -10.8104 C   0  0  0  0  0  0  0  0  0  0  0  0
  -12.3079  -35.3726  -12.2844 C   0  0  0  0  0  0  0  0  0  0  0  0
  -10.8937  -35.8330  -12.5649 C   0  0  0  0  0  0  0  0  0  0  0  0
  -13.2490  -36.5096  -12.4696 C   0  0  0  0  0  0  0  0  0  0  0  0
  -13.4875  -37.3998  -11.4502 C   0  0  0  0  0  0  0  0  0  0  0  0
  -14.3580  -38.4413  -11.6460 C   0  0  0  0  0  0  0  0  0  0  0  0
  -14.6157  -39.4002  -10.5609 C   0  0  0  0  0  0  0  0  0  0  0  0
  -14.9554  -38.7260   -9.3178 N   0  0  0  0  0  0  0  0  0  0  0  0
  -16.3778  -38.4720   -9.2740 C   0  0  0  0  0  0  0  0  0  0  0  0
  -16.8874  -38.1915   -7.8799 C   0  0  1  0  0  0  0  0  0  0  0  0
  -17.5629  -36.9781   -7.8443 O   0  0  0  0  0  0  0  0  0  0  0  0
  -17.9310  -39.2891   -7.5489 C   0  0  2  0  0  0  0  0  0  0  0  0
  -18.6990  -38.9126   -6.3609 C   0  0  0  0  0  0  0  0  0  0  0  0
  -20.1521  -39.2060   -6.2354 C   0  0  0  0  0  0  0  0  0  0  0  0
  -21.1843  -39.1191   -7.1284 C   0  0  0  0  0  0  0  0  0  0  0  0
  -22.4515  -39.4834   -6.7017 C   0  0  0  0  0  0  0  0  0  0  0  0
  -22.6623  -39.9245   -5.3856 C   0  0  0  0  0  0  0  0  0  0  0  0
  -21.6562  -40.0245   -4.4602 C   0  0  0  0  0  0  0  0  0  0  0  0
  -20.4219  -39.6604   -4.9157 C   0  0  0  0  0  0  0  0  0  0  0  0
  -23.6382  -39.4849   -7.4139 O   0  0  0  0  0  0  0  0  0  0  0  0
  -24.1133  -40.0524   -8.5787 C   0  0  0  0  0  0  0  0  0  0  0  0
  -24.1110  -41.5649   -8.6123 C   0  0  0  0  0  0  0  0  0  0  0  0
  -22.7071  -42.1378   -8.7658 C   0  0  0  0  0  0  0  0  0  0  0  0
  -22.4115  -43.0317   -7.6086 C   0  0  0  0  0  0  0  0  0  0  0  0
  -21.4258  -44.1257   -7.8767 C   0  0  0  0  0  0  0  0  0  0  0  0
  -20.2753  -43.7591   -8.7003 C   0  0  0  0  0  0  0  0  0  0  0  0
  -20.2579  -44.2192   -9.8971 O   0  0  0  0  0  0  0  0  0  0  0  0
  -19.1823  -42.9641   -8.3472 N   0  0  0  0  0  0  0  0  0  0  0  0
  -18.2506  -42.4797   -9.3476 C   0  0  0  0  0  0  0  0  0  0  0  0
  -18.8713  -42.5504   -6.9692 C   0  0  1  0  0  0  0  0  0  0  0  0
  -18.7770  -43.7469   -6.0579 C   0  0  0  0  0  0  0  0  0  0  0  0
  -17.6308  -41.7553   -6.8844 C   0  0  0  0  0  0  0  0  0  0  0  0
  -16.7345  -42.2131   -6.0807 O   0  0  0  0  0  0  0  0  0  0  0  0
  -17.2900  -40.5817   -7.5491 N   0  0  0  0  0  0  0  0  0  0  0  0
  -14.9923  -38.5981  -12.8556 C   0  0  0  0  0  0  0  0  0  0  0  0
  -14.7592  -37.7162  -13.8723 C   0  0  0  0  0  0  0  0  0  0  0  0
  -13.8834  -36.6596  -13.6920 C   0  0  0  0  0  0  0  0  0  0  0  0
  1  2  1  0
  2  3  1  0
  2  4  1  0
  4  5  2  0
  5  6  1  0
  6  7  1  0
  7  8  1  0
  8  9  1  0
  9 10  1  0
 10 11  1  6
 10 12  1  0
 12 13  1  1
 13 14  1  0
 14 15  2  0
 15 16  1  0
 16 17  2  0
 17 18  1  0
 18 19  2  0
 16 20  1  0
 20 21  1  0
 21 22  1  0
 22 23  1  0
 23 24  1  0
 24 25  1  0
 25 26  1  0
 26 27  2  0
 26 28  1  0
 28 29  1  0
 28 30  1  0
 30 31  1  1
 30 32  1  0
 32 33  2  0
 32 34  1  0
  6 35  2  0
 35 36  1  0
 36 37  2  0
 19 14  1  0
 34 12  1  0
 37  4  1  0
M  END
$$$$
