
     RDKit          3D

 37 39  0  0  0  0  0  0  0  0999 V2000
  -15.2252  -35.7767  -13.6846 C   0  0  0  0  0  0  0  0  0  0  0  0
  -13.9080  -35.9493  -12.9321 C   0  0  0  0  0  0  0  0  0  0  0  0
  -13.9560  -34.9945  -11.7587 C   0  0  0  0  0  0  0  0  0  0  0  0
  -13.8577  -37.3501  -12.4341 C   0  0  0  0  0  0  0  0  0  0  0  0
  -13.6860  -37.6166  -11.0970 C   0  0  0  0  0  0  0  0  0  0  0  0
  -13.6409  -38.9166  -10.6625 C   0  0  0  0  0  0  0  0  0  0  0  0
  -13.4537  -39.2100   -9.2334 C   0  0  0  0  0  0  0  0  0  0  0  0
  -14.4978  -40.0848   -8.7236 N   0  0  0  0  0  0  0  0  0  0  0  0
  -15.7931  -39.5792   -9.1185 C   0  0  0  0  0  0  0  0  0  0  0  0
  -16.5470  -38.9284   -7.9828 C   0  0  1  0  0  0  0  0  0  0  0  0
  -17.0937  -37.7187   -8.3924 O   0  0  0  0  0  0  0  0  0  0  0  0
  -17.7385  -39.8583   -7.6373 C   0  0  2  0  0  0  0  0  0  0  0  0
  -18.5145  -39.2937   -6.5319 C   0  0  0  0  0  0  0  0  0  0  0  0
  -19.9978  -39.3948   -6.4771 C   0  0  0  0  0  0  0  0  0  0  0  0
  -20.9612  -39.2552   -7.4377 C   0  0  0  0  0  0  0  0  0  0  0  0
  -22.2855  -39.4245   -7.0661 C   0  0  0  0  0  0  0  0  0  0  0  0
  -22.6210  -39.7267   -5.7367 C   0  0  0  0  0  0  0  0  0  0  0  0
  -21.6868  -39.8733   -4.7445 C   0  0  0  0  0  0  0  0  0  0  0  0
  -20.3935  -39.7025   -5.1468 C   0  0  0  0  0  0  0  0  0  0  0  0
  -23.4229  -39.3385   -7.8500 O   0  0  0  0  0  0  0  0  0  0  0  0
  -23.9036  -39.9372   -8.9967 C   0  0  0  0  0  0  0  0  0  0  0  0
  -24.0927  -41.4360   -8.9169 C   0  0  0  0  0  0  0  0  0  0  0  0
  -22.7672  -42.1880   -8.9378 C   0  0  0  0  0  0  0  0  0  0  0  0
  -22.6504  -43.0132   -7.7005 C   0  0  0  0  0  0  0  0  0  0  0  0
  -21.7996  -44.2385   -7.8230 C   0  0  0  0  0  0  0  0  0  0  0  0
  -20.5693  -44.0853   -8.5972 C   0  0  0  0  0  0  0  0  0  0  0  0
  -20.5468  -44.6408   -9.7527 O   0  0  0  0  0  0  0  0  0  0  0  0
  -19.4042  -43.4044   -8.2360 N   0  0  0  0  0  0  0  0  0  0  0  0
  -18.3662  -43.1223   -9.2088 C   0  0  0  0  0  0  0  0  0  0  0  0
  -19.1171  -42.9203   -6.8759 C   0  0  1  0  0  0  0  0  0  0  0  0
  -19.2251  -44.0403   -5.8734 C   0  0  0  0  0  0  0  0  0  0  0  0
  -17.7915  -42.2797   -6.7724 C   0  0  0  0  0  0  0  0  0  0  0  0
  -17.0053  -42.7765   -5.8815 O   0  0  0  0  0  0  0  0  0  0  0  0
  -17.2686  -41.2155   -7.5002 N   0  0  0  0  0  0  0  0  0  0  0  0
  -13.7670  -39.9526  -11.5575 C   0  0  0  0  0  0  0  0  0  0  0  0
  -13.9381  -39.6937  -12.8876 C   0  0  0  0  0  0  0  0  0  0  0  0
  -13.9856  -38.3875  -13.3433 C   0  0  0  0  0  0  0  0  0  0  0  0
  1  2  1  0
  2  3  1  0
  2  4  1  0
  4  5  2  0
  5  6  1  0
  6  7  1  0
  7  8  1  0
  8  9  1  0
  9 10  1  0
 10 11  1  6
 10 12  1  0
 12 13  1  1
 13 14  1  0
 14 15  2  0
 15 16  1  0
 16 17  2  0
 17 18  1  0
 18 19  2  0
 16 20  1  0
 20 21  1  0
 21 22  1  0
 22 23  1  0
 23 24  1  0
 24 25  1  0
 25 26  1  0
 26 27  2  0
 26 28  1  0
 28 29  1  0
 28 30  1  0
 30 31  1  1
 30 32  1  0
 32 33  2  0
 32 34  1  0
  6 35  2  0
 35 36  1  0
 36 37  2  0
 19 14  1  0
 34 12  1  0
 37  4  1  0
M  END
$$$$
