
     RDKit          3D

 37 39  0  0  0  0  0  0  0  0999 V2000
  -15.5255  -34.2887   -9.9309 C   0  0  0  0  0  0  0  0  0  0  0  0
  -14.4992  -34.4807  -11.0448 C   0  0  0  0  0  0  0  0  0  0  0  0
  -13.1651  -34.0441  -10.4789 C   0  0  0  0  0  0  0  0  0  0  0  0
  -14.4541  -35.9325  -11.3660 C   0  0  0  0  0  0  0  0  0  0  0  0
  -14.1197  -36.8564  -10.4054 C   0  0  0  0  0  0  0  0  0  0  0  0
  -14.0831  -38.1893  -10.7266 C   0  0  0  0  0  0  0  0  0  0  0  0
  -13.7226  -39.1839   -9.7048 C   0  0  0  0  0  0  0  0  0  0  0  0
  -14.5967  -39.1035   -8.5452 N   0  0  0  0  0  0  0  0  0  0  0  0
  -15.7129  -40.0066   -8.7127 C   0  0  0  0  0  0  0  0  0  0  0  0
  -16.9240  -39.3449   -9.3270 C   0  0  1  0  0  0  0  0  0  0  0  0
  -17.0707  -39.7345  -10.6524 O   0  0  0  0  0  0  0  0  0  0  0  0
  -18.1663  -39.8785   -8.5686 C   0  0  2  0  0  0  0  0  0  0  0  0
  -19.0705  -38.7744   -8.2424 C   0  0  0  0  0  0  0  0  0  0  0  0
  -20.5497  -38.9252   -8.2926 C   0  0  0  0  0  0  0  0  0  0  0  0
  -21.3765  -39.5523   -9.1833 C   0  0  0  0  0  0  0  0  0  0  0  0
  -22.7408  -39.5247   -8.9416 C   0  0  0  0  0  0  0  0  0  0  0  0
  -23.2526  -38.8650   -7.8128 C   0  0  0  0  0  0  0  0  0  0  0  0
  -22.4590  -38.2237   -6.8976 C   0  0  0  0  0  0  0  0  0  0  0  0
  -21.1214  -38.2736   -7.1659 C   0  0  0  0  0  0  0  0  0  0  0  0
  -23.7641  -40.0839   -9.6870 O   0  0  0  0  0  0  0  0  0  0  0  0
  -24.1009  -41.3379  -10.1542 C   0  0  0  0  0  0  0  0  0  0  0  0
  -24.3248  -42.3893   -9.0898 C   0  0  0  0  0  0  0  0  0  0  0  0
  -23.0213  -42.8487   -8.4474 C   0  0  0  0  0  0  0  0  0  0  0  0
  -23.0818  -42.5976   -6.9782 C   0  0  0  0  0  0  0  0  0  0  0  0
  -22.2436  -43.5075   -6.1355 C   0  0  0  0  0  0  0  0  0  0  0  0
  -20.9201  -43.8282   -6.6664 C   0  0  0  0  0  0  0  0  0  0  0  0
  -20.7562  -45.0181   -7.1155 O   0  0  0  0  0  0  0  0  0  0  0  0
  -19.8007  -42.9966   -6.7480 N   0  0  0  0  0  0  0  0  0  0  0  0
  -18.6395  -43.3737   -7.5308 C   0  0  0  0  0  0  0  0  0  0  0  0
  -19.6857  -41.6955   -6.0693 C   0  0  1  0  0  0  0  0  0  0  0  0
  -19.9435  -41.8363   -4.5913 C   0  0  0  0  0  0  0  0  0  0  0  0
  -18.3742  -41.0563   -6.2918 C   0  0  0  0  0  0  0  0  0  0  0  0
  -17.7201  -40.7504   -5.2253 O   0  0  0  0  0  0  0  0  0  0  0  0
  -17.7421  -40.7369   -7.4893 N   0  0  0  0  0  0  0  0  0  0  0  0
  -14.3795  -38.6042  -12.0034 C   0  0  0  0  0  0  0  0  0  0  0  0
  -14.7127  -37.6902  -12.9622 C   0  0  0  0  0  0  0  0  0  0  0  0
  -14.7542  -36.3411  -12.6553 C   0  0  0  0  0  0  0  0  0  0  0  0
  1  2  1  0
  2  3  1  0
  2  4  1  0
  4  5  2  0
  5  6  1  0
  6  7  1  0
  7  8  1  0
  8  9  1  0
  9 10  1  0
 10 11  1  6
 10 12  1  0
 12 13  1  1
 13 14  1  0
 14 15  2  0
 15 16  1  0
 16 17  2  0
 17 18  1  0
 18 19  2  0
 16 20  1  0
 20 21  1  0
 21 22  1  0
 22 23  1  0
 23 24  1  0
 24 25  1  0
 25 26  1  0
 26 27  2  0
 26 28  1  0
 28 29  1  0
 28 30  1  0
 30 31  1  1
 30 32  1  0
 32 33  2  0
 32 34  1  0
  6 35  2  0
 35 36  1  0
 36 37  2  0
 19 14  1  0
 34 12  1  0
 37  4  1  0
M  END
$$$$
