
     RDKit          3D

 37 39  0  0  0  0  0  0  0  0999 V2000
  -22.9339  -35.1320   -9.3742 C   0  0  0  0  0  0  0  0  0  0  0  0
  -23.0291  -36.1288   -8.2217 C   0  0  0  0  0  0  0  0  0  0  0  0
  -24.1429  -37.0902   -8.5767 C   0  0  0  0  0  0  0  0  0  0  0  0
  -21.7372  -36.8633   -8.1577 C   0  0  0  0  0  0  0  0  0  0  0  0
  -20.5416  -36.1981   -8.2863 C   0  0  0  0  0  0  0  0  0  0  0  0
  -19.3636  -36.8978   -8.2258 C   0  0  0  0  0  0  0  0  0  0  0  0
  -18.0800  -36.1935   -8.3661 C   0  0  0  0  0  0  0  0  0  0  0  0
  -16.9947  -36.9234   -7.7300 N   0  0  0  0  0  0  0  0  0  0  0  0
  -17.0025  -38.2974   -8.1790 C   0  0  0  0  0  0  0  0  0  0  0  0
  -15.8987  -39.1274   -7.5669 C   0  0  1  0  0  0  0  0  0  0  0  0
  -16.2058  -39.4500   -6.2510 O   0  0  0  0  0  0  0  0  0  0  0  0
  -15.8484  -40.4642   -8.3503 C   0  0  2  0  0  0  0  0  0  0  0  0
  -15.1845  -40.2681   -9.6401 C   0  0  0  0  0  0  0  0  0  0  0  0
  -14.2840  -41.2961  -10.2281 C   0  0  0  0  0  0  0  0  0  0  0  0
  -13.3249  -42.0980   -9.6738 C   0  0  0  0  0  0  0  0  0  0  0  0
  -12.6510  -42.9811  -10.5025 C   0  0  0  0  0  0  0  0  0  0  0  0
  -12.9478  -43.0416  -11.8734 C   0  0  0  0  0  0  0  0  0  0  0  0
  -13.8998  -42.2549  -12.4678 C   0  0  0  0  0  0  0  0  0  0  0  0
  -14.5449  -41.3996  -11.6217 C   0  0  0  0  0  0  0  0  0  0  0  0
  -11.6550  -43.8854  -10.1774 O   0  0  0  0  0  0  0  0  0  0  0  0
  -11.4991  -44.9410   -9.3022 C   0  0  0  0  0  0  0  0  0  0  0  0
  -12.4586  -46.0941   -9.4977 C   0  0  0  0  0  0  0  0  0  0  0  0
  -13.8693  -45.7586   -9.0282 C   0  0  0  0  0  0  0  0  0  0  0  0
  -14.8176  -45.9153  -10.1691 C   0  0  0  0  0  0  0  0  0  0  0  0
  -16.2266  -46.2514   -9.7923 C   0  0  0  0  0  0  0  0  0  0  0  0
  -16.7572  -45.5537   -8.6226 C   0  0  0  0  0  0  0  0  0  0  0  0
  -16.9028  -46.2515   -7.5567 O   0  0  0  0  0  0  0  0  0  0  0  0
  -17.1290  -44.2114   -8.5164 N   0  0  0  0  0  0  0  0  0  0  0  0
  -17.3947  -43.6047   -7.2261 C   0  0  0  0  0  0  0  0  0  0  0  0
  -17.2867  -43.3035   -9.6643 C   0  0  1  0  0  0  0  0  0  0  0  0
  -18.2416  -43.8799  -10.6775 C   0  0  0  0  0  0  0  0  0  0  0  0
  -17.7347  -41.9561   -9.2615 C   0  0  0  0  0  0  0  0  0  0  0  0
  -18.8145  -41.5404   -9.8271 O   0  0  0  0  0  0  0  0  0  0  0  0
  -17.1578  -41.0701   -8.3573 N   0  0  0  0  0  0  0  0  0  0  0  0
  -19.3738  -38.2596   -8.0370 C   0  0  0  0  0  0  0  0  0  0  0  0
  -20.5592  -38.9260   -7.9084 C   0  0  0  0  0  0  0  0  0  0  0  0
  -21.7573  -38.2354   -7.9673 C   0  0  0  0  0  0  0  0  0  0  0  0
  1  2  1  0
  2  3  1  0
  2  4  1  0
  4  5  2  0
  5  6  1  0
  6  7  1  0
  7  8  1  0
  8  9  1  0
  9 10  1  0
 10 11  1  1
 10 12  1  0
 12 13  1  6
 13 14  1  0
 14 15  2  0
 15 16  1  0
 16 17  2  0
 17 18  1  0
 18 19  2  0
 16 20  1  0
 20 21  1  0
 21 22  1  0
 22 23  1  0
 23 24  1  0
 24 25  1  0
 25 26  1  0
 26 27  2  0
 26 28  1  0
 28 29  1  0
 28 30  1  0
 30 31  1  6
 30 32  1  0
 32 33  2  0
 32 34  1  0
  6 35  2  0
 35 36  1  0
 36 37  2  0
 19 14  1  0
 34 12  1  0
 37  4  1  0
M  END
$$$$
