
     RDKit          3D

 37 39  0  0  0  0  0  0  0  0999 V2000
  -13.0746  -35.7211  -12.4162 C   0  0  0  0  0  0  0  0  0  0  0  0
  -11.9123  -36.6884  -12.6264 C   0  0  0  0  0  0  0  0  0  0  0  0
  -10.8839  -36.3604  -11.5655 C   0  0  0  0  0  0  0  0  0  0  0  0
  -12.4315  -38.0654  -12.4095 C   0  0  0  0  0  0  0  0  0  0  0  0
  -12.6729  -38.5355  -11.1410 C   0  0  0  0  0  0  0  0  0  0  0  0
  -13.1497  -39.8095  -10.9666 C   0  0  0  0  0  0  0  0  0  0  0  0
  -13.4072  -40.3211   -9.6119 C   0  0  0  0  0  0  0  0  0  0  0  0
  -14.1319  -39.3549   -8.8018 N   0  0  0  0  0  0  0  0  0  0  0  0
  -15.4968  -39.2546   -9.2674 C   0  0  0  0  0  0  0  0  0  0  0  0
  -16.3693  -38.4102   -8.3688 C   0  0  1  0  0  0  0  0  0  0  0  0
  -16.8989  -37.3371   -9.0743 O   0  0  0  0  0  0  0  0  0  0  0  0
  -17.5690  -39.2939   -7.9405 C   0  0  2  0  0  0  0  0  0  0  0  0
  -18.4011  -38.5789   -6.9714 C   0  0  0  0  0  0  0  0  0  0  0  0
  -19.8845  -38.6920   -6.9703 C   0  0  0  0  0  0  0  0  0  0  0  0
  -20.8019  -38.7144   -7.9843 C   0  0  0  0  0  0  0  0  0  0  0  0
  -22.1412  -38.8444   -7.6527 C   0  0  0  0  0  0  0  0  0  0  0  0
  -22.5376  -38.9453   -6.3096 C   0  0  0  0  0  0  0  0  0  0  0  0
  -21.6509  -38.9255   -5.2646 C   0  0  0  0  0  0  0  0  0  0  0  0
  -20.3411  -38.7992   -5.6282 C   0  0  0  0  0  0  0  0  0  0  0  0
  -23.2404  -38.8953   -8.4921 O   0  0  0  0  0  0  0  0  0  0  0  0
  -23.6614  -39.6686   -9.5548 C   0  0  0  0  0  0  0  0  0  0  0  0
  -23.8431  -41.1403   -9.2556 C   0  0  0  0  0  0  0  0  0  0  0  0
  -22.5126  -41.8674   -9.1002 C   0  0  0  0  0  0  0  0  0  0  0  0
  -22.4490  -42.4927   -7.7472 C   0  0  0  0  0  0  0  0  0  0  0  0
  -21.5843  -43.7099   -7.6417 C   0  0  0  0  0  0  0  0  0  0  0  0
  -20.3196  -43.6584   -8.3726 C   0  0  0  0  0  0  0  0  0  0  0  0
  -20.2378  -44.3831   -9.4273 O   0  0  0  0  0  0  0  0  0  0  0  0
  -19.1782  -42.9137   -8.0664 N   0  0  0  0  0  0  0  0  0  0  0  0
  -18.0969  -42.7679   -9.0220 C   0  0  0  0  0  0  0  0  0  0  0  0
  -18.9599  -42.2239   -6.7845 C   0  0  1  0  0  0  0  0  0  0  0  0
  -19.1076  -43.1795   -5.6287 C   0  0  0  0  0  0  0  0  0  0  0  0
  -17.6456  -41.5557   -6.7191 C   0  0  0  0  0  0  0  0  0  0  0  0
  -16.8992  -41.8996   -5.7274 O   0  0  0  0  0  0  0  0  0  0  0  0
  -17.0963  -40.6073   -7.5760 N   0  0  0  0  0  0  0  0  0  0  0  0
  -13.3872  -40.6168  -12.0538 C   0  0  0  0  0  0  0  0  0  0  0  0
  -13.1493  -40.1548  -13.3170 C   0  0  0  0  0  0  0  0  0  0  0  0
  -12.6677  -38.8717  -13.5110 C   0  0  0  0  0  0  0  0  0  0  0  0
  1  2  1  0
  2  3  1  0
  2  4  1  0
  4  5  2  0
  5  6  1  0
  6  7  1  0
  7  8  1  0
  8  9  1  0
  9 10  1  0
 10 11  1  6
 10 12  1  0
 12 13  1  1
 13 14  1  0
 14 15  2  0
 15 16  1  0
 16 17  2  0
 17 18  1  0
 18 19  2  0
 16 20  1  0
 20 21  1  0
 21 22  1  0
 22 23  1  0
 23 24  1  0
 24 25  1  0
 25 26  1  0
 26 27  2  0
 26 28  1  0
 28 29  1  0
 28 30  1  0
 30 31  1  1
 30 32  1  0
 32 33  2  0
 32 34  1  0
  6 35  2  0
 35 36  1  0
 36 37  2  0
 19 14  1  0
 34 12  1  0
 37  4  1  0
M  END
$$$$
