
     RDKit          3D

 37 39  0  0  0  0  0  0  0  0999 V2000
  -13.6946  -34.4171  -11.4320 C   0  0  0  0  0  0  0  0  0  0  0  0
  -12.4354  -35.0318  -12.0381 C   0  0  0  0  0  0  0  0  0  0  0  0
  -11.3298  -34.8329  -11.0237 C   0  0  0  0  0  0  0  0  0  0  0  0
  -12.6905  -36.4860  -12.2197 C   0  0  0  0  0  0  0  0  0  0  0  0
  -12.8298  -37.3176  -11.1347 C   0  0  0  0  0  0  0  0  0  0  0  0
  -13.0625  -38.6553  -11.3280 C   0  0  0  0  0  0  0  0  0  0  0  0
  -13.2092  -39.5525  -10.1717 C   0  0  0  0  0  0  0  0  0  0  0  0
  -14.2994  -39.1360   -9.3038 N   0  0  0  0  0  0  0  0  0  0  0  0
  -15.5056  -39.8482   -9.6606 C   0  0  0  0  0  0  0  0  0  0  0  0
  -16.6727  -38.9323   -9.9453 C   0  0  1  0  0  0  0  0  0  0  0  0
  -17.0811  -39.0618  -11.2667 O   0  0  0  0  0  0  0  0  0  0  0  0
  -17.8547  -39.4170   -9.0669 C   0  0  2  0  0  0  0  0  0  0  0  0
  -18.7639  -38.3045   -8.7868 C   0  0  0  0  0  0  0  0  0  0  0  0
  -20.2395  -38.4864   -8.7323 C   0  0  0  0  0  0  0  0  0  0  0  0
  -21.1026  -39.2074   -9.5104 C   0  0  0  0  0  0  0  0  0  0  0  0
  -22.4503  -39.1828   -9.1889 C   0  0  0  0  0  0  0  0  0  0  0  0
  -22.9097  -38.4322   -8.0949 C   0  0  0  0  0  0  0  0  0  0  0  0
  -22.0787  -37.6955   -7.2917 C   0  0  0  0  0  0  0  0  0  0  0  0
  -20.7586  -37.7451   -7.6359 C   0  0  0  0  0  0  0  0  0  0  0  0
  -23.5025  -39.8265   -9.8166 O   0  0  0  0  0  0  0  0  0  0  0  0
  -23.8365  -41.1240  -10.1474 C   0  0  0  0  0  0  0  0  0  0  0  0
  -23.9716  -42.0776   -8.9807 C   0  0  0  0  0  0  0  0  0  0  0  0
  -22.6216  -42.4523   -8.3808 C   0  0  0  0  0  0  0  0  0  0  0  0
  -22.6006  -42.0691   -6.9392 C   0  0  0  0  0  0  0  0  0  0  0  0
  -21.6924  -42.8825   -6.0710 C   0  0  0  0  0  0  0  0  0  0  0  0
  -20.3955  -43.2262   -6.6510 C   0  0  0  0  0  0  0  0  0  0  0  0
  -20.2302  -44.4489   -7.0003 O   0  0  0  0  0  0  0  0  0  0  0  0
  -19.3031  -42.3851   -6.8759 N   0  0  0  0  0  0  0  0  0  0  0  0
  -18.1818  -42.8108   -7.6913 C   0  0  0  0  0  0  0  0  0  0  0  0
  -19.1790  -41.0255   -6.3255 C   0  0  1  0  0  0  0  0  0  0  0  0
  -19.3450  -41.0353   -4.8278 C   0  0  0  0  0  0  0  0  0  0  0  0
  -17.8987  -40.3853   -6.6849 C   0  0  0  0  0  0  0  0  0  0  0  0
  -17.1898  -39.9713   -5.6924 O   0  0  0  0  0  0  0  0  0  0  0  0
  -17.3467  -40.1652   -7.9428 N   0  0  0  0  0  0  0  0  0  0  0  0
  -13.1573  -39.1668  -12.6006 C   0  0  0  0  0  0  0  0  0  0  0  0
  -13.0199  -38.3448  -13.6828 C   0  0  0  0  0  0  0  0  0  0  0  0
  -12.7843  -36.9924  -13.5058 C   0  0  0  0  0  0  0  0  0  0  0  0
  1  2  1  0
  2  3  1  0
  2  4  1  0
  4  5  2  0
  5  6  1  0
  6  7  1  0
  7  8  1  0
  8  9  1  0
  9 10  1  0
 10 11  1  6
 10 12  1  0
 12 13  1  1
 13 14  1  0
 14 15  2  0
 15 16  1  0
 16 17  2  0
 17 18  1  0
 18 19  2  0
 16 20  1  0
 20 21  1  0
 21 22  1  0
 22 23  1  0
 23 24  1  0
 24 25  1  0
 25 26  1  0
 26 27  2  0
 26 28  1  0
 28 29  1  0
 28 30  1  0
 30 31  1  1
 30 32  1  0
 32 33  2  0
 32 34  1  0
  6 35  2  0
 35 36  1  0
 36 37  2  0
 19 14  1  0
 34 12  1  0
 37  4  1  0
M  END
$$$$
