
     RDKit          3D

 37 39  0  0  0  0  0  0  0  0999 V2000
  -11.7478  -35.2139  -12.6696 C   0  0  0  0  0  0  0  0  0  0  0  0
  -13.1510  -35.4648  -12.1228 C   0  0  0  0  0  0  0  0  0  0  0  0
  -14.1118  -34.8028  -13.0869 C   0  0  0  0  0  0  0  0  0  0  0  0
  -13.3757  -36.9352  -12.1250 C   0  0  0  0  0  0  0  0  0  0  0  0
  -13.3564  -37.6525  -10.9530 C   0  0  0  0  0  0  0  0  0  0  0  0
  -13.5643  -39.0079  -10.9811 C   0  0  0  0  0  0  0  0  0  0  0  0
  -13.5417  -39.7830   -9.7314 C   0  0  0  0  0  0  0  0  0  0  0  0
  -14.3685  -39.1696   -8.7040 N   0  0  0  0  0  0  0  0  0  0  0  0
  -15.7637  -39.4189   -8.9881 C   0  0  0  0  0  0  0  0  0  0  0  0
  -16.6991  -38.6689   -8.0691 C   0  0  1  0  0  0  0  0  0  0  0  0
  -17.2788  -37.5965   -8.7354 O   0  0  0  0  0  0  0  0  0  0  0  0
  -17.8520  -39.6392   -7.7047 C   0  0  2  0  0  0  0  0  0  0  0  0
  -18.7165  -39.0360   -6.6890 C   0  0  0  0  0  0  0  0  0  0  0  0
  -20.1924  -39.2232   -6.6974 C   0  0  0  0  0  0  0  0  0  0  0  0
  -21.1100  -39.2210   -7.7114 C   0  0  0  0  0  0  0  0  0  0  0  0
  -22.4403  -39.4407   -7.3911 C   0  0  0  0  0  0  0  0  0  0  0  0
  -22.8278  -39.6546   -6.0587 C   0  0  0  0  0  0  0  0  0  0  0  0
  -21.9406  -39.6631   -5.0140 C   0  0  0  0  0  0  0  0  0  0  0  0
  -20.6398  -39.4463   -5.3665 C   0  0  0  0  0  0  0  0  0  0  0  0
  -23.5376  -39.4883   -8.2332 O   0  0  0  0  0  0  0  0  0  0  0  0
  -23.9219  -40.2059   -9.3476 C   0  0  0  0  0  0  0  0  0  0  0  0
  -24.0288  -41.7021   -9.1517 C   0  0  0  0  0  0  0  0  0  0  0  0
  -22.6632  -42.3706   -9.0458 C   0  0  0  0  0  0  0  0  0  0  0  0
  -22.5651  -43.0845   -7.7396 C   0  0  0  0  0  0  0  0  0  0  0  0
  -21.6402  -44.2612   -7.7181 C   0  0  0  0  0  0  0  0  0  0  0  0
  -20.3815  -44.0956   -8.4423 C   0  0  0  0  0  0  0  0  0  0  0  0
  -20.2660  -44.7402   -9.5448 O   0  0  0  0  0  0  0  0  0  0  0  0
  -19.2780  -43.3177   -8.0839 N   0  0  0  0  0  0  0  0  0  0  0  0
  -18.2077  -43.0518   -9.0258 C   0  0  0  0  0  0  0  0  0  0  0  0
  -19.0915  -42.7087   -6.7568 C   0  0  1  0  0  0  0  0  0  0  0  0
  -19.1883  -43.7485   -5.6705 C   0  0  0  0  0  0  0  0  0  0  0  0
  -17.8121  -41.9816   -6.6437 C   0  0  0  0  0  0  0  0  0  0  0  0
  -17.0470  -42.3557   -5.6776 O   0  0  0  0  0  0  0  0  0  0  0  0
  -17.3132  -40.9495   -7.4320 N   0  0  0  0  0  0  0  0  0  0  0  0
  -13.7919  -39.6508  -12.1749 C   0  0  0  0  0  0  0  0  0  0  0  0
  -13.8123  -38.9429  -13.3429 C   0  0  0  0  0  0  0  0  0  0  0  0
  -13.6040  -37.5745  -13.3327 C   0  0  0  0  0  0  0  0  0  0  0  0
  1  2  1  0
  2  3  1  0
  2  4  1  0
  4  5  2  0
  5  6  1  0
  6  7  1  0
  7  8  1  0
  8  9  1  0
  9 10  1  0
 10 11  1  6
 10 12  1  0
 12 13  1  1
 13 14  1  0
 14 15  2  0
 15 16  1  0
 16 17  2  0
 17 18  1  0
 18 19  2  0
 16 20  1  0
 20 21  1  0
 21 22  1  0
 22 23  1  0
 23 24  1  0
 24 25  1  0
 25 26  1  0
 26 27  2  0
 26 28  1  0
 28 29  1  0
 28 30  1  0
 30 31  1  1
 30 32  1  0
 32 33  2  0
 32 34  1  0
  6 35  2  0
 35 36  1  0
 36 37  2  0
 19 14  1  0
 34 12  1  0
 37  4  1  0
M  END
$$$$
