
     RDKit          3D

 37 39  0  0  0  0  0  0  0  0999 V2000
  -17.0656  -34.4275  -10.7928 C   0  0  0  0  0  0  0  0  0  0  0  0
  -16.2428  -35.6249  -10.3239 C   0  0  0  0  0  0  0  0  0  0  0  0
  -14.8274  -35.1242  -10.1319 C   0  0  0  0  0  0  0  0  0  0  0  0
  -16.7984  -36.0648   -9.0159 C   0  0  0  0  0  0  0  0  0  0  0  0
  -17.0302  -37.3949   -8.7605 C   0  0  0  0  0  0  0  0  0  0  0  0
  -17.5449  -37.7754   -7.5476 C   0  0  0  0  0  0  0  0  0  0  0  0
  -17.7991  -39.1969   -7.2680 C   0  0  0  0  0  0  0  0  0  0  0  0
  -16.6125  -40.0082   -7.4894 N   0  0  0  0  0  0  0  0  0  0  0  0
  -16.8021  -40.8411   -8.6555 C   0  0  0  0  0  0  0  0  0  0  0  0
  -17.9224  -40.3637   -9.5493 C   0  0  1  0  0  0  0  0  0  0  0  0
  -17.7586  -40.8550  -10.8384 O   0  0  0  0  0  0  0  0  0  0  0  0
  -19.2343  -40.9830   -9.0028 C   0  0  2  0  0  0  0  0  0  0  0  0
  -20.3722  -40.1215   -9.3281 C   0  0  0  0  0  0  0  0  0  0  0  0
  -21.6999  -40.6772   -9.7047 C   0  0  0  0  0  0  0  0  0  0  0  0
  -22.0599  -41.7273  -10.5034 C   0  0  0  0  0  0  0  0  0  0  0  0
  -23.4095  -42.0063  -10.6493 C   0  0  0  0  0  0  0  0  0  0  0  0
  -24.3749  -41.2245   -9.9952 C   0  0  0  0  0  0  0  0  0  0  0  0
  -24.0563  -40.1635   -9.1880 C   0  0  0  0  0  0  0  0  0  0  0  0
  -22.7188  -39.9197   -9.0651 C   0  0  0  0  0  0  0  0  0  0  0  0
  -24.0118  -43.0071  -11.3917 O   0  0  0  0  0  0  0  0  0  0  0  0
  -23.9506  -44.3839  -11.4633 C   0  0  0  0  0  0  0  0  0  0  0  0
  -24.3314  -45.1179  -10.1965 C   0  0  0  0  0  0  0  0  0  0  0  0
  -23.2585  -45.0078   -9.1196 C   0  0  0  0  0  0  0  0  0  0  0  0
  -23.8488  -44.3850   -7.8992 C   0  0  0  0  0  0  0  0  0  0  0  0
  -23.1960  -44.7610   -6.6059 C   0  0  0  0  0  0  0  0  0  0  0  0
  -21.7369  -44.8435   -6.6288 C   0  0  0  0  0  0  0  0  0  0  0  0
  -21.2289  -46.0198   -6.5766 O   0  0  0  0  0  0  0  0  0  0  0  0
  -20.8165  -43.7952   -6.7014 N   0  0  0  0  0  0  0  0  0  0  0  0
  -19.4138  -44.0438   -6.9738 C   0  0  0  0  0  0  0  0  0  0  0  0
  -21.1620  -42.3768   -6.5132 C   0  0  1  0  0  0  0  0  0  0  0  0
  -21.8700  -42.1663   -5.1997 C   0  0  0  0  0  0  0  0  0  0  0  0
  -19.9832  -41.4925   -6.5958 C   0  0  0  0  0  0  0  0  0  0  0  0
  -19.7863  -40.7365   -5.5719 O   0  0  0  0  0  0  0  0  0  0  0  0
  -19.0530  -41.3586   -7.6216 N   0  0  0  0  0  0  0  0  0  0  0  0
  -17.8290  -36.8332   -6.5875 C   0  0  0  0  0  0  0  0  0  0  0  0
  -17.6005  -35.5096   -6.8358 C   0  0  0  0  0  0  0  0  0  0  0  0
  -17.0817  -35.1082   -8.0548 C   0  0  0  0  0  0  0  0  0  0  0  0
  1  2  1  0
  2  3  1  0
  2  4  1  0
  4  5  2  0
  5  6  1  0
  6  7  1  0
  7  8  1  0
  8  9  1  0
  9 10  1  0
 10 11  1  6
 10 12  1  0
 12 13  1  1
 13 14  1  0
 14 15  2  0
 15 16  1  0
 16 17  2  0
 17 18  1  0
 18 19  2  0
 16 20  1  0
 20 21  1  0
 21 22  1  0
 22 23  1  0
 23 24  1  0
 24 25  1  0
 25 26  1  0
 26 27  2  0
 26 28  1  0
 28 29  1  0
 28 30  1  0
 30 31  1  1
 30 32  1  0
 32 33  2  0
 32 34  1  0
  6 35  2  0
 35 36  1  0
 36 37  2  0
 19 14  1  0
 34 12  1  0
 37  4  1  0
M  END
$$$$
