
     RDKit          3D

 37 39  0  0  0  0  0  0  0  0999 V2000
  -23.4728  -42.0789   -5.4513 C   0  0  0  0  0  0  0  0  0  0  0  0
  -23.7258  -40.6047   -5.1449 C   0  0  0  0  0  0  0  0  0  0  0  0
  -23.4204  -40.4134   -3.6749 C   0  0  0  0  0  0  0  0  0  0  0  0
  -22.7706  -39.8081   -5.9609 C   0  0  0  0  0  0  0  0  0  0  0  0
  -21.5063  -39.5340   -5.4975 C   0  0  0  0  0  0  0  0  0  0  0  0
  -20.6444  -38.7957   -6.2675 C   0  0  0  0  0  0  0  0  0  0  0  0
  -19.2908  -38.4950   -5.7769 C   0  0  0  0  0  0  0  0  0  0  0  0
  -18.4686  -37.8846   -6.8096 N   0  0  0  0  0  0  0  0  0  0  0  0
  -17.1041  -38.3441   -6.6811 C   0  0  0  0  0  0  0  0  0  0  0  0
  -16.3274  -38.2644   -7.9743 C   0  0  1  0  0  0  0  0  0  0  0  0
  -14.9613  -38.2927   -7.7233 O   0  0  0  0  0  0  0  0  0  0  0  0
  -16.6560  -39.5470   -8.7808 C   0  0  2  0  0  0  0  0  0  0  0  0
  -16.5235  -39.2882  -10.2155 C   0  0  0  0  0  0  0  0  0  0  0  0
  -15.9754  -40.3050  -11.1530 C   0  0  0  0  0  0  0  0  0  0  0  0
  -14.9250  -41.1746  -11.0489 C   0  0  0  0  0  0  0  0  0  0  0  0
  -14.6695  -42.0231  -12.1144 C   0  0  0  0  0  0  0  0  0  0  0  0
  -15.4691  -41.9818  -13.2677 C   0  0  0  0  0  0  0  0  0  0  0  0
  -16.5291  -41.1249  -13.4124 C   0  0  0  0  0  0  0  0  0  0  0  0
  -16.7531  -40.3064  -12.3431 C   0  0  0  0  0  0  0  0  0  0  0  0
  -13.6783  -42.9807  -12.2407 O   0  0  0  0  0  0  0  0  0  0  0  0
  -13.2614  -44.0969  -11.5445 C   0  0  0  0  0  0  0  0  0  0  0  0
  -14.2873  -45.2009  -11.4125 C   0  0  0  0  0  0  0  0  0  0  0  0
  -15.3910  -44.8492  -10.4220 C   0  0  0  0  0  0  0  0  0  0  0  0
  -16.7097  -44.8968  -11.1178 C   0  0  0  0  0  0  0  0  0  0  0  0
  -17.8857  -45.2087  -10.2459 C   0  0  0  0  0  0  0  0  0  0  0  0
  -17.8897  -44.5728   -8.9299 C   0  0  0  0  0  0  0  0  0  0  0  0
  -17.6580  -45.3347   -7.9248 O   0  0  0  0  0  0  0  0  0  0  0  0
  -18.1155  -43.2286   -8.6241 N   0  0  0  0  0  0  0  0  0  0  0  0
  -17.8344  -42.7006   -7.3029 C   0  0  0  0  0  0  0  0  0  0  0  0
  -18.6464  -42.2413   -9.5782 C   0  0  1  0  0  0  0  0  0  0  0  0
  -19.9467  -42.7158  -10.1741 C   0  0  0  0  0  0  0  0  0  0  0  0
  -18.8292  -40.9092   -8.9696 C   0  0  0  0  0  0  0  0  0  0  0  0
  -20.0174  -40.4198   -9.0566 O   0  0  0  0  0  0  0  0  0  0  0  0
  -17.9016  -40.1057   -8.3141 N   0  0  0  0  0  0  0  0  0  0  0  0
  -21.0392  -38.3298   -7.4993 C   0  0  0  0  0  0  0  0  0  0  0  0
  -22.2946  -38.5994   -7.9651 C   0  0  0  0  0  0  0  0  0  0  0  0
  -23.1773  -39.3428   -7.2008 C   0  0  0  0  0  0  0  0  0  0  0  0
  1  2  1  0
  2  3  1  0
  2  4  1  0
  4  5  2  0
  5  6  1  0
  6  7  1  0
  7  8  1  0
  8  9  1  0
  9 10  1  0
 10 11  1  1
 10 12  1  0
 12 13  1  6
 13 14  1  0
 14 15  2  0
 15 16  1  0
 16 17  2  0
 17 18  1  0
 18 19  2  0
 16 20  1  0
 20 21  1  0
 21 22  1  0
 22 23  1  0
 23 24  1  0
 24 25  1  0
 25 26  1  0
 26 27  2  0
 26 28  1  0
 28 29  1  0
 28 30  1  0
 30 31  1  1
 30 32  1  0
 32 33  2  0
 32 34  1  0
  6 35  2  0
 35 36  1  0
 36 37  2  0
 19 14  1  0
 34 12  1  0
 37  4  1  0
M  END
$$$$
