
     RDKit          3D

 36 38  0  0  0  0  0  0  0  0999 V2000
  -12.0490  -41.3624  -14.0957 C   0  0  0  0  0  0  0  0  0  0  0  0
  -13.0669  -41.5807  -13.0283 C   0  0  0  0  0  0  0  0  0  0  0  0
  -12.7087  -42.7890  -12.1848 C   0  0  0  0  0  0  0  0  0  0  0  0
  -13.1634  -40.3569  -12.1912 C   0  0  0  0  0  0  0  0  0  0  0  0
  -13.6301  -39.1996  -12.7721 C   0  0  0  0  0  0  0  0  0  0  0  0
  -13.7139  -38.0579  -11.9857 C   0  0  0  0  0  0  0  0  0  0  0  0
  -13.3331  -38.0964  -10.6471 C   0  0  0  0  0  0  0  0  0  0  0  0
  -12.8648  -39.2557  -10.0605 C   0  0  0  0  0  0  0  0  0  0  0  0
  -12.4788  -39.2168   -8.6442 C   0  0  0  0  0  0  0  0  0  0  0  0
  -13.5750  -38.8344   -7.7763 N   0  0  0  0  0  0  0  0  0  0  0  0
  -14.8087  -39.4733   -8.1321 C   0  0  0  0  0  0  0  0  0  0  0  0
  -16.0153  -38.7918   -7.5850 C   0  0  1  0  0  0  0  0  0  0  0  0
  -16.1188  -37.5247   -8.1311 O   0  0  0  0  0  0  0  0  0  0  0  0
  -17.3077  -39.6072   -7.8087 C   0  0  2  0  0  0  0  0  0  0  0  0
  -18.3927  -38.6488   -8.0379 C   0  0  0  0  0  0  0  0  0  0  0  0
  -19.8106  -39.0153   -7.8087 C   0  0  0  0  0  0  0  0  0  0  0  0
  -20.5780  -38.7704   -8.9617 C   0  0  0  0  0  0  0  0  0  0  0  0
  -21.9235  -39.0156   -9.0653 C   0  0  0  0  0  0  0  0  0  0  0  0
  -22.4912  -39.5324   -7.9348 C   0  0  0  0  0  0  0  0  0  0  0  0
  -21.7828  -39.8042   -6.7416 C   0  0  0  0  0  0  0  0  0  0  0  0
  -20.4242  -39.5335   -6.6992 C   0  0  0  0  0  0  0  0  0  0  0  0
  -22.6235  -40.3130   -5.7960 O   0  0  0  0  0  0  0  0  0  0  0  0
  -22.7370  -41.1799   -4.7631 C   0  0  0  0  0  0  0  0  0  0  0  0
  -22.6581  -42.6246   -5.0618 C   0  0  0  0  0  0  0  0  0  0  0  0
  -22.8821  -43.0394   -6.4741 C   0  0  0  0  0  0  0  0  0  0  0  0
  -22.1913  -44.3801   -6.7666 C   0  0  0  0  0  0  0  0  0  0  0  0
  -20.7573  -43.9928   -7.7836 S   0  0  0  0  0  6  0  0  0  0  0  0
  -21.2695  -43.0968   -8.8650 O   0  0  0  0  0  0  0  0  0  0  0  0
  -20.1492  -45.2409   -8.3423 O   0  0  0  0  0  0  0  0  0  0  0  0
  -19.5994  -43.2237   -6.7216 C   0  0  0  0  0  0  0  0  0  0  0  0
  -18.3176  -42.7802   -7.3845 C   0  0  1  0  0  0  0  0  0  0  0  0
  -18.4686  -42.4257   -8.8109 C   0  0  0  0  0  0  0  0  0  0  0  0
  -17.7313  -41.7685   -6.4921 C   0  0  0  0  0  0  0  0  0  0  0  0
  -17.3475  -42.3017   -5.3654 O   0  0  0  0  0  0  0  0  0  0  0  0
  -17.5166  -40.4158   -6.6128 N   0  0  0  0  0  0  0  0  0  0  0  0
  -12.7926  -40.3691  -10.8615 C   0  0  0  0  0  0  0  0  0  0  0  0
  1  2  1  0
  2  3  1  0
  2  4  1  0
  4  5  2  0
  5  6  1  0
  6  7  2  0
  7  8  1  0
  8  9  1  0
  9 10  1  0
 10 11  1  0
 11 12  1  0
 12 13  1  6
 12 14  1  0
 14 15  1  1
 15 16  1  0
 16 17  1  0
 17 18  2  0
 18 19  1  0
 19 20  2  0
 20 21  1  0
 20 22  1  0
 22 23  1  0
 23 24  1  0
 24 25  1  0
 25 26  1  0
 26 27  1  0
 27 28  2  0
 27 29  2  0
 27 30  1  0
 30 31  1  0
 31 32  1  6
 31 33  1  0
 33 34  2  0
 33 35  1  0
  8 36  2  0
 21 16  2  0
 35 14  1  0
 36  4  1  0
M  END
$$$$
