
     RDKit          3D

 36 38  0  0  0  0  0  0  0  0999 V2000
  -12.7014  -35.2540  -12.9547 C   0  0  0  0  0  0  0  0  0  0  0  0
  -11.6959  -36.3095  -12.6411 C   0  0  0  0  0  0  0  0  0  0  0  0
  -10.5802  -35.7485  -11.7807 C   0  0  0  0  0  0  0  0  0  0  0  0
  -12.3760  -37.4412  -11.9596 C   0  0  0  0  0  0  0  0  0  0  0  0
  -12.6099  -38.5934  -12.6755 C   0  0  0  0  0  0  0  0  0  0  0  0
  -13.2497  -39.6461  -12.0343 C   0  0  0  0  0  0  0  0  0  0  0  0
  -13.6388  -39.5265  -10.7028 C   0  0  0  0  0  0  0  0  0  0  0  0
  -13.4055  -38.3725   -9.9811 C   0  0  0  0  0  0  0  0  0  0  0  0
  -13.8487  -38.3204   -8.5821 C   0  0  0  0  0  0  0  0  0  0  0  0
  -13.8093  -39.6167   -7.9346 N   0  0  0  0  0  0  0  0  0  0  0  0
  -15.0888  -40.2641   -7.9184 C   0  0  0  0  0  0  0  0  0  0  0  0
  -16.2242  -39.3397   -7.6429 C   0  0  1  0  0  0  0  0  0  0  0  0
  -16.0914  -38.2002   -8.4164 O   0  0  0  0  0  0  0  0  0  0  0  0
  -17.5986  -40.0094   -7.8605 C   0  0  2  0  0  0  0  0  0  0  0  0
  -18.5957  -38.9385   -7.9467 C   0  0  0  0  0  0  0  0  0  0  0  0
  -20.0296  -39.1917   -7.6690 C   0  0  0  0  0  0  0  0  0  0  0  0
  -20.8248  -38.7758   -8.7520 C   0  0  0  0  0  0  0  0  0  0  0  0
  -22.1911  -38.8857   -8.7994 C   0  0  0  0  0  0  0  0  0  0  0  0
  -22.7506  -39.4464   -7.6859 C   0  0  0  0  0  0  0  0  0  0  0  0
  -22.0147  -39.8872   -6.5617 C   0  0  0  0  0  0  0  0  0  0  0  0
  -20.6359  -39.7477   -6.5738 C   0  0  0  0  0  0  0  0  0  0  0  0
  -22.8539  -40.3984   -5.6159 O   0  0  0  0  0  0  0  0  0  0  0  0
  -23.0005  -41.3394   -4.6546 C   0  0  0  0  0  0  0  0  0  0  0  0
  -23.0762  -42.7530   -5.0773 C   0  0  0  0  0  0  0  0  0  0  0  0
  -23.4074  -43.0183   -6.5044 C   0  0  0  0  0  0  0  0  0  0  0  0
  -22.8646  -44.3857   -6.9470 C   0  0  0  0  0  0  0  0  0  0  0  0
  -21.4509  -44.0433   -8.0076 S   0  0  0  0  0  6  0  0  0  0  0  0
  -21.9259  -43.0114   -8.9793 O   0  0  0  0  0  0  0  0  0  0  0  0
  -20.9941  -45.2875   -8.7025 O   0  0  0  0  0  0  0  0  0  0  0  0
  -20.1739  -43.4815   -6.9522 C   0  0  0  0  0  0  0  0  0  0  0  0
  -18.8889  -43.1009   -7.6472 C   0  0  1  0  0  0  0  0  0  0  0  0
  -19.0739  -42.6088   -9.0280 C   0  0  0  0  0  0  0  0  0  0  0  0
  -18.1649  -42.2308   -6.7078 C   0  0  0  0  0  0  0  0  0  0  0  0
  -17.7803  -42.8951   -5.6534 O   0  0  0  0  0  0  0  0  0  0  0  0
  -17.8265  -40.8983   -6.7267 N   0  0  0  0  0  0  0  0  0  0  0  0
  -12.7712  -37.3479  -10.6402 C   0  0  0  0  0  0  0  0  0  0  0  0
  1  2  1  0
  2  3  1  0
  2  4  1  0
  4  5  2  0
  5  6  1  0
  6  7  2  0
  7  8  1  0
  8  9  1  0
  9 10  1  0
 10 11  1  0
 11 12  1  0
 12 13  1  6
 12 14  1  0
 14 15  1  1
 15 16  1  0
 16 17  1  0
 17 18  2  0
 18 19  1  0
 19 20  2  0
 20 21  1  0
 20 22  1  0
 22 23  1  0
 23 24  1  0
 24 25  1  0
 25 26  1  0
 26 27  1  0
 27 28  2  0
 27 29  2  0
 27 30  1  0
 30 31  1  0
 31 32  1  6
 31 33  1  0
 33 34  2  0
 33 35  1  0
  8 36  2  0
 21 16  2  0
 35 14  1  0
 36  4  1  0
M  END
$$$$
