
     RDKit          3D

 36 38  0  0  0  0  0  0  0  0999 V2000
  -14.9686  -33.3593  -10.7193 C   0  0  0  0  0  0  0  0  0  0  0  0
  -15.5640  -33.6581  -12.0532 C   0  0  0  0  0  0  0  0  0  0  0  0
  -14.7675  -32.9906  -13.1577 C   0  0  0  0  0  0  0  0  0  0  0  0
  -15.6104  -35.1307  -12.2458 C   0  0  0  0  0  0  0  0  0  0  0  0
  -16.4482  -35.6402  -13.2117 C   0  0  0  0  0  0  0  0  0  0  0  0
  -16.4903  -37.0177  -13.3840 C   0  0  0  0  0  0  0  0  0  0  0  0
  -15.7012  -37.8497  -12.5944 C   0  0  0  0  0  0  0  0  0  0  0  0
  -14.8590  -37.3423  -11.6246 C   0  0  0  0  0  0  0  0  0  0  0  0
  -14.0606  -38.2836  -10.8290 C   0  0  0  0  0  0  0  0  0  0  0  0
  -14.1447  -38.0239   -9.4054 N   0  0  0  0  0  0  0  0  0  0  0  0
  -15.4944  -38.0389   -8.9209 C   0  0  0  0  0  0  0  0  0  0  0  0
  -15.7079  -38.9633   -7.7722 C   0  0  1  0  0  0  0  0  0  0  0  0
  -15.6652  -38.2482   -6.5885 O   0  0  0  0  0  0  0  0  0  0  0  0
  -17.0207  -39.7672   -7.8959 C   0  0  2  0  0  0  0  0  0  0  0  0
  -18.1196  -38.7992   -7.9569 C   0  0  0  0  0  0  0  0  0  0  0  0
  -19.5061  -39.1782   -7.5944 C   0  0  0  0  0  0  0  0  0  0  0  0
  -20.3926  -38.8751   -8.6434 C   0  0  0  0  0  0  0  0  0  0  0  0
  -21.7426  -39.1158   -8.6130 C   0  0  0  0  0  0  0  0  0  0  0  0
  -22.1870  -39.6904   -7.4556 C   0  0  0  0  0  0  0  0  0  0  0  0
  -21.3548  -40.0224   -6.3616 C   0  0  0  0  0  0  0  0  0  0  0  0
  -19.9984  -39.7531   -6.4529 C   0  0  0  0  0  0  0  0  0  0  0  0
  -22.0906  -40.5798   -5.3577 O   0  0  0  0  0  0  0  0  0  0  0  0
  -22.0957  -41.4987   -4.3643 C   0  0  0  0  0  0  0  0  0  0  0  0
  -22.0564  -42.9261   -4.7432 C   0  0  0  0  0  0  0  0  0  0  0  0
  -22.4339  -43.2680   -6.1422 C   0  0  0  0  0  0  0  0  0  0  0  0
  -21.7853  -44.5914   -6.5760 C   0  0  0  0  0  0  0  0  0  0  0  0
  -20.4680  -44.1512   -7.7213 S   0  0  0  0  0  6  0  0  0  0  0  0
  -21.0900  -43.2013   -8.6936 O   0  0  0  0  0  0  0  0  0  0  0  0
  -19.9298  -45.3685   -8.4056 O   0  0  0  0  0  0  0  0  0  0  0  0
  -19.1983  -43.4366   -6.7531 C   0  0  0  0  0  0  0  0  0  0  0  0
  -17.9937  -42.9586   -7.5275 C   0  0  1  0  0  0  0  0  0  0  0  0
  -18.2966  -42.5316   -8.9091 C   0  0  0  0  0  0  0  0  0  0  0  0
  -17.3095  -41.9936   -6.6533 C   0  0  0  0  0  0  0  0  0  0  0  0
  -16.8085  -42.5836   -5.6036 O   0  0  0  0  0  0  0  0  0  0  0  0
  -17.1027  -40.6362   -6.7273 N   0  0  0  0  0  0  0  0  0  0  0  0
  -14.8376  -35.9770  -11.4762 C   0  0  0  0  0  0  0  0  0  0  0  0
  1  2  1  0
  2  3  1  0
  2  4  1  0
  4  5  2  0
  5  6  1  0
  6  7  2  0
  7  8  1  0
  8  9  1  0
  9 10  1  0
 10 11  1  0
 11 12  1  0
 12 13  1  1
 12 14  1  0
 14 15  1  1
 15 16  1  0
 16 17  1  0
 17 18  2  0
 18 19  1  0
 19 20  2  0
 20 21  1  0
 20 22  1  0
 22 23  1  0
 23 24  1  0
 24 25  1  0
 25 26  1  0
 26 27  1  0
 27 28  2  0
 27 29  2  0
 27 30  1  0
 30 31  1  0
 31 32  1  6
 31 33  1  0
 33 34  2  0
 33 35  1  0
  8 36  2  0
 21 16  2  0
 35 14  1  0
 36  4  1  0
M  END
$$$$
