
     RDKit          3D

 36 38  0  0  0  0  0  0  0  0999 V2000
  -13.8715  -36.8938  -14.3384 C   0  0  0  0  0  0  0  0  0  0  0  0
  -13.2483  -38.1452  -13.8199 C   0  0  0  0  0  0  0  0  0  0  0  0
  -12.0989  -38.5799  -14.7087 C   0  0  0  0  0  0  0  0  0  0  0  0
  -12.7865  -37.9168  -12.4263 C   0  0  0  0  0  0  0  0  0  0  0  0
  -11.9867  -36.8262  -12.1703 C   0  0  0  0  0  0  0  0  0  0  0  0
  -11.5548  -36.6205  -10.8664 C   0  0  0  0  0  0  0  0  0  0  0  0
  -11.9282  -37.5011   -9.8547 C   0  0  0  0  0  0  0  0  0  0  0  0
  -12.7309  -38.5961  -10.1074 C   0  0  0  0  0  0  0  0  0  0  0  0
  -13.0790  -39.4816   -8.9889 C   0  0  0  0  0  0  0  0  0  0  0  0
  -14.4960  -39.4666   -8.6841 N   0  0  0  0  0  0  0  0  0  0  0  0
  -15.1394  -38.2583   -9.1119 C   0  0  0  0  0  0  0  0  0  0  0  0
  -16.3104  -37.8748   -8.2747 C   0  0  1  0  0  0  0  0  0  0  0  0
  -16.7306  -36.6029   -8.6214 O   0  0  0  0  0  0  0  0  0  0  0  0
  -17.4664  -38.8943   -8.3718 C   0  0  2  0  0  0  0  0  0  0  0  0
  -18.7149  -38.1589   -8.1508 C   0  0  0  0  0  0  0  0  0  0  0  0
  -19.9473  -38.8452   -7.6952 C   0  0  0  0  0  0  0  0  0  0  0  0
  -21.0141  -38.5819   -8.5731 C   0  0  0  0  0  0  0  0  0  0  0  0
  -22.2827  -39.0820   -8.4254 C   0  0  0  0  0  0  0  0  0  0  0  0
  -22.4493  -39.8824   -7.3305 C   0  0  0  0  0  0  0  0  0  0  0  0
  -21.4239  -40.1906   -6.4068 C   0  0  0  0  0  0  0  0  0  0  0  0
  -20.1628  -39.6531   -6.6103 C   0  0  0  0  0  0  0  0  0  0  0  0
  -21.8994  -41.0102   -5.4259 O   0  0  0  0  0  0  0  0  0  0  0  0
  -21.6014  -42.0376   -4.5972 C   0  0  0  0  0  0  0  0  0  0  0  0
  -21.3678  -43.3660   -5.2001 C   0  0  0  0  0  0  0  0  0  0  0  0
  -21.8761  -43.5834   -6.5825 C   0  0  0  0  0  0  0  0  0  0  0  0
  -21.0749  -44.6850   -7.2931 C   0  0  0  0  0  0  0  0  0  0  0  0
  -20.0328  -43.8472   -8.4984 S   0  0  0  0  0  6  0  0  0  0  0  0
  -20.9441  -42.9143   -9.2290 O   0  0  0  0  0  0  0  0  0  0  0  0
  -19.3936  -44.8335   -9.4251 O   0  0  0  0  0  0  0  0  0  0  0  0
  -18.7822  -43.0365   -7.5824 C   0  0  0  0  0  0  0  0  0  0  0  0
  -17.8033  -42.2339   -8.4051 C   0  0  1  0  0  0  0  0  0  0  0  0
  -18.3710  -41.6919   -9.6569 C   0  0  0  0  0  0  0  0  0  0  0  0
  -17.1804  -41.2809   -7.4738 C   0  0  0  0  0  0  0  0  0  0  0  0
  -16.4388  -41.8981   -6.5962 O   0  0  0  0  0  0  0  0  0  0  0  0
  -17.2269  -39.9119   -7.3546 N   0  0  0  0  0  0  0  0  0  0  0  0
  -13.1432  -38.7748  -11.4053 C   0  0  0  0  0  0  0  0  0  0  0  0
  1  2  1  0
  2  3  1  0
  2  4  1  0
  4  5  2  0
  5  6  1  0
  6  7  2  0
  7  8  1  0
  8  9  1  0
  9 10  1  0
 10 11  1  0
 11 12  1  0
 12 13  1  6
 12 14  1  0
 14 15  1  1
 15 16  1  0
 16 17  1  0
 17 18  2  0
 18 19  1  0
 19 20  2  0
 20 21  1  0
 20 22  1  0
 22 23  1  0
 23 24  1  0
 24 25  1  0
 25 26  1  0
 26 27  1  0
 27 28  2  0
 27 29  2  0
 27 30  1  0
 30 31  1  0
 31 32  1  6
 31 33  1  0
 33 34  2  0
 33 35  1  0
  8 36  2  0
 21 16  2  0
 35 14  1  0
 36  4  1  0
M  END
$$$$
