
     RDKit          3D

 36 38  0  0  0  0  0  0  0  0999 V2000
  -11.7524  -35.5913  -13.4697 C   0  0  0  0  0  0  0  0  0  0  0  0
  -12.6949  -36.7410  -13.5848 C   0  0  0  0  0  0  0  0  0  0  0  0
  -11.9503  -38.0577  -13.4754 C   0  0  0  0  0  0  0  0  0  0  0  0
  -13.7323  -36.6267  -12.5274 C   0  0  0  0  0  0  0  0  0  0  0  0
  -15.0292  -36.3634  -12.9061 C   0  0  0  0  0  0  0  0  0  0  0  0
  -15.9937  -36.2534  -11.9127 C   0  0  0  0  0  0  0  0  0  0  0  0
  -15.6449  -36.4076  -10.5737 C   0  0  0  0  0  0  0  0  0  0  0  0
  -14.3450  -36.6722  -10.1898 C   0  0  0  0  0  0  0  0  0  0  0  0
  -14.0542  -36.8182   -8.7578 C   0  0  0  0  0  0  0  0  0  0  0  0
  -14.0728  -38.2003   -8.3216 N   0  0  0  0  0  0  0  0  0  0  0  0
  -15.3232  -38.8477   -8.5936 C   0  0  0  0  0  0  0  0  0  0  0  0
  -16.2277  -38.9233   -7.4122 C   0  0  1  0  0  0  0  0  0  0  0  0
  -16.4644  -37.6489   -6.9282 O   0  0  0  0  0  0  0  0  0  0  0  0
  -17.5487  -39.6599   -7.7247 C   0  0  2  0  0  0  0  0  0  0  0  0
  -18.6047  -38.6463   -7.8004 C   0  0  0  0  0  0  0  0  0  0  0  0
  -20.0308  -38.9977   -7.6000 C   0  0  0  0  0  0  0  0  0  0  0  0
  -20.8043  -38.5716   -8.6947 C   0  0  0  0  0  0  0  0  0  0  0  0
  -22.1583  -38.7588   -8.8084 C   0  0  0  0  0  0  0  0  0  0  0  0
  -22.7282  -39.4103   -7.7510 C   0  0  0  0  0  0  0  0  0  0  0  0
  -22.0140  -39.8668   -6.6191 C   0  0  0  0  0  0  0  0  0  0  0  0
  -20.6469  -39.6462   -6.5627 C   0  0  0  0  0  0  0  0  0  0  0  0
  -22.8588  -40.4763   -5.7390 O   0  0  0  0  0  0  0  0  0  0  0  0
  -22.9874  -41.4746   -4.8344 C   0  0  0  0  0  0  0  0  0  0  0  0
  -22.9593  -42.8654   -5.3318 C   0  0  0  0  0  0  0  0  0  0  0  0
  -23.2145  -43.0727   -6.7839 C   0  0  0  0  0  0  0  0  0  0  0  0
  -22.5715  -44.3802   -7.2711 C   0  0  0  0  0  0  0  0  0  0  0  0
  -21.1387  -43.8991   -8.2489 S   0  0  0  0  0  6  0  0  0  0  0  0
  -21.6351  -42.8463   -9.1868 O   0  0  0  0  0  0  0  0  0  0  0  0
  -20.5786  -45.0753   -8.9854 O   0  0  0  0  0  0  0  0  0  0  0  0
  -19.9430  -43.3208   -7.1104 C   0  0  0  0  0  0  0  0  0  0  0  0
  -18.6559  -42.8287   -7.7272 C   0  0  1  0  0  0  0  0  0  0  0  0
  -18.8133  -42.2749   -9.0879 C   0  0  0  0  0  0  0  0  0  0  0  0
  -18.0258  -41.9694   -6.7133 C   0  0  0  0  0  0  0  0  0  0  0  0
  -17.6453  -42.6655   -5.6781 O   0  0  0  0  0  0  0  0  0  0  0  0
  -17.7687  -40.6201   -6.6490 N   0  0  0  0  0  0  0  0  0  0  0  0
  -13.4124  -36.7759  -11.1928 C   0  0  0  0  0  0  0  0  0  0  0  0
  1  2  1  0
  2  3  1  0
  2  4  1  0
  4  5  2  0
  5  6  1  0
  6  7  2  0
  7  8  1  0
  8  9  1  0
  9 10  1  0
 10 11  1  0
 11 12  1  0
 12 13  1  6
 12 14  1  0
 14 15  1  1
 15 16  1  0
 16 17  1  0
 17 18  2  0
 18 19  1  0
 19 20  2  0
 20 21  1  0
 20 22  1  0
 22 23  1  0
 23 24  1  0
 24 25  1  0
 25 26  1  0
 26 27  1  0
 27 28  2  0
 27 29  2  0
 27 30  1  0
 30 31  1  0
 31 32  1  6
 31 33  1  0
 33 34  2  0
 33 35  1  0
  8 36  2  0
 21 16  2  0
 35 14  1  0
 36  4  1  0
M  END
$$$$
