
     RDKit          3D

 36 38  0  0  0  0  0  0  0  0999 V2000
  -24.0557  -38.9615   -7.9344 C   0  0  0  0  0  0  0  0  0  0  0  0
  -23.9792  -40.4460   -7.8177 C   0  0  0  0  0  0  0  0  0  0  0  0
  -23.9312  -41.0900   -9.1899 C   0  0  0  0  0  0  0  0  0  0  0  0
  -22.7815  -40.8094   -7.0170 C   0  0  0  0  0  0  0  0  0  0  0  0
  -22.6478  -42.1110   -6.5899 C   0  0  0  0  0  0  0  0  0  0  0  0
  -21.5283  -42.4436   -5.8381 C   0  0  0  0  0  0  0  0  0  0  0  0
  -20.5743  -41.4769   -5.5319 C   0  0  0  0  0  0  0  0  0  0  0  0
  -20.7046  -40.1700   -5.9589 C   0  0  0  0  0  0  0  0  0  0  0  0
  -19.6587  -39.2066   -5.5927 C   0  0  0  0  0  0  0  0  0  0  0  0
  -18.8034  -38.8584   -6.7100 N   0  0  0  0  0  0  0  0  0  0  0  0
  -17.5050  -39.4606   -6.6191 C   0  0  0  0  0  0  0  0  0  0  0  0
  -16.4234  -38.6490   -7.2444 C   0  0  1  0  0  0  0  0  0  0  0  0
  -15.5788  -38.1667   -6.2604 O   0  0  0  0  0  0  0  0  0  0  0  0
  -15.6418  -39.4338   -8.3206 C   0  0  2  0  0  0  0  0  0  0  0  0
  -14.7441  -38.4847   -8.9851 C   0  0  0  0  0  0  0  0  0  0  0  0
  -14.2148  -38.7424  -10.3456 C   0  0  0  0  0  0  0  0  0  0  0  0
  -12.8101  -38.6725  -10.3520 C   0  0  0  0  0  0  0  0  0  0  0  0
  -12.0277  -38.8730  -11.4605 C   0  0  0  0  0  0  0  0  0  0  0  0
  -12.7266  -39.1560  -12.6002 C   0  0  0  0  0  0  0  0  0  0  0  0
  -14.1364  -39.2427  -12.6681 C   0  0  0  0  0  0  0  0  0  0  0  0
  -14.8716  -39.0284  -11.5130 C   0  0  0  0  0  0  0  0  0  0  0  0
  -14.5329  -39.5386  -13.9390 O   0  0  0  0  0  0  0  0  0  0  0  0
  -15.4401  -40.2029  -14.6920 C   0  0  0  0  0  0  0  0  0  0  0  0
  -15.4162  -41.6797  -14.6595 C   0  0  0  0  0  0  0  0  0  0  0  0
  -14.1724  -42.3280  -14.1600 C   0  0  0  0  0  0  0  0  0  0  0  0
  -14.4712  -43.7283  -13.6030 C   0  0  0  0  0  0  0  0  0  0  0  0
  -14.3511  -43.5904  -11.8121 S   0  0  0  0  0  6  0  0  0  0  0  0
  -13.0617  -42.8787  -11.5556 O   0  0  0  0  0  0  0  0  0  0  0  0
  -14.3721  -44.9431  -11.1723 O   0  0  0  0  0  0  0  0  0  0  0  0
  -15.7634  -42.6966  -11.2958 C   0  0  0  0  0  0  0  0  0  0  0  0
  -15.8486  -42.4341   -9.8115 C   0  0  1  0  0  0  0  0  0  0  0  0
  -14.5356  -42.3318   -9.1417 C   0  0  0  0  0  0  0  0  0  0  0  0
  -16.7805  -41.3069   -9.6543 C   0  0  0  0  0  0  0  0  0  0  0  0
  -17.9924  -41.6483   -9.9946 O   0  0  0  0  0  0  0  0  0  0  0  0
  -16.6257  -40.0077   -9.2317 N   0  0  0  0  0  0  0  0  0  0  0  0
  -21.8211  -39.8696   -6.7004 C   0  0  0  0  0  0  0  0  0  0  0  0
  1  2  1  0
  2  3  1  0
  2  4  1  0
  4  5  2  0
  5  6  1  0
  6  7  2  0
  7  8  1  0
  8  9  1  0
  9 10  1  0
 10 11  1  0
 11 12  1  0
 12 13  1  1
 12 14  1  0
 14 15  1  6
 15 16  1  0
 16 17  1  0
 17 18  2  0
 18 19  1  0
 19 20  2  0
 20 21  1  0
 20 22  1  0
 22 23  1  0
 23 24  1  0
 24 25  1  0
 25 26  1  0
 26 27  1  0
 27 28  2  0
 27 29  2  0
 27 30  1  0
 30 31  1  0
 31 32  1  6
 31 33  1  0
 33 34  2  0
 33 35  1  0
  8 36  2  0
 21 16  2  0
 35 14  1  0
 36  4  1  0
M  END
$$$$
