
     RDKit          3D

 36 38  0  0  0  0  0  0  0  0999 V2000
  -22.4686  -43.4532   -8.0008 C   0  0  0  0  0  0  0  0  0  0  0  0
  -23.4114  -42.8517   -7.0146 C   0  0  0  0  0  0  0  0  0  0  0  0
  -23.8514  -43.8842   -5.9947 C   0  0  0  0  0  0  0  0  0  0  0  0
  -22.7506  -41.6973   -6.3524 C   0  0  0  0  0  0  0  0  0  0  0  0
  -22.9921  -41.4818   -5.0146 C   0  0  0  0  0  0  0  0  0  0  0  0
  -22.3750  -40.3986   -4.4023 C   0  0  0  0  0  0  0  0  0  0  0  0
  -21.5368  -39.5611   -5.1334 C   0  0  0  0  0  0  0  0  0  0  0  0
  -21.2917  -39.7742   -6.4756 C   0  0  0  0  0  0  0  0  0  0  0  0
  -20.3988  -38.8453   -7.1801 C   0  0  0  0  0  0  0  0  0  0  0  0
  -19.4495  -38.2018   -6.2936 N   0  0  0  0  0  0  0  0  0  0  0  0
  -18.1470  -38.7989   -6.3533 C   0  0  0  0  0  0  0  0  0  0  0  0
  -17.2376  -38.1543   -7.3417 C   0  0  1  0  0  0  0  0  0  0  0  0
  -16.4300  -37.2345   -6.6965 O   0  0  0  0  0  0  0  0  0  0  0  0
  -16.3983  -39.1823   -8.1316 C   0  0  2  0  0  0  0  0  0  0  0  0
  -15.3613  -38.4367   -8.8506 C   0  0  0  0  0  0  0  0  0  0  0  0
  -14.6996  -38.9956  -10.0537 C   0  0  0  0  0  0  0  0  0  0  0  0
  -13.3022  -38.9990   -9.8937 C   0  0  0  0  0  0  0  0  0  0  0  0
  -12.4146  -39.4627  -10.8309 C   0  0  0  0  0  0  0  0  0  0  0  0
  -12.9967  -39.9391  -11.9717 C   0  0  0  0  0  0  0  0  0  0  0  0
  -14.3918  -39.9672  -12.2012 C   0  0  0  0  0  0  0  0  0  0  0  0
  -15.2371  -39.4828  -11.2155 C   0  0  0  0  0  0  0  0  0  0  0  0
  -14.6603  -40.4985  -13.4282 O   0  0  0  0  0  0  0  0  0  0  0  0
  -15.5220  -41.2574  -14.1443 C   0  0  0  0  0  0  0  0  0  0  0  0
  -15.6130  -42.6950  -13.8167 C   0  0  0  0  0  0  0  0  0  0  0  0
  -14.4874  -43.2880  -13.0434 C   0  0  0  0  0  0  0  0  0  0  0  0
  -14.9527  -44.5266  -12.2625 C   0  0  0  0  0  0  0  0  0  0  0  0
  -15.0298  -44.0287  -10.5343 S   0  0  0  0  0  6  0  0  0  0  0  0
  -13.7288  -43.3450  -10.2610 O   0  0  0  0  0  0  0  0  0  0  0  0
  -15.2259  -45.2177   -9.6468 O   0  0  0  0  0  0  0  0  0  0  0  0
  -16.4210  -42.9780  -10.3908 C   0  0  0  0  0  0  0  0  0  0  0  0
  -16.6568  -42.4112   -9.0116 C   0  0  1  0  0  0  0  0  0  0  0  0
  -15.4258  -42.2391   -8.2128 C   0  0  0  0  0  0  0  0  0  0  0  0
  -17.5132  -41.2306   -9.2019 C   0  0  0  0  0  0  0  0  0  0  0  0
  -18.7000  -41.5735   -9.6200 O   0  0  0  0  0  0  0  0  0  0  0  0
  -17.3110  -39.8816   -9.0291 N   0  0  0  0  0  0  0  0  0  0  0  0
  -21.9149  -40.8524   -7.0550 C   0  0  0  0  0  0  0  0  0  0  0  0
  1  2  1  0
  2  3  1  0
  2  4  1  0
  4  5  2  0
  5  6  1  0
  6  7  2  0
  7  8  1  0
  8  9  1  0
  9 10  1  0
 10 11  1  0
 11 12  1  0
 12 13  1  1
 12 14  1  0
 14 15  1  6
 15 16  1  0
 16 17  1  0
 17 18  2  0
 18 19  1  0
 19 20  2  0
 20 21  1  0
 20 22  1  0
 22 23  1  0
 23 24  1  0
 24 25  1  0
 25 26  1  0
 26 27  1  0
 27 28  2  0
 27 29  2  0
 27 30  1  0
 30 31  1  0
 31 32  1  6
 31 33  1  0
 33 34  2  0
 33 35  1  0
  8 36  2  0
 21 16  2  0
 35 14  1  0
 36  4  1  0
M  END
$$$$
