
     RDKit          3D

 36 38  0  0  0  0  0  0  0  0999 V2000
  -13.7117  -34.5848  -13.5646 C   0  0  0  0  0  0  0  0  0  0  0  0
  -13.0165  -35.1961  -12.3957 C   0  0  0  0  0  0  0  0  0  0  0  0
  -13.5855  -34.6636  -11.0948 C   0  0  0  0  0  0  0  0  0  0  0  0
  -13.1499  -36.6741  -12.4695 C   0  0  0  0  0  0  0  0  0  0  0  0
  -12.0989  -37.4033  -12.9777 C   0  0  0  0  0  0  0  0  0  0  0  0
  -12.2313  -38.7841  -13.0482 C   0  0  0  0  0  0  0  0  0  0  0  0
  -13.4007  -39.4016  -12.6130 C   0  0  0  0  0  0  0  0  0  0  0  0
  -14.4572  -38.6736  -12.1021 C   0  0  0  0  0  0  0  0  0  0  0  0
  -15.6593  -39.3959  -11.6669 C   0  0  0  0  0  0  0  0  0  0  0  0
  -15.4614  -40.1118  -10.4221 N   0  0  0  0  0  0  0  0  0  0  0  0
  -14.8550  -39.2984   -9.4086 C   0  0  0  0  0  0  0  0  0  0  0  0
  -15.8380  -38.6077   -8.5276 C   0  0  1  0  0  0  0  0  0  0  0  0
  -16.0541  -37.3229   -8.9934 O   0  0  0  0  0  0  0  0  0  0  0  0
  -17.1642  -39.3878   -8.3954 C   0  0  2  0  0  0  0  0  0  0  0  0
  -18.2458  -38.4004   -8.3355 C   0  0  0  0  0  0  0  0  0  0  0  0
  -19.5614  -38.7286   -7.7364 C   0  0  0  0  0  0  0  0  0  0  0  0
  -20.6002  -38.4627   -8.6466 C   0  0  0  0  0  0  0  0  0  0  0  0
  -21.9310  -38.6715   -8.3884 C   0  0  0  0  0  0  0  0  0  0  0  0
  -22.1921  -39.1733   -7.1445 C   0  0  0  0  0  0  0  0  0  0  0  0
  -21.2001  -39.4645   -6.1797 C   0  0  0  0  0  0  0  0  0  0  0  0
  -19.8723  -39.2305   -6.5005 C   0  0  0  0  0  0  0  0  0  0  0  0
  -21.7733  -39.9509   -5.0417 O   0  0  0  0  0  0  0  0  0  0  0  0
  -21.6316  -40.8148   -4.0099 C   0  0  0  0  0  0  0  0  0  0  0  0
  -21.6723  -42.2609   -4.3090 C   0  0  0  0  0  0  0  0  0  0  0  0
  -22.2733  -42.6690   -5.6086 C   0  0  0  0  0  0  0  0  0  0  0  0
  -21.7200  -44.0278   -6.0646 C   0  0  0  0  0  0  0  0  0  0  0  0
  -20.5972  -43.6788   -7.4278 S   0  0  0  0  0  6  0  0  0  0  0  0
  -21.3540  -42.7689   -8.3409 O   0  0  0  0  0  0  0  0  0  0  0  0
  -20.1916  -44.9426   -8.1191 O   0  0  0  0  0  0  0  0  0  0  0  0
  -19.1795  -42.9416   -6.7156 C   0  0  0  0  0  0  0  0  0  0  0  0
  -18.1081  -42.5326   -7.6974 C   0  0  1  0  0  0  0  0  0  0  0  0
  -18.6224  -42.1736   -9.0352 C   0  0  0  0  0  0  0  0  0  0  0  0
  -17.2801  -41.5375   -6.9991 C   0  0  0  0  0  0  0  0  0  0  0  0
  -16.6255  -42.0813   -6.0107 O   0  0  0  0  0  0  0  0  0  0  0  0
  -17.0698  -40.1909   -7.1815 N   0  0  0  0  0  0  0  0  0  0  0  0
  -14.2987  -37.3104  -12.0441 C   0  0  0  0  0  0  0  0  0  0  0  0
  1  2  1  0
  2  3  1  0
  2  4  1  0
  4  5  2  0
  5  6  1  0
  6  7  2  0
  7  8  1  0
  8  9  1  0
  9 10  1  0
 10 11  1  0
 11 12  1  0
 12 13  1  6
 12 14  1  0
 14 15  1  1
 15 16  1  0
 16 17  1  0
 17 18  2  0
 18 19  1  0
 19 20  2  0
 20 21  1  0
 20 22  1  0
 22 23  1  0
 23 24  1  0
 24 25  1  0
 25 26  1  0
 26 27  1  0
 27 28  2  0
 27 29  2  0
 27 30  1  0
 30 31  1  0
 31 32  1  6
 31 33  1  0
 33 34  2  0
 33 35  1  0
  8 36  2  0
 21 16  2  0
 35 14  1  0
 36  4  1  0
M  END
$$$$
