
     RDKit          3D

 36 38  0  0  0  0  0  0  0  0999 V2000
  -21.5718  -41.9999   -4.6933 C   0  0  0  0  0  0  0  0  0  0  0  0
  -22.8216  -41.4922   -5.3286 C   0  0  0  0  0  0  0  0  0  0  0  0
  -23.4107  -40.3536   -4.5185 C   0  0  0  0  0  0  0  0  0  0  0  0
  -22.5188  -41.0570   -6.7167 C   0  0  0  0  0  0  0  0  0  0  0  0
  -23.3256  -41.5080   -7.7366 C   0  0  0  0  0  0  0  0  0  0  0  0
  -23.0349  -41.1011   -9.0323 C   0  0  0  0  0  0  0  0  0  0  0  0
  -21.9538  -40.2594   -9.2793 C   0  0  0  0  0  0  0  0  0  0  0  0
  -21.1423  -39.8043   -8.2587 C   0  0  0  0  0  0  0  0  0  0  0  0
  -20.0187  -38.9221   -8.5986 C   0  0  0  0  0  0  0  0  0  0  0  0
  -18.7484  -39.4215   -8.1106 N   0  0  0  0  0  0  0  0  0  0  0  0
  -18.0861  -38.4904   -7.2439 C   0  0  0  0  0  0  0  0  0  0  0  0
  -16.6029  -38.4934   -7.3835 C   0  0  1  0  0  0  0  0  0  0  0  0
  -16.0237  -38.1424   -6.1770 O   0  0  0  0  0  0  0  0  0  0  0  0
  -16.0596  -39.8454   -7.8953 C   0  0  2  0  0  0  0  0  0  0  0  0
  -14.6039  -39.8215   -7.7261 C   0  0  0  0  0  0  0  0  0  0  0  0
  -13.7172  -40.7017   -8.5240 C   0  0  0  0  0  0  0  0  0  0  0  0
  -12.8879  -41.4639   -7.6816 C   0  0  0  0  0  0  0  0  0  0  0  0
  -11.9641  -42.3773   -8.1213 C   0  0  0  0  0  0  0  0  0  0  0  0
  -11.8992  -42.5041   -9.4804 C   0  0  0  0  0  0  0  0  0  0  0  0
  -12.7007  -41.7724  -10.3869 C   0  0  0  0  0  0  0  0  0  0  0  0
  -13.6155  -40.8629   -9.8803 C   0  0  0  0  0  0  0  0  0  0  0  0
  -12.4029  -42.1206  -11.6715 O   0  0  0  0  0  0  0  0  0  0  0  0
  -12.9041  -42.3122  -12.9137 C   0  0  0  0  0  0  0  0  0  0  0  0
  -13.8245  -43.4493  -13.1196 C   0  0  0  0  0  0  0  0  0  0  0  0
  -13.8097  -44.5292  -12.0947 C   0  0  0  0  0  0  0  0  0  0  0  0
  -15.1522  -45.2758  -12.0672 C   0  0  0  0  0  0  0  0  0  0  0  0
  -15.9891  -44.7449  -10.5644 S   0  0  0  0  0  6  0  0  0  0  0  0
  -14.9714  -44.8756   -9.4773 O   0  0  0  0  0  0  0  0  0  0  0  0
  -17.1932  -45.5931  -10.2986 O   0  0  0  0  0  0  0  0  0  0  0  0
  -16.5069  -43.0985  -10.8500 C   0  0  0  0  0  0  0  0  0  0  0  0
  -17.2115  -42.4378   -9.6898 C   0  0  1  0  0  0  0  0  0  0  0  0
  -16.7869  -42.9352   -8.3649 C   0  0  0  0  0  0  0  0  0  0  0  0
  -17.1185  -40.9901   -9.9331 C   0  0  0  0  0  0  0  0  0  0  0  0
  -17.8172  -40.6435  -10.9784 O   0  0  0  0  0  0  0  0  0  0  0  0
  -16.4601  -39.9669   -9.2926 N   0  0  0  0  0  0  0  0  0  0  0  0
  -21.4531  -40.2224   -6.9878 C   0  0  0  0  0  0  0  0  0  0  0  0
  1  2  1  0
  2  3  1  0
  2  4  1  0
  4  5  2  0
  5  6  1  0
  6  7  2  0
  7  8  1  0
  8  9  1  0
  9 10  1  0
 10 11  1  0
 11 12  1  0
 12 13  1  1
 12 14  1  0
 14 15  1  6
 15 16  1  0
 16 17  1  0
 17 18  2  0
 18 19  1  0
 19 20  2  0
 20 21  1  0
 20 22  1  0
 22 23  1  0
 23 24  1  0
 24 25  1  0
 25 26  1  0
 26 27  1  0
 27 28  2  0
 27 29  2  0
 27 30  1  0
 30 31  1  0
 31 32  1  1
 31 33  1  0
 33 34  2  0
 33 35  1  0
  8 36  2  0
 21 16  2  0
 35 14  1  0
 36  4  1  0
M  END
$$$$
