
     RDKit          3D

 36 38  0  0  0  0  0  0  0  0999 V2000
  -22.5524  -40.2585   -2.4366 C   0  0  0  0  0  0  0  0  0  0  0  0
  -21.4051  -41.0919   -2.8976 C   0  0  0  0  0  0  0  0  0  0  0  0
  -21.4458  -42.4639   -2.2528 C   0  0  0  0  0  0  0  0  0  0  0  0
  -21.4463  -41.1986   -4.3790 C   0  0  0  0  0  0  0  0  0  0  0  0
  -21.7184  -42.4251   -4.9414 C   0  0  0  0  0  0  0  0  0  0  0  0
  -21.7513  -42.5193   -6.3267 C   0  0  0  0  0  0  0  0  0  0  0  0
  -21.5139  -41.3957   -7.1139 C   0  0  0  0  0  0  0  0  0  0  0  0
  -21.2411  -40.1634   -6.5534 C   0  0  0  0  0  0  0  0  0  0  0  0
  -20.9977  -39.0256   -7.4493 C   0  0  0  0  0  0  0  0  0  0  0  0
  -19.7234  -38.3810   -7.2008 N   0  0  0  0  0  0  0  0  0  0  0  0
  -18.6207  -39.1027   -7.7665 C   0  0  0  0  0  0  0  0  0  0  0  0
  -17.3132  -38.4018   -7.6298 C   0  0  1  0  0  0  0  0  0  0  0  0
  -16.9709  -38.3176   -6.2918 O   0  0  0  0  0  0  0  0  0  0  0  0
  -16.1933  -39.0725   -8.4550 C   0  0  2  0  0  0  0  0  0  0  0  0
  -15.2830  -38.0117   -8.8960 C   0  0  0  0  0  0  0  0  0  0  0  0
  -14.3995  -38.1896  -10.0729 C   0  0  0  0  0  0  0  0  0  0  0  0
  -13.0588  -37.9412   -9.7277 C   0  0  0  0  0  0  0  0  0  0  0  0
  -12.0032  -38.0321  -10.5987 C   0  0  0  0  0  0  0  0  0  0  0  0
  -12.3506  -38.3931  -11.8700 C   0  0  0  0  0  0  0  0  0  0  0  0
  -13.6752  -38.6582  -12.2880 C   0  0  0  0  0  0  0  0  0  0  0  0
  -14.6991  -38.5480  -11.3605 C   0  0  0  0  0  0  0  0  0  0  0  0
  -13.6978  -38.9925  -13.6100 O   0  0  0  0  0  0  0  0  0  0  0  0
  -14.2950  -39.7612  -14.5500 C   0  0  0  0  0  0  0  0  0  0  0  0
  -14.0954  -41.2232  -14.4758 C   0  0  0  0  0  0  0  0  0  0  0  0
  -12.9471  -41.7116  -13.6638 C   0  0  0  0  0  0  0  0  0  0  0  0
  -13.1991  -43.1427  -13.1651 C   0  0  0  0  0  0  0  0  0  0  0  0
  -13.5532  -43.0042  -11.4055 S   0  0  0  0  0  6  0  0  0  0  0  0
  -12.4700  -42.1361  -10.8509 O   0  0  0  0  0  0  0  0  0  0  0  0
  -13.5656  -44.3534  -10.7580 O   0  0  0  0  0  0  0  0  0  0  0  0
  -15.1506  -42.3015  -11.2832 C   0  0  0  0  0  0  0  0  0  0  0  0
  -15.6399  -42.0633   -9.8750 C   0  0  1  0  0  0  0  0  0  0  0  0
  -14.5620  -41.7997   -8.8994 C   0  0  0  0  0  0  0  0  0  0  0  0
  -16.7147  -41.0652   -9.9852 C   0  0  0  0  0  0  0  0  0  0  0  0
  -17.7489  -41.5555  -10.6105 O   0  0  0  0  0  0  0  0  0  0  0  0
  -16.8355  -39.7600   -9.5696 N   0  0  0  0  0  0  0  0  0  0  0  0
  -21.2150  -40.0994   -5.1817 C   0  0  0  0  0  0  0  0  0  0  0  0
  1  2  1  0
  2  3  1  0
  2  4  1  0
  4  5  2  0
  5  6  1  0
  6  7  2  0
  7  8  1  0
  8  9  1  0
  9 10  1  0
 10 11  1  0
 11 12  1  0
 12 13  1  1
 12 14  1  0
 14 15  1  6
 15 16  1  0
 16 17  1  0
 17 18  2  0
 18 19  1  0
 19 20  2  0
 20 21  1  0
 20 22  1  0
 22 23  1  0
 23 24  1  0
 24 25  1  0
 25 26  1  0
 26 27  1  0
 27 28  2  0
 27 29  2  0
 27 30  1  0
 30 31  1  0
 31 32  1  1
 31 33  1  0
 33 34  2  0
 33 35  1  0
  8 36  2  0
 21 16  2  0
 35 14  1  0
 36  4  1  0
M  END
$$$$
