
     RDKit          3D

 36 38  0  0  0  0  0  0  0  0999 V2000
  -11.8787  -34.9820  -12.8760 C   0  0  0  0  0  0  0  0  0  0  0  0
  -13.1473  -35.2150  -12.1278 C   0  0  0  0  0  0  0  0  0  0  0  0
  -14.3225  -34.5951  -12.8589 C   0  0  0  0  0  0  0  0  0  0  0  0
  -13.3435  -36.6767  -11.9474 C   0  0  0  0  0  0  0  0  0  0  0  0
  -13.6716  -37.4356  -13.0478 C   0  0  0  0  0  0  0  0  0  0  0  0
  -13.8580  -38.8006  -12.8719 C   0  0  0  0  0  0  0  0  0  0  0  0
  -13.7137  -39.3735  -11.6112 C   0  0  0  0  0  0  0  0  0  0  0  0
  -13.3842  -38.6155  -10.5048 C   0  0  0  0  0  0  0  0  0  0  0  0
  -13.2536  -39.2910   -9.2075 C   0  0  0  0  0  0  0  0  0  0  0  0
  -13.9604  -40.5556   -9.1619 N   0  0  0  0  0  0  0  0  0  0  0  0
  -14.8847  -40.6317   -8.0681 C   0  0  0  0  0  0  0  0  0  0  0  0
  -15.9150  -39.5556   -8.0789 C   0  0  1  0  0  0  0  0  0  0  0  0
  -15.7130  -38.7324   -9.1724 O   0  0  0  0  0  0  0  0  0  0  0  0
  -17.3545  -40.1145   -8.0547 C   0  0  2  0  0  0  0  0  0  0  0  0
  -18.2664  -38.9731   -8.1731 C   0  0  0  0  0  0  0  0  0  0  0  0
  -19.6721  -39.0541   -7.7098 C   0  0  0  0  0  0  0  0  0  0  0  0
  -20.5560  -38.7011   -8.7454 C   0  0  0  0  0  0  0  0  0  0  0  0
  -21.9225  -38.6868   -8.6287 C   0  0  0  0  0  0  0  0  0  0  0  0
  -22.3871  -39.0515   -7.3964 C   0  0  0  0  0  0  0  0  0  0  0  0
  -21.5589  -39.4184   -6.3105 C   0  0  0  0  0  0  0  0  0  0  0  0
  -20.1848  -39.4119   -6.4911 C   0  0  0  0  0  0  0  0  0  0  0  0
  -22.3164  -39.7284   -5.2196 O   0  0  0  0  0  0  0  0  0  0  0  0
  -22.4207  -40.5264   -4.1317 C   0  0  0  0  0  0  0  0  0  0  0  0
  -22.6587  -41.9676   -4.3524 C   0  0  0  0  0  0  0  0  0  0  0  0
  -23.1790  -42.3736   -5.6870 C   0  0  0  0  0  0  0  0  0  0  0  0
  -22.8036  -43.8299   -6.0007 C   0  0  0  0  0  0  0  0  0  0  0  0
  -21.5048  -43.7549   -7.2449 S   0  0  0  0  0  6  0  0  0  0  0  0
  -22.0095  -42.8099   -8.2874 O   0  0  0  0  0  0  0  0  0  0  0  0
  -21.2350  -45.1125   -7.8142 O   0  0  0  0  0  0  0  0  0  0  0  0
  -20.0697  -43.1908   -6.4188 C   0  0  0  0  0  0  0  0  0  0  0  0
  -18.8513  -43.0210   -7.2939 C   0  0  1  0  0  0  0  0  0  0  0  0
  -19.1611  -42.6868   -8.6994 C   0  0  0  0  0  0  0  0  0  0  0  0
  -17.9529  -42.1145   -6.5627 C   0  0  0  0  0  0  0  0  0  0  0  0
  -17.4985  -42.6776   -5.4777 O   0  0  0  0  0  0  0  0  0  0  0  0
  -17.5144  -40.8321   -6.7950 N   0  0  0  0  0  0  0  0  0  0  0  0
  -13.2058  -37.2689  -10.7079 C   0  0  0  0  0  0  0  0  0  0  0  0
  1  2  1  0
  2  3  1  0
  2  4  1  0
  4  5  2  0
  5  6  1  0
  6  7  2  0
  7  8  1  0
  8  9  1  0
  9 10  1  0
 10 11  1  0
 11 12  1  0
 12 13  1  6
 12 14  1  0
 14 15  1  1
 15 16  1  0
 16 17  1  0
 17 18  2  0
 18 19  1  0
 19 20  2  0
 20 21  1  0
 20 22  1  0
 22 23  1  0
 23 24  1  0
 24 25  1  0
 25 26  1  0
 26 27  1  0
 27 28  2  0
 27 29  2  0
 27 30  1  0
 30 31  1  0
 31 32  1  6
 31 33  1  0
 33 34  2  0
 33 35  1  0
  8 36  2  0
 21 16  2  0
 35 14  1  0
 36  4  1  0
M  END
$$$$
