
     RDKit          3D

 36 38  0  0  0  0  0  0  0  0999 V2000
  -23.2198  -38.3216   -7.3540 C   0  0  0  0  0  0  0  0  0  0  0  0
  -21.9856  -37.8343   -6.6739 C   0  0  0  0  0  0  0  0  0  0  0  0
  -21.5931  -38.7657   -5.5433 C   0  0  0  0  0  0  0  0  0  0  0  0
  -20.8925  -37.7207   -7.6739 C   0  0  0  0  0  0  0  0  0  0  0  0
  -21.1687  -38.0307   -8.9862 C   0  0  0  0  0  0  0  0  0  0  0  0
  -20.1417  -37.9267   -9.9154 C   0  0  0  0  0  0  0  0  0  0  0  0
  -18.8716  -37.5184   -9.5172 C   0  0  0  0  0  0  0  0  0  0  0  0
  -18.5907  -37.2060   -8.2016 C   0  0  0  0  0  0  0  0  0  0  0  0
  -17.2260  -36.7866   -7.8580 C   0  0  0  0  0  0  0  0  0  0  0  0
  -16.2439  -37.8243   -8.1027 N   0  0  0  0  0  0  0  0  0  0  0  0
  -16.4928  -39.0108   -7.3365 C   0  0  0  0  0  0  0  0  0  0  0  0
  -15.7469  -40.2051   -7.8231 C   0  0  1  0  0  0  0  0  0  0  0  0
  -14.8184  -40.5900   -6.8722 O   0  0  0  0  0  0  0  0  0  0  0  0
  -16.6830  -41.3742   -8.1997 C   0  0  2  0  0  0  0  0  0  0  0  0
  -17.4638  -40.9484   -9.3647 C   0  0  0  0  0  0  0  0  0  0  0  0
  -18.7626  -41.5800   -9.6989 C   0  0  0  0  0  0  0  0  0  0  0  0
  -18.7550  -42.0580  -11.0217 C   0  0  0  0  0  0  0  0  0  0  0  0
  -19.8087  -42.6992  -11.6216 C   0  0  0  0  0  0  0  0  0  0  0  0
  -20.9065  -42.8496  -10.8219 C   0  0  0  0  0  0  0  0  0  0  0  0
  -20.9852  -42.3954   -9.4850 C   0  0  0  0  0  0  0  0  0  0  0  0
  -19.8867  -41.7533   -8.9357 C   0  0  0  0  0  0  0  0  0  0  0  0
  -22.2057  -42.6926   -8.9539 O   0  0  0  0  0  0  0  0  0  0  0  0
  -22.8687  -43.0558   -7.8316 C   0  0  0  0  0  0  0  0  0  0  0  0
  -22.6200  -44.4072   -7.2889 C   0  0  0  0  0  0  0  0  0  0  0  0
  -22.0097  -45.4066   -8.2084 C   0  0  0  0  0  0  0  0  0  0  0  0
  -21.2589  -46.4896   -7.4188 C   0  0  0  0  0  0  0  0  0  0  0  0
  -19.5057  -46.1564   -7.6554 S   0  0  0  0  0  6  0  0  0  0  0  0
  -19.3340  -45.9676   -9.1283 O   0  0  0  0  0  0  0  0  0  0  0  0
  -18.6752  -47.2914   -7.1436 O   0  0  0  0  0  0  0  0  0  0  0  0
  -19.1501  -44.7244   -6.7157 C   0  0  0  0  0  0  0  0  0  0  0  0
  -17.7220  -44.2419   -6.7982 C   0  0  1  0  0  0  0  0  0  0  0  0
  -17.0519  -44.5593   -8.0762 C   0  0  0  0  0  0  0  0  0  0  0  0
  -17.7475  -42.8329   -6.3768 C   0  0  0  0  0  0  0  0  0  0  0  0
  -18.0549  -42.7258   -5.1138 O   0  0  0  0  0  0  0  0  0  0  0  0
  -17.5170  -41.6478   -7.0348 N   0  0  0  0  0  0  0  0  0  0  0  0
  -19.6248  -37.3177   -7.3046 C   0  0  0  0  0  0  0  0  0  0  0  0
  1  2  1  0
  2  3  1  0
  2  4  1  0
  4  5  2  0
  5  6  1  0
  6  7  2  0
  7  8  1  0
  8  9  1  0
  9 10  1  0
 10 11  1  0
 11 12  1  0
 12 13  1  1
 12 14  1  0
 14 15  1  6
 15 16  1  0
 16 17  1  0
 17 18  2  0
 18 19  1  0
 19 20  2  0
 20 21  1  0
 20 22  1  0
 22 23  1  0
 23 24  1  0
 24 25  1  0
 25 26  1  0
 26 27  1  0
 27 28  2  0
 27 29  2  0
 27 30  1  0
 30 31  1  0
 31 32  1  6
 31 33  1  0
 33 34  2  0
 33 35  1  0
  8 36  2  0
 21 16  2  0
 35 14  1  0
 36  4  1  0
M  END
$$$$
