
     RDKit          3D

 36 38  0  0  0  0  0  0  0  0999 V2000
  -15.2323  -32.8645  -10.7088 C   0  0  0  0  0  0  0  0  0  0  0  0
  -16.0729  -33.8675  -11.4235 C   0  0  0  0  0  0  0  0  0  0  0  0
  -16.7436  -33.2420  -12.6312 C   0  0  0  0  0  0  0  0  0  0  0  0
  -15.2219  -35.0180  -11.8235 C   0  0  0  0  0  0  0  0  0  0  0  0
  -14.7455  -35.0645  -13.1140 C   0  0  0  0  0  0  0  0  0  0  0  0
  -13.9542  -36.1446  -13.4830 C   0  0  0  0  0  0  0  0  0  0  0  0
  -13.6581  -37.1465  -12.5628 C   0  0  0  0  0  0  0  0  0  0  0  0
  -14.1338  -37.1033  -11.2670 C   0  0  0  0  0  0  0  0  0  0  0  0
  -13.7818  -38.1992  -10.3553 C   0  0  0  0  0  0  0  0  0  0  0  0
  -14.3466  -38.0284   -9.0314 N   0  0  0  0  0  0  0  0  0  0  0  0
  -15.7419  -38.3557   -8.9807 C   0  0  0  0  0  0  0  0  0  0  0  0
  -16.1297  -39.1386   -7.7739 C   0  0  1  0  0  0  0  0  0  0  0  0
  -16.2486  -38.2882   -6.6890 O   0  0  0  0  0  0  0  0  0  0  0  0
  -17.4211  -39.9576   -7.9899 C   0  0  2  0  0  0  0  0  0  0  0  0
  -18.5342  -39.0061   -8.0541 C   0  0  0  0  0  0  0  0  0  0  0  0
  -19.9274  -39.4243   -7.7688 C   0  0  0  0  0  0  0  0  0  0  0  0
  -20.7746  -39.0880   -8.8400 C   0  0  0  0  0  0  0  0  0  0  0  0
  -22.1200  -39.3521   -8.8783 C   0  0  0  0  0  0  0  0  0  0  0  0
  -22.6019  -39.9867   -7.7682 C   0  0  0  0  0  0  0  0  0  0  0  0
  -21.8104  -40.3549   -6.6557 C   0  0  0  0  0  0  0  0  0  0  0  0
  -20.4566  -40.0593   -6.6765 C   0  0  0  0  0  0  0  0  0  0  0  0
  -22.5773  -40.9700   -5.7105 O   0  0  0  0  0  0  0  0  0  0  0  0
  -22.6072  -41.9336   -4.7608 C   0  0  0  0  0  0  0  0  0  0  0  0
  -22.5256  -43.3412   -5.2019 C   0  0  0  0  0  0  0  0  0  0  0  0
  -22.8376  -43.6246   -6.6299 C   0  0  0  0  0  0  0  0  0  0  0  0
  -22.1469  -44.9157   -7.0949 C   0  0  0  0  0  0  0  0  0  0  0  0
  -20.7911  -44.4015   -8.1617 S   0  0  0  0  0  6  0  0  0  0  0  0
  -21.3892  -43.4183   -9.1158 O   0  0  0  0  0  0  0  0  0  0  0  0
  -20.2022  -45.5769   -8.8768 O   0  0  0  0  0  0  0  0  0  0  0  0
  -19.5766  -43.7113   -7.1087 C   0  0  0  0  0  0  0  0  0  0  0  0
  -18.3496  -43.1783   -7.8084 C   0  0  1  0  0  0  0  0  0  0  0  0
  -18.6021  -42.6932   -9.1810 C   0  0  0  0  0  0  0  0  0  0  0  0
  -17.7206  -42.2433   -6.8630 C   0  0  0  0  0  0  0  0  0  0  0  0
  -17.2533  -42.8726   -5.8206 O   0  0  0  0  0  0  0  0  0  0  0  0
  -17.5361  -40.8808   -6.8665 N   0  0  0  0  0  0  0  0  0  0  0  0
  -14.9135  -36.0240  -10.9297 C   0  0  0  0  0  0  0  0  0  0  0  0
  1  2  1  0
  2  3  1  0
  2  4  1  0
  4  5  2  0
  5  6  1  0
  6  7  2  0
  7  8  1  0
  8  9  1  0
  9 10  1  0
 10 11  1  0
 11 12  1  0
 12 13  1  1
 12 14  1  0
 14 15  1  1
 15 16  1  0
 16 17  1  0
 17 18  2  0
 18 19  1  0
 19 20  2  0
 20 21  1  0
 20 22  1  0
 22 23  1  0
 23 24  1  0
 24 25  1  0
 25 26  1  0
 26 27  1  0
 27 28  2  0
 27 29  2  0
 27 30  1  0
 30 31  1  0
 31 32  1  6
 31 33  1  0
 33 34  2  0
 33 35  1  0
  8 36  2  0
 21 16  2  0
 35 14  1  0
 36  4  1  0
M  END
$$$$
