
     RDKit          3D

 36 38  0  0  0  0  0  0  0  0999 V2000
  -12.0177  -37.6170  -15.7447 C   0  0  0  0  0  0  0  0  0  0  0  0
  -11.2608  -37.7400  -14.4659 C   0  0  0  0  0  0  0  0  0  0  0  0
   -9.9774  -36.9340  -14.5228 C   0  0  0  0  0  0  0  0  0  0  0  0
  -12.1243  -37.2874  -13.3447 C   0  0  0  0  0  0  0  0  0  0  0  0
  -12.0227  -35.9807  -12.9242 C   0  0  0  0  0  0  0  0  0  0  0  0
  -12.8295  -35.5648  -11.8728 C   0  0  0  0  0  0  0  0  0  0  0  0
  -13.7131  -36.4556  -11.2694 C   0  0  0  0  0  0  0  0  0  0  0  0
  -13.8183  -37.7672  -11.6887 C   0  0  0  0  0  0  0  0  0  0  0  0
  -14.7705  -38.6478  -11.0002 C   0  0  0  0  0  0  0  0  0  0  0  0
  -15.0767  -38.1983   -9.6566 N   0  0  0  0  0  0  0  0  0  0  0  0
  -14.9764  -39.2501   -8.6869 C   0  0  0  0  0  0  0  0  0  0  0  0
  -15.8783  -39.0717   -7.5146 C   0  0  1  0  0  0  0  0  0  0  0  0
  -15.9954  -37.7246   -7.2215 O   0  0  0  0  0  0  0  0  0  0  0  0
  -17.2624  -39.7225   -7.7286 C   0  0  2  0  0  0  0  0  0  0  0  0
  -18.2555  -38.6445   -7.7242 C   0  0  0  0  0  0  0  0  0  0  0  0
  -19.6820  -38.9073   -7.4185 C   0  0  0  0  0  0  0  0  0  0  0  0
  -20.5065  -38.4273   -8.4520 C   0  0  0  0  0  0  0  0  0  0  0  0
  -21.8742  -38.5290   -8.4647 C   0  0  0  0  0  0  0  0  0  0  0  0
  -22.4037  -39.1497   -7.3685 C   0  0  0  0  0  0  0  0  0  0  0  0
  -21.6374  -39.6566   -6.2936 C   0  0  0  0  0  0  0  0  0  0  0  0
  -20.2587  -39.5221   -6.3390 C   0  0  0  0  0  0  0  0  0  0  0  0
  -22.4511  -40.2173   -5.3537 O   0  0  0  0  0  0  0  0  0  0  0  0
  -22.5745  -41.2108   -4.4433 C   0  0  0  0  0  0  0  0  0  0  0  0
  -22.6707  -42.5978   -4.9429 C   0  0  0  0  0  0  0  0  0  0  0  0
  -23.0456  -42.7803   -6.3722 C   0  0  0  0  0  0  0  0  0  0  0  0
  -22.5238  -44.1225   -6.9075 C   0  0  0  0  0  0  0  0  0  0  0  0
  -21.1402  -43.7261   -7.9888 S   0  0  0  0  0  6  0  0  0  0  0  0
  -21.6379  -42.6388   -8.8859 O   0  0  0  0  0  0  0  0  0  0  0  0
  -20.7113  -44.9307   -8.7665 O   0  0  0  0  0  0  0  0  0  0  0  0
  -19.8294  -43.2303   -6.9420 C   0  0  0  0  0  0  0  0  0  0  0  0
  -18.5634  -42.8159   -7.6524 C   0  0  1  0  0  0  0  0  0  0  0  0
  -18.7864  -42.2454   -8.9969 C   0  0  0  0  0  0  0  0  0  0  0  0
  -17.8069  -42.0036   -6.6872 C   0  0  0  0  0  0  0  0  0  0  0  0
  -17.3950  -42.7282   -5.6841 O   0  0  0  0  0  0  0  0  0  0  0  0
  -17.4617  -40.6734   -6.6407 N   0  0  0  0  0  0  0  0  0  0  0  0
  -13.0089  -38.1509  -12.7300 C   0  0  0  0  0  0  0  0  0  0  0  0
  1  2  1  0
  2  3  1  0
  2  4  1  0
  4  5  2  0
  5  6  1  0
  6  7  2  0
  7  8  1  0
  8  9  1  0
  9 10  1  0
 10 11  1  0
 11 12  1  0
 12 13  1  6
 12 14  1  0
 14 15  1  1
 15 16  1  0
 16 17  1  0
 17 18  2  0
 18 19  1  0
 19 20  2  0
 20 21  1  0
 20 22  1  0
 22 23  1  0
 23 24  1  0
 24 25  1  0
 25 26  1  0
 26 27  1  0
 27 28  2  0
 27 29  2  0
 27 30  1  0
 30 31  1  0
 31 32  1  6
 31 33  1  0
 33 34  2  0
 33 35  1  0
  8 36  2  0
 21 16  2  0
 35 14  1  0
 36  4  1  0
M  END
$$$$
