
     RDKit          3D

 36 38  0  0  0  0  0  0  0  0999 V2000
  -15.7100  -36.6078  -13.6531 C   0  0  0  0  0  0  0  0  0  0  0  0
  -15.0751  -35.4526  -12.9562 C   0  0  0  0  0  0  0  0  0  0  0  0
  -16.0826  -34.7371  -12.0771 C   0  0  0  0  0  0  0  0  0  0  0  0
  -13.9227  -35.9416  -12.1559 C   0  0  0  0  0  0  0  0  0  0  0  0
  -12.7807  -35.1743  -12.1131 C   0  0  0  0  0  0  0  0  0  0  0  0
  -11.7054  -35.6388  -11.3668 C   0  0  0  0  0  0  0  0  0  0  0  0
  -11.7933  -36.8495  -10.6848 C   0  0  0  0  0  0  0  0  0  0  0  0
  -12.9374  -37.6218  -10.7249 C   0  0  0  0  0  0  0  0  0  0  0  0
  -12.9529  -38.8887   -9.9825 C   0  0  0  0  0  0  0  0  0  0  0  0
  -13.6292  -38.7799   -8.7051 N   0  0  0  0  0  0  0  0  0  0  0  0
  -14.8449  -39.5393   -8.6583 C   0  0  0  0  0  0  0  0  0  0  0  0
  -15.9357  -38.8764   -7.8901 C   0  0  1  0  0  0  0  0  0  0  0  0
  -16.0279  -37.5488   -8.2690 O   0  0  0  0  0  0  0  0  0  0  0  0
  -17.2914  -39.5999   -8.0435 C   0  0  2  0  0  0  0  0  0  0  0  0
  -18.3409  -38.5801   -7.9588 C   0  0  0  0  0  0  0  0  0  0  0  0
  -19.7312  -38.9297   -7.5818 C   0  0  0  0  0  0  0  0  0  0  0  0
  -20.6377  -38.4757   -8.5568 C   0  0  0  0  0  0  0  0  0  0  0  0
  -21.9963  -38.6543   -8.4969 C   0  0  0  0  0  0  0  0  0  0  0  0
  -22.4283  -39.3268   -7.3886 C   0  0  0  0  0  0  0  0  0  0  0  0
  -21.5760  -39.8119   -6.3697 C   0  0  0  0  0  0  0  0  0  0  0  0
  -20.2117  -39.5986   -6.4874 C   0  0  0  0  0  0  0  0  0  0  0  0
  -22.3034  -40.4373   -5.4004 O   0  0  0  0  0  0  0  0  0  0  0  0
  -22.3204  -41.4550   -4.5087 C   0  0  0  0  0  0  0  0  0  0  0  0
  -22.3675  -42.8344   -5.0355 C   0  0  0  0  0  0  0  0  0  0  0  0
  -22.8112  -43.0079   -6.4460 C   0  0  0  0  0  0  0  0  0  0  0  0
  -22.2468  -44.3069   -7.0412 C   0  0  0  0  0  0  0  0  0  0  0  0
  -20.9501  -43.8103   -8.1869 S   0  0  0  0  0  6  0  0  0  0  0  0
  -21.5567  -42.7345   -9.0290 O   0  0  0  0  0  0  0  0  0  0  0  0
  -20.4993  -44.9722   -9.0155 O   0  0  0  0  0  0  0  0  0  0  0  0
  -19.6120  -43.2631   -7.2018 C   0  0  0  0  0  0  0  0  0  0  0  0
  -18.4127  -42.7629   -7.9704 C   0  0  1  0  0  0  0  0  0  0  0  0
  -18.7421  -42.1780   -9.2866 C   0  0  0  0  0  0  0  0  0  0  0  0
  -17.6496  -41.9294   -7.0289 C   0  0  0  0  0  0  0  0  0  0  0  0
  -17.1426  -42.6503   -6.0676 O   0  0  0  0  0  0  0  0  0  0  0  0
  -17.3764  -40.5831   -6.9694 N   0  0  0  0  0  0  0  0  0  0  0  0
  -13.9848  -37.1382  -11.4703 C   0  0  0  0  0  0  0  0  0  0  0  0
  1  2  1  0
  2  3  1  0
  2  4  1  0
  4  5  2  0
  5  6  1  0
  6  7  2  0
  7  8  1  0
  8  9  1  0
  9 10  1  0
 10 11  1  0
 11 12  1  0
 12 13  1  6
 12 14  1  0
 14 15  1  1
 15 16  1  0
 16 17  1  0
 17 18  2  0
 18 19  1  0
 19 20  2  0
 20 21  1  0
 20 22  1  0
 22 23  1  0
 23 24  1  0
 24 25  1  0
 25 26  1  0
 26 27  1  0
 27 28  2  0
 27 29  2  0
 27 30  1  0
 30 31  1  0
 31 32  1  6
 31 33  1  0
 33 34  2  0
 33 35  1  0
  8 36  2  0
 21 16  2  0
 35 14  1  0
 36  4  1  0
M  END
$$$$
