
     RDKit          3D

 38 40  0  0  0  0  0  0  0  0999 V2000
  -20.4415  -37.6647   -8.2627 C   0  0  0  0  0  0  0  0  0  0  0  0
  -20.0102  -38.9647   -7.6164 C   0  0  2  0  0  0  0  0  0  0  0  0
  -20.6099  -38.9850   -6.2183 C   0  0  0  0  0  0  0  0  0  0  0  0
  -21.4585  -40.2358   -6.1273 C   0  0  0  0  0  0  0  0  0  0  0  0
  -22.4955  -40.2071   -5.0609 C   0  0  0  0  0  0  0  0  0  0  0  0
  -22.3944  -41.2602   -4.0173 C   0  0  0  0  0  0  0  0  0  0  0  0
  -21.9263  -42.6012   -4.4754 C   0  0  0  0  0  0  0  0  0  0  0  0
  -22.8110  -43.2853   -5.4685 C   0  0  0  0  0  0  0  0  0  0  0  0
  -22.5775  -42.9850   -6.7847 O   0  0  0  0  0  0  0  0  0  0  0  0
  -21.4403  -43.5907   -7.3166 C   0  0  0  0  0  0  0  0  0  0  0  0
  -20.9872  -42.7402   -8.4450 C   0  0  0  0  0  0  0  0  0  0  0  0
  -21.8990  -42.1837   -9.1478 O   0  0  0  0  0  0  0  0  0  0  0  0
  -19.6655  -42.4848   -8.8193 N   0  0  0  0  0  0  0  0  0  0  0  0
  -19.3675  -42.2130  -10.2353 C   0  0  0  0  0  0  0  0  0  0  0  0
  -18.5140  -42.4584   -7.9388 C   0  0  1  0  0  0  0  0  0  0  0  0
  -18.1242  -43.9372   -7.7639 C   0  0  0  0  0  0  0  0  0  0  0  0
  -17.3816  -41.6874   -8.5050 C   0  0  0  0  0  0  0  0  0  0  0  0
  -16.2223  -42.1911   -8.2495 O   0  0  0  0  0  0  0  0  0  0  0  0
  -17.4009  -40.5240   -9.2559 N   0  0  0  0  0  0  0  0  0  0  0  0
  -17.9738  -39.2242   -8.9676 C   0  0  1  0  0  0  0  0  0  0  0  0
  -18.4932  -39.0585   -7.5925 C   0  0  0  0  0  0  0  0  0  0  0  0
  -16.8739  -38.2141   -9.2518 C   0  0  2  0  0  0  0  0  0  0  0  0
  -17.2553  -36.9193   -8.9463 O   0  0  0  0  0  0  0  0  0  0  0  0
  -16.2443  -38.3678  -10.6094 C   0  0  0  0  0  0  0  0  0  0  0  0
  -14.8144  -38.2880  -10.3957 N   0  0  0  0  0  0  0  0  0  0  0  0
  -14.1719  -37.1493  -10.9662 C   0  0  0  0  0  0  0  0  0  0  0  0
  -15.0380  -36.1806  -11.7011 C   0  0  0  0  0  0  0  0  0  0  0  0
  -14.6107  -35.8488  -10.3086 C   0  0  0  0  0  0  0  0  0  0  0  0
  -12.7268  -37.2513  -11.3164 C   0  0  0  0  0  0  0  0  0  0  0  0
  -12.0796  -38.4842  -11.1644 C   0  0  0  0  0  0  0  0  0  0  0  0
  -10.7441  -38.6384  -11.4617 C   0  0  0  0  0  0  0  0  0  0  0  0
  -10.0682  -37.5275  -11.9162 C   0  0  0  0  0  0  0  0  0  0  0  0
  -10.6864  -36.3094  -12.0714 C   0  0  0  0  0  0  0  0  0  0  0  0
  -12.0459  -36.1508  -11.7689 C   0  0  0  0  0  0  0  0  0  0  0  0
  -10.0497  -39.9368  -11.3051 C   0  0  0  0  0  0  0  0  0  0  0  0
  -10.9177  -41.1019  -11.6537 C   0  0  0  0  0  0  0  0  0  0  0  0
   -8.7901  -40.0072  -12.1425 C   0  0  0  0  0  0  0  0  0  0  0  0
   -9.6182  -40.0749   -9.8566 C   0  0  0  0  0  0  0  0  0  0  0  0
  2  1  1  1
  2  3  1  0
  3  4  1  0
  4  5  1  0
  5  6  1  0
  6  7  1  0
  7  8  1  0
  8  9  1  0
  9 10  1  0
 10 11  1  0
 11 12  2  0
 11 13  1  0
 13 14  1  0
 13 15  1  0
 15 16  1  6
 15 17  1  0
 17 18  2  0
 17 19  1  0
 19 20  1  0
 20 21  1  1
 20 22  1  0
 22 23  1  6
 22 24  1  0
 24 25  1  0
 25 26  1  0
 26 27  1  0
 27 28  1  0
 26 29  1  0
 29 30  2  0
 30 31  1  0
 31 32  2  0
 32 33  1  0
 33 34  2  0
 31 35  1  0
 35 36  1  0
 35 37  1  0
 35 38  1  0
 21  2  1  0
 28 26  1  0
 34 29  1  0
M  END
$$$$
