
     RDKit          3D

 38 40  0  0  0  0  0  0  0  0999 V2000
  -19.8810  -38.1790   -8.2025 C   0  0  0  0  0  0  0  0  0  0  0  0
  -19.7746  -39.4065   -7.3217 C   0  0  2  0  0  0  0  0  0  0  0  0
  -20.7300  -39.1995   -6.1559 C   0  0  0  0  0  0  0  0  0  0  0  0
  -21.6932  -40.3677   -6.1703 C   0  0  0  0  0  0  0  0  0  0  0  0
  -22.9722  -40.1278   -5.4492 C   0  0  0  0  0  0  0  0  0  0  0  0
  -23.2649  -41.0360   -4.3100 C   0  0  0  0  0  0  0  0  0  0  0  0
  -22.8280  -42.4544   -4.4670 C   0  0  0  0  0  0  0  0  0  0  0  0
  -23.4745  -43.2051   -5.5874 C   0  0  0  0  0  0  0  0  0  0  0  0
  -22.8637  -43.0999   -6.8093 O   0  0  0  0  0  0  0  0  0  0  0  0
  -21.6920  -43.8455   -6.9291 C   0  0  0  0  0  0  0  0  0  0  0  0
  -20.8664  -43.1857   -7.9707 C   0  0  0  0  0  0  0  0  0  0  0  0
  -21.4923  -42.6690   -8.9588 O   0  0  0  0  0  0  0  0  0  0  0  0
  -19.4739  -43.0710   -7.9833 N   0  0  0  0  0  0  0  0  0  0  0  0
  -18.7772  -43.0116   -9.2790 C   0  0  0  0  0  0  0  0  0  0  0  0
  -18.6079  -43.0034   -6.8226 C   0  0  1  0  0  0  0  0  0  0  0  0
  -18.4315  -44.4680   -6.3831 C   0  0  0  0  0  0  0  0  0  0  0  0
  -17.2925  -42.3921   -7.1282 C   0  0  0  0  0  0  0  0  0  0  0  0
  -16.3030  -42.9328   -6.5025 O   0  0  0  0  0  0  0  0  0  0  0  0
  -16.9898  -41.3410   -7.9775 N   0  0  0  0  0  0  0  0  0  0  0  0
  -17.4851  -39.9792   -8.0073 C   0  0  1  0  0  0  0  0  0  0  0  0
  -18.3386  -39.5967   -6.8612 C   0  0  0  0  0  0  0  0  0  0  0  0
  -16.2532  -39.0914   -8.0796 C   0  0  2  0  0  0  0  0  0  0  0  0
  -16.5730  -37.7622   -8.2945 O   0  0  0  0  0  0  0  0  0  0  0  0
  -15.1755  -39.6211   -8.9859 C   0  0  0  0  0  0  0  0  0  0  0  0
  -13.9219  -39.1715   -8.4175 N   0  0  0  0  0  0  0  0  0  0  0  0
  -12.7693  -39.3821   -9.2311 C   0  0  0  0  0  0  0  0  0  0  0  0
  -11.4710  -39.5919   -8.5246 C   0  0  0  0  0  0  0  0  0  0  0  0
  -12.1941  -40.7815   -9.0662 C   0  0  0  0  0  0  0  0  0  0  0  0
  -12.7685  -38.8326  -10.6163 C   0  0  0  0  0  0  0  0  0  0  0  0
  -12.9327  -39.7131  -11.6932 C   0  0  0  0  0  0  0  0  0  0  0  0
  -12.9306  -39.2668  -12.9958 C   0  0  0  0  0  0  0  0  0  0  0  0
  -12.7602  -37.9148  -13.1975 C   0  0  0  0  0  0  0  0  0  0  0  0
  -12.5972  -37.0356  -12.1533 C   0  0  0  0  0  0  0  0  0  0  0  0
  -12.5989  -37.4885  -10.8267 C   0  0  0  0  0  0  0  0  0  0  0  0
  -13.1035  -40.1883  -14.1418 C   0  0  0  0  0  0  0  0  0  0  0  0
  -13.9244  -39.5960  -15.2407 C   0  0  0  0  0  0  0  0  0  0  0  0
  -11.7737  -40.6277  -14.7174 C   0  0  0  0  0  0  0  0  0  0  0  0
  -13.7986  -41.4424  -13.6443 C   0  0  0  0  0  0  0  0  0  0  0  0
  2  1  1  6
  2  3  1  0
  3  4  1  0
  4  5  1  0
  5  6  1  0
  6  7  1  0
  7  8  1  0
  8  9  1  0
  9 10  1  0
 10 11  1  0
 11 12  2  0
 11 13  1  0
 13 14  1  0
 13 15  1  0
 15 16  1  6
 15 17  1  0
 17 18  2  0
 17 19  1  0
 19 20  1  0
 20 21  1  1
 20 22  1  0
 22 23  1  6
 22 24  1  0
 24 25  1  0
 25 26  1  0
 26 27  1  0
 27 28  1  0
 26 29  1  0
 29 30  2  0
 30 31  1  0
 31 32  2  0
 32 33  1  0
 33 34  2  0
 31 35  1  0
 35 36  1  0
 35 37  1  0
 35 38  1  0
 21  2  1  0
 28 26  1  0
 34 29  1  0
M  END
$$$$
