
     RDKit          3D

 38 40  0  0  0  0  0  0  0  0999 V2000
  -12.9615  -37.4687   -8.8670 C   0  0  0  0  0  0  0  0  0  0  0  0
  -13.4680  -38.0550  -10.1684 C   0  0  2  0  0  0  0  0  0  0  0  0
  -13.1645  -37.0394  -11.2599 C   0  0  0  0  0  0  0  0  0  0  0  0
  -12.3076  -37.7483  -12.2874 C   0  0  0  0  0  0  0  0  0  0  0  0
  -11.5107  -36.8459  -13.1614 C   0  0  0  0  0  0  0  0  0  0  0  0
  -11.7836  -36.9334  -14.6196 C   0  0  0  0  0  0  0  0  0  0  0  0
  -12.1002  -38.2912  -15.1519 C   0  0  0  0  0  0  0  0  0  0  0  0
  -11.0080  -39.3042  -15.0176 C   0  0  0  0  0  0  0  0  0  0  0  0
  -10.9798  -40.0011  -13.8383 O   0  0  0  0  0  0  0  0  0  0  0  0
  -11.9626  -40.9837  -13.7310 C   0  0  0  0  0  0  0  0  0  0  0  0
  -12.2073  -41.1916  -12.2822 C   0  0  0  0  0  0  0  0  0  0  0  0
  -11.1925  -41.1044  -11.5093 O   0  0  0  0  0  0  0  0  0  0  0  0
  -13.4338  -41.4735  -11.6750 N   0  0  0  0  0  0  0  0  0  0  0  0
  -13.4473  -42.2682  -10.4356 C   0  0  0  0  0  0  0  0  0  0  0  0
  -14.7403  -41.0580  -12.1462 C   0  0  1  0  0  0  0  0  0  0  0  0
  -15.1039  -42.0814  -13.2370 C   0  0  0  0  0  0  0  0  0  0  0  0
  -15.7611  -41.0615  -11.0714 C   0  0  0  0  0  0  0  0  0  0  0  0
  -16.9292  -41.4490  -11.4564 O   0  0  0  0  0  0  0  0  0  0  0  0
  -15.6316  -40.7122   -9.7376 N   0  0  0  0  0  0  0  0  0  0  0  0
  -15.1765  -39.4802   -9.1246 C   0  0  1  0  0  0  0  0  0  0  0  0
  -14.9537  -38.3579  -10.0621 C   0  0  0  0  0  0  0  0  0  0  0  0
  -16.2315  -39.1165   -8.0922 C   0  0  2  0  0  0  0  0  0  0  0  0
  -15.7041  -38.4090   -7.0261 O   0  0  0  0  0  0  0  0  0  0  0  0
  -17.1127  -40.2685   -7.6927 C   0  0  0  0  0  0  0  0  0  0  0  0
  -17.7322  -40.7372   -8.9147 N   0  0  0  0  0  0  0  0  0  0  0  0
  -19.1121  -40.4095   -9.0673 C   0  0  0  0  0  0  0  0  0  0  0  0
  -19.5367  -39.8673  -10.3918 C   0  0  0  0  0  0  0  0  0  0  0  0
  -19.8089  -41.3033  -10.0832 C   0  0  0  0  0  0  0  0  0  0  0  0
  -19.8986  -40.0655   -7.8491 C   0  0  0  0  0  0  0  0  0  0  0  0
  -20.8718  -39.0616   -7.9337 C   0  0  0  0  0  0  0  0  0  0  0  0
  -21.6232  -38.6925   -6.8406 C   0  0  0  0  0  0  0  0  0  0  0  0
  -21.3783  -39.3527   -5.6566 C   0  0  0  0  0  0  0  0  0  0  0  0
  -20.4273  -40.3402   -5.5544 C   0  0  0  0  0  0  0  0  0  0  0  0
  -19.6613  -40.7169   -6.6664 C   0  0  0  0  0  0  0  0  0  0  0  0
  -22.6546  -37.6330   -6.9184 C   0  0  0  0  0  0  0  0  0  0  0  0
  -22.0737  -36.2571   -6.8757 C   0  0  0  0  0  0  0  0  0  0  0  0
  -23.5003  -37.7600   -8.1679 C   0  0  0  0  0  0  0  0  0  0  0  0
  -23.5946  -37.7951   -5.7378 C   0  0  0  0  0  0  0  0  0  0  0  0
  2  1  1  1
  2  3  1  0
  3  4  1  0
  4  5  1  0
  5  6  1  0
  6  7  1  0
  7  8  1  0
  8  9  1  0
  9 10  1  0
 10 11  1  0
 11 12  2  0
 11 13  1  0
 13 14  1  0
 13 15  1  0
 15 16  1  6
 15 17  1  0
 17 18  2  0
 17 19  1  0
 19 20  1  0
 20 21  1  6
 20 22  1  0
 22 23  1  1
 22 24  1  0
 24 25  1  0
 25 26  1  0
 26 27  1  0
 27 28  1  0
 26 29  1  0
 29 30  2  0
 30 31  1  0
 31 32  2  0
 32 33  1  0
 33 34  2  0
 31 35  1  0
 35 36  1  0
 35 37  1  0
 35 38  1  0
 21  2  1  0
 28 26  1  0
 34 29  1  0
M  END
$$$$
