
     RDKit          3D

 38 40  0  0  0  0  0  0  0  0999 V2000
  -15.1476  -43.5142   -7.7381 C   0  0  0  0  0  0  0  0  0  0  0  0
  -16.4722  -43.7000   -8.4487 C   0  0  2  0  0  0  0  0  0  0  0  0
  -16.2704  -44.7982   -9.4822 C   0  0  0  0  0  0  0  0  0  0  0  0
  -17.2820  -45.8806   -9.1697 C   0  0  0  0  0  0  0  0  0  0  0  0
  -16.9505  -47.2204   -9.7252 C   0  0  0  0  0  0  0  0  0  0  0  0
  -17.9352  -47.7999  -10.6754 C   0  0  0  0  0  0  0  0  0  0  0  0
  -19.3728  -47.5181  -10.3904 C   0  0  0  0  0  0  0  0  0  0  0  0
  -19.8894  -48.0623   -9.0965 C   0  0  0  0  0  0  0  0  0  0  0  0
  -19.7293  -47.2549   -8.0012 O   0  0  0  0  0  0  0  0  0  0  0  0
  -20.6130  -46.1780   -7.9503 C   0  0  0  0  0  0  0  0  0  0  0  0
  -19.9588  -45.1221   -7.1385 C   0  0  0  0  0  0  0  0  0  0  0  0
  -19.2477  -45.5140   -6.1507 O   0  0  0  0  0  0  0  0  0  0  0  0
  -20.0402  -43.7422   -7.3422 N   0  0  0  0  0  0  0  0  0  0  0  0
  -19.9286  -42.8443   -6.1807 C   0  0  0  0  0  0  0  0  0  0  0  0
  -20.2308  -43.0722   -8.6137 C   0  0  1  0  0  0  0  0  0  0  0  0
  -21.7468  -43.1471   -8.8694 C   0  0  0  0  0  0  0  0  0  0  0  0
  -19.7789  -41.6606   -8.5870 C   0  0  0  0  0  0  0  0  0  0  0  0
  -20.5224  -40.8572   -9.2686 O   0  0  0  0  0  0  0  0  0  0  0  0
  -18.6889  -41.1006   -7.9419 N   0  0  0  0  0  0  0  0  0  0  0  0
  -17.2769  -41.4163   -8.0278 C   0  0  1  0  0  0  0  0  0  0  0  0
  -16.9146  -42.3903   -9.0806 C   0  0  0  0  0  0  0  0  0  0  0  0
  -16.5687  -40.0906   -8.2556 C   0  0  2  0  0  0  0  0  0  0  0  0
  -15.6231  -39.8237   -7.2810 O   0  0  0  0  0  0  0  0  0  0  0  0
  -17.5014  -38.9452   -8.5406 C   0  0  0  0  0  0  0  0  0  0  0  0
  -16.6586  -37.7809   -8.7164 N   0  0  0  0  0  0  0  0  0  0  0  0
  -16.8494  -37.0644   -9.9351 C   0  0  0  0  0  0  0  0  0  0  0  0
  -15.8132  -36.0515  -10.2943 C   0  0  0  0  0  0  0  0  0  0  0  0
  -15.7775  -37.3847  -10.9671 C   0  0  0  0  0  0  0  0  0  0  0  0
  -18.2365  -36.9099  -10.4577 C   0  0  0  0  0  0  0  0  0  0  0  0
  -18.4226  -36.3394  -11.7233 C   0  0  0  0  0  0  0  0  0  0  0  0
  -19.6799  -36.1612  -12.2557 C   0  0  0  0  0  0  0  0  0  0  0  0
  -20.7506  -36.5683  -11.4906 C   0  0  0  0  0  0  0  0  0  0  0  0
  -20.5876  -37.1298  -10.2464 C   0  0  0  0  0  0  0  0  0  0  0  0
  -19.3082  -37.3116   -9.7030 C   0  0  0  0  0  0  0  0  0  0  0  0
  -19.8885  -35.5595  -13.5924 C   0  0  0  0  0  0  0  0  0  0  0  0
  -19.1308  -36.2664  -14.6688 C   0  0  0  0  0  0  0  0  0  0  0  0
  -21.3533  -35.5296  -13.9748 C   0  0  0  0  0  0  0  0  0  0  0  0
  -19.4213  -34.1163  -13.5437 C   0  0  0  0  0  0  0  0  0  0  0  0
  2  1  1  6
  2  3  1  0
  3  4  1  0
  4  5  1  0
  5  6  1  0
  6  7  1  0
  7  8  1  0
  8  9  1  0
  9 10  1  0
 10 11  1  0
 11 12  2  0
 11 13  1  0
 13 14  1  0
 13 15  1  0
 15 16  1  1
 15 17  1  0
 17 18  2  0
 17 19  1  0
 19 20  1  0
 20 21  1  6
 20 22  1  0
 22 23  1  1
 22 24  1  0
 24 25  1  0
 25 26  1  0
 26 27  1  0
 27 28  1  0
 26 29  1  0
 29 30  2  0
 30 31  1  0
 31 32  2  0
 32 33  1  0
 33 34  2  0
 31 35  1  0
 35 36  1  0
 35 37  1  0
 35 38  1  0
 21  2  1  0
 28 26  1  0
 34 29  1  0
M  END
$$$$
