
     RDKit          3D

 38 40  0  0  0  0  0  0  0  0999 V2000
  -19.9715  -38.0362   -8.0827 C   0  0  0  0  0  0  0  0  0  0  0  0
  -19.8989  -39.2543   -7.1856 C   0  0  2  0  0  0  0  0  0  0  0  0
  -20.8023  -38.9805   -5.9925 C   0  0  0  0  0  0  0  0  0  0  0  0
  -21.8245  -40.0970   -5.9557 C   0  0  0  0  0  0  0  0  0  0  0  0
  -23.0643  -39.7801   -5.1968 C   0  0  0  0  0  0  0  0  0  0  0  0
  -23.3646  -40.6548   -4.0336 C   0  0  0  0  0  0  0  0  0  0  0  0
  -23.0070  -42.0961   -4.1813 C   0  0  0  0  0  0  0  0  0  0  0  0
  -23.7290  -42.8288   -5.2672 C   0  0  0  0  0  0  0  0  0  0  0  0
  -23.1552  -42.7737   -6.5101 O   0  0  0  0  0  0  0  0  0  0  0  0
  -22.0283  -43.5810   -6.6562 C   0  0  0  0  0  0  0  0  0  0  0  0
  -21.2054  -42.9807   -7.7353 C   0  0  0  0  0  0  0  0  0  0  0  0
  -21.8369  -42.4469   -8.7107 O   0  0  0  0  0  0  0  0  0  0  0  0
  -19.8101  -42.9390   -7.7957 N   0  0  0  0  0  0  0  0  0  0  0  0
  -19.1555  -42.9352   -9.1145 C   0  0  0  0  0  0  0  0  0  0  0  0
  -18.9030  -42.8993   -6.6655 C   0  0  1  0  0  0  0  0  0  0  0  0
  -18.7876  -44.3644   -6.2078 C   0  0  0  0  0  0  0  0  0  0  0  0
  -17.5689  -42.3619   -7.0245 C   0  0  0  0  0  0  0  0  0  0  0  0
  -16.5880  -42.9441   -6.4230 O   0  0  0  0  0  0  0  0  0  0  0  0
  -17.2413  -41.3408   -7.9007 N   0  0  0  0  0  0  0  0  0  0  0  0
  -17.6665  -39.9556   -7.9368 C   0  0  1  0  0  0  0  0  0  0  0  0
  -18.4598  -39.5122   -6.7697 C   0  0  0  0  0  0  0  0  0  0  0  0
  -16.3936  -39.1344   -8.0645 C   0  0  2  0  0  0  0  0  0  0  0  0
  -16.6413  -37.7729   -8.0551 O   0  0  0  0  0  0  0  0  0  0  0  0
  -15.4867  -39.5890   -9.1754 C   0  0  0  0  0  0  0  0  0  0  0  0
  -14.1655  -39.6938   -8.5921 N   0  0  0  0  0  0  0  0  0  0  0  0
  -13.1387  -40.1403   -9.4760 C   0  0  0  0  0  0  0  0  0  0  0  0
  -11.8246  -40.4949   -8.8629 C   0  0  0  0  0  0  0  0  0  0  0  0
  -12.7631  -41.5955   -9.2363 C   0  0  0  0  0  0  0  0  0  0  0  0
  -13.1881  -39.7024  -10.8997 C   0  0  0  0  0  0  0  0  0  0  0  0
  -12.7483  -38.4133  -11.2263 C   0  0  0  0  0  0  0  0  0  0  0  0
  -12.7788  -37.9482  -12.5219 C   0  0  0  0  0  0  0  0  0  0  0  0
  -13.2609  -38.8049  -13.4869 C   0  0  0  0  0  0  0  0  0  0  0  0
  -13.6972  -40.0732  -13.1853 C   0  0  0  0  0  0  0  0  0  0  0  0
  -13.6669  -40.5481  -11.8667 C   0  0  0  0  0  0  0  0  0  0  0  0
  -12.3164  -36.5876  -12.8788 C   0  0  0  0  0  0  0  0  0  0  0  0
  -12.5677  -36.2494  -14.3122 C   0  0  0  0  0  0  0  0  0  0  0  0
  -12.9636  -35.5270  -12.0133 C   0  0  0  0  0  0  0  0  0  0  0  0
  -10.8228  -36.5088  -12.6207 C   0  0  0  0  0  0  0  0  0  0  0  0
  2  1  1  6
  2  3  1  0
  3  4  1  0
  4  5  1  0
  5  6  1  0
  6  7  1  0
  7  8  1  0
  8  9  1  0
  9 10  1  0
 10 11  1  0
 11 12  2  0
 11 13  1  0
 13 14  1  0
 13 15  1  0
 15 16  1  6
 15 17  1  0
 17 18  2  0
 17 19  1  0
 19 20  1  0
 20 21  1  1
 20 22  1  0
 22 23  1  6
 22 24  1  0
 24 25  1  0
 25 26  1  0
 26 27  1  0
 27 28  1  0
 26 29  1  0
 29 30  2  0
 30 31  1  0
 31 32  2  0
 32 33  1  0
 33 34  2  0
 31 35  1  0
 35 36  1  0
 35 37  1  0
 35 38  1  0
 21  2  1  0
 28 26  1  0
 34 29  1  0
M  END
$$$$
