
     RDKit          3D

 38 40  0  0  0  0  0  0  0  0999 V2000
  -20.8184  -38.2218   -8.0322 C   0  0  0  0  0  0  0  0  0  0  0  0
  -20.3999  -39.3292   -7.0876 C   0  0  2  0  0  0  0  0  0  0  0  0
  -21.1648  -39.1172   -5.7896 C   0  0  0  0  0  0  0  0  0  0  0  0
  -21.9490  -40.3871   -5.5346 C   0  0  0  0  0  0  0  0  0  0  0  0
  -23.1091  -40.2276   -4.6170 C   0  0  0  0  0  0  0  0  0  0  0  0
  -23.0800  -41.0404   -3.3733 C   0  0  0  0  0  0  0  0  0  0  0  0
  -22.4872  -42.4050   -3.4898 C   0  0  0  0  0  0  0  0  0  0  0  0
  -23.2049  -43.3403   -4.4102 C   0  0  0  0  0  0  0  0  0  0  0  0
  -22.8282  -43.2910   -5.7265 O   0  0  0  0  0  0  0  0  0  0  0  0
  -21.6031  -43.8999   -5.9941 C   0  0  0  0  0  0  0  0  0  0  0  0
  -21.0617  -43.2586   -7.2178 C   0  0  0  0  0  0  0  0  0  0  0  0
  -21.9091  -42.9263   -8.1159 O   0  0  0  0  0  0  0  0  0  0  0  0
  -19.7198  -42.9805   -7.4904 N   0  0  0  0  0  0  0  0  0  0  0  0
  -19.2654  -42.9739   -8.8908 C   0  0  0  0  0  0  0  0  0  0  0  0
  -18.6883  -42.6892   -6.5142 C   0  0  1  0  0  0  0  0  0  0  0  0
  -18.2433  -44.0684   -5.9953 C   0  0  0  0  0  0  0  0  0  0  0  0
  -17.5384  -41.9605   -7.1007 C   0  0  0  0  0  0  0  0  0  0  0  0
  -16.3937  -42.3110   -6.6215 O   0  0  0  0  0  0  0  0  0  0  0  0
  -17.5284  -40.9753   -8.0738 N   0  0  0  0  0  0  0  0  0  0  0  0
  -18.2019  -39.6929   -8.1252 C   0  0  1  0  0  0  0  0  0  0  0  0
  -18.8945  -39.2975   -6.8794 C   0  0  0  0  0  0  0  0  0  0  0  0
  -17.1318  -38.6769   -8.4907 C   0  0  2  0  0  0  0  0  0  0  0  0
  -17.6223  -37.3833   -8.5240 O   0  0  0  0  0  0  0  0  0  0  0  0
  -16.3180  -39.0594   -9.6968 C   0  0  0  0  0  0  0  0  0  0  0  0
  -15.0899  -39.6290   -9.1830 N   0  0  0  0  0  0  0  0  0  0  0  0
  -13.9066  -39.2842   -9.9013 C   0  0  0  0  0  0  0  0  0  0  0  0
  -12.6028  -39.6555   -9.2763 C   0  0  0  0  0  0  0  0  0  0  0  0
  -13.1413  -40.5109  -10.3762 C   0  0  0  0  0  0  0  0  0  0  0  0
  -13.9626  -38.1382  -10.8524 C   0  0  0  0  0  0  0  0  0  0  0  0
  -12.8150  -37.8119  -11.5863 C   0  0  0  0  0  0  0  0  0  0  0  0
  -12.8018  -36.7583  -12.4727 C   0  0  0  0  0  0  0  0  0  0  0  0
  -13.9668  -36.0359  -12.6089 C   0  0  0  0  0  0  0  0  0  0  0  0
  -15.1027  -36.3411  -11.8970 C   0  0  0  0  0  0  0  0  0  0  0  0
  -15.1175  -37.4133  -10.9941 C   0  0  0  0  0  0  0  0  0  0  0  0
  -11.5948  -36.4044  -13.2537 C   0  0  0  0  0  0  0  0  0  0  0  0
  -11.8431  -35.3050  -14.2346 C   0  0  0  0  0  0  0  0  0  0  0  0
  -10.4425  -35.9997  -12.3585 C   0  0  0  0  0  0  0  0  0  0  0  0
  -11.1422  -37.6362  -14.0162 C   0  0  0  0  0  0  0  0  0  0  0  0
  2  1  1  6
  2  3  1  0
  3  4  1  0
  4  5  1  0
  5  6  1  0
  6  7  1  0
  7  8  1  0
  8  9  1  0
  9 10  1  0
 10 11  1  0
 11 12  2  0
 11 13  1  0
 13 14  1  0
 13 15  1  0
 15 16  1  6
 15 17  1  0
 17 18  2  0
 17 19  1  0
 19 20  1  0
 20 21  1  1
 20 22  1  0
 22 23  1  6
 22 24  1  0
 24 25  1  0
 25 26  1  0
 26 27  1  0
 27 28  1  0
 26 29  1  0
 29 30  2  0
 30 31  1  0
 31 32  2  0
 32 33  1  0
 33 34  2  0
 31 35  1  0
 35 36  1  0
 35 37  1  0
 35 38  1  0
 21  2  1  0
 28 26  1  0
 34 29  1  0
M  END
$$$$
