
     RDKit          3D

 38 40  0  0  0  0  0  0  0  0999 V2000
  -20.9057  -38.5728   -7.8072 C   0  0  0  0  0  0  0  0  0  0  0  0
  -20.4982  -39.8259   -7.0604 C   0  0  2  0  0  0  0  0  0  0  0  0
  -21.2039  -39.7881   -5.7131 C   0  0  0  0  0  0  0  0  0  0  0  0
  -22.0302  -41.0535   -5.6194 C   0  0  0  0  0  0  0  0  0  0  0  0
  -23.1470  -40.9954   -4.6383 C   0  0  0  0  0  0  0  0  0  0  0  0
  -23.1047  -41.9896   -3.5346 C   0  0  0  0  0  0  0  0  0  0  0  0
  -22.5742  -43.3404   -3.8823 C   0  0  0  0  0  0  0  0  0  0  0  0
  -23.3646  -44.0978   -4.9015 C   0  0  0  0  0  0  0  0  0  0  0  0
  -23.0363  -43.8609   -6.2104 O   0  0  0  0  0  0  0  0  0  0  0  0
  -21.8487  -44.4646   -6.6205 C   0  0  0  0  0  0  0  0  0  0  0  0
  -21.3277  -43.6631   -7.7555 C   0  0  0  0  0  0  0  0  0  0  0  0
  -22.1939  -43.1674   -8.5548 O   0  0  0  0  0  0  0  0  0  0  0  0
  -19.9867  -43.3943   -8.0412 N   0  0  0  0  0  0  0  0  0  0  0  0
  -19.5858  -43.1895   -9.4430 C   0  0  0  0  0  0  0  0  0  0  0  0
  -18.9077  -43.2926   -7.0783 C   0  0  1  0  0  0  0  0  0  0  0  0
  -18.5013  -44.7499   -6.7944 C   0  0  0  0  0  0  0  0  0  0  0  0
  -17.7514  -42.5239   -7.5975 C   0  0  0  0  0  0  0  0  0  0  0  0
  -16.6050  -42.9840   -7.2274 O   0  0  0  0  0  0  0  0  0  0  0  0
  -17.7373  -41.4023   -8.4095 N   0  0  0  0  0  0  0  0  0  0  0  0
  -18.3582  -40.1041   -8.2365 C   0  0  1  0  0  0  0  0  0  0  0  0
  -18.9860  -39.8798   -6.9160 C   0  0  0  0  0  0  0  0  0  0  0  0
  -17.2613  -39.0827   -8.4903 C   0  0  2  0  0  0  0  0  0  0  0  0
  -17.7285  -37.9606   -9.1520 O   0  0  0  0  0  0  0  0  0  0  0  0
  -16.0090  -39.6707   -9.0812 C   0  0  0  0  0  0  0  0  0  0  0  0
  -15.1597  -38.5457   -9.4125 N   0  0  0  0  0  0  0  0  0  0  0  0
  -14.0905  -38.8291  -10.3132 C   0  0  0  0  0  0  0  0  0  0  0  0
  -13.5954  -40.2368  -10.3549 C   0  0  0  0  0  0  0  0  0  0  0  0
  -14.5136  -39.7664  -11.4351 C   0  0  0  0  0  0  0  0  0  0  0  0
  -13.1737  -37.7188  -10.6979 C   0  0  0  0  0  0  0  0  0  0  0  0
  -13.7085  -36.5877  -11.3277 C   0  0  0  0  0  0  0  0  0  0  0  0
  -12.9113  -35.5344  -11.7157 C   0  0  0  0  0  0  0  0  0  0  0  0
  -11.5620  -35.6383  -11.4585 C   0  0  0  0  0  0  0  0  0  0  0  0
  -11.0190  -36.7405  -10.8418 C   0  0  0  0  0  0  0  0  0  0  0  0
  -11.8294  -37.8138  -10.4464 C   0  0  0  0  0  0  0  0  0  0  0  0
  -13.4656  -34.3339  -12.3820 C   0  0  0  0  0  0  0  0  0  0  0  0
  -13.8882  -34.5982  -13.7905 C   0  0  0  0  0  0  0  0  0  0  0  0
  -14.6458  -33.7630  -11.6243 C   0  0  0  0  0  0  0  0  0  0  0  0
  -12.3947  -33.2585  -12.3948 C   0  0  0  0  0  0  0  0  0  0  0  0
  2  1  1  6
  2  3  1  0
  3  4  1  0
  4  5  1  0
  5  6  1  0
  6  7  1  0
  7  8  1  0
  8  9  1  0
  9 10  1  0
 10 11  1  0
 11 12  2  0
 11 13  1  0
 13 14  1  0
 13 15  1  0
 15 16  1  6
 15 17  1  0
 17 18  2  0
 17 19  1  0
 19 20  1  0
 20 21  1  1
 20 22  1  0
 22 23  1  6
 22 24  1  0
 24 25  1  0
 25 26  1  0
 26 27  1  0
 27 28  1  0
 26 29  1  0
 29 30  2  0
 30 31  1  0
 31 32  2  0
 32 33  1  0
 33 34  2  0
 31 35  1  0
 35 36  1  0
 35 37  1  0
 35 38  1  0
 21  2  1  0
 28 26  1  0
 34 29  1  0
M  END
$$$$
