
     RDKit          3D

 38 40  0  0  0  0  0  0  0  0999 V2000
  -20.0819  -38.1953   -8.2762 C   0  0  0  0  0  0  0  0  0  0  0  0
  -19.8614  -39.4293   -7.4263 C   0  0  2  0  0  0  0  0  0  0  0  0
  -20.8821  -39.3794   -6.2992 C   0  0  0  0  0  0  0  0  0  0  0  0
  -21.6925  -40.6552   -6.3896 C   0  0  0  0  0  0  0  0  0  0  0  0
  -23.0199  -40.5972   -5.7201 C   0  0  0  0  0  0  0  0  0  0  0  0
  -23.2449  -41.5718   -4.6212 C   0  0  0  0  0  0  0  0  0  0  0  0
  -22.6304  -42.9202   -4.7980 C   0  0  0  0  0  0  0  0  0  0  0  0
  -23.1329  -43.7065   -5.9670 C   0  0  0  0  0  0  0  0  0  0  0  0
  -22.4900  -43.4869   -7.1568 O   0  0  0  0  0  0  0  0  0  0  0  0
  -21.2314  -44.0796   -7.2448 C   0  0  0  0  0  0  0  0  0  0  0  0
  -20.4513  -43.2897   -8.2293 C   0  0  0  0  0  0  0  0  0  0  0  0
  -21.0949  -42.8206   -9.2297 O   0  0  0  0  0  0  0  0  0  0  0  0
  -19.0842  -43.0057   -8.1761 N   0  0  0  0  0  0  0  0  0  0  0  0
  -18.3474  -42.8186   -9.4371 C   0  0  0  0  0  0  0  0  0  0  0  0
  -18.2816  -42.8717   -6.9763 C   0  0  1  0  0  0  0  0  0  0  0  0
  -17.9442  -44.3177   -6.5706 C   0  0  0  0  0  0  0  0  0  0  0  0
  -17.0401  -42.0947   -7.2053 C   0  0  0  0  0  0  0  0  0  0  0  0
  -16.0181  -42.5312   -6.5513 O   0  0  0  0  0  0  0  0  0  0  0  0
  -16.8347  -40.9868   -8.0104 N   0  0  0  0  0  0  0  0  0  0  0  0
  -17.4925  -39.6953   -8.0242 C   0  0  1  0  0  0  0  0  0  0  0  0
  -18.4330  -39.4582   -6.9073 C   0  0  0  0  0  0  0  0  0  0  0  0
  -16.3775  -38.6621   -8.0162 C   0  0  2  0  0  0  0  0  0  0  0  0
  -16.8602  -37.3657   -7.9770 O   0  0  0  0  0  0  0  0  0  0  0  0
  -15.3245  -38.8970   -9.0647 C   0  0  0  0  0  0  0  0  0  0  0  0
  -14.9552  -40.2925   -8.9513 N   0  0  0  0  0  0  0  0  0  0  0  0
  -13.9058  -40.7213   -9.8172 C   0  0  0  0  0  0  0  0  0  0  0  0
  -12.9235  -41.6970   -9.2589 C   0  0  0  0  0  0  0  0  0  0  0  0
  -14.0057  -42.2016  -10.1565 C   0  0  0  0  0  0  0  0  0  0  0  0
  -13.4914  -39.8207  -10.9300 C   0  0  0  0  0  0  0  0  0  0  0  0
  -13.8396  -38.4654  -10.8683 C   0  0  0  0  0  0  0  0  0  0  0  0
  -13.4941  -37.5863  -11.8702 C   0  0  0  0  0  0  0  0  0  0  0  0
  -12.7899  -38.0955  -12.9390 C   0  0  0  0  0  0  0  0  0  0  0  0
  -12.4397  -39.4226  -13.0171 C   0  0  0  0  0  0  0  0  0  0  0  0
  -12.7909  -40.3188  -11.9980 C   0  0  0  0  0  0  0  0  0  0  0  0
  -13.8566  -36.1517  -11.8155 C   0  0  0  0  0  0  0  0  0  0  0  0
  -15.2740  -35.9295  -11.3985 C   0  0  0  0  0  0  0  0  0  0  0  0
  -12.9524  -35.3770  -10.8800 C   0  0  0  0  0  0  0  0  0  0  0  0
  -13.6634  -35.5581  -13.1989 C   0  0  0  0  0  0  0  0  0  0  0  0
  2  1  1  6
  2  3  1  0
  3  4  1  0
  4  5  1  0
  5  6  1  0
  6  7  1  0
  7  8  1  0
  8  9  1  0
  9 10  1  0
 10 11  1  0
 11 12  2  0
 11 13  1  0
 13 14  1  0
 13 15  1  0
 15 16  1  6
 15 17  1  0
 17 18  2  0
 17 19  1  0
 19 20  1  0
 20 21  1  1
 20 22  1  0
 22 23  1  6
 22 24  1  0
 24 25  1  0
 25 26  1  0
 26 27  1  0
 27 28  1  0
 26 29  1  0
 29 30  2  0
 30 31  1  0
 31 32  2  0
 32 33  1  0
 33 34  2  0
 31 35  1  0
 35 36  1  0
 35 37  1  0
 35 38  1  0
 21  2  1  0
 28 26  1  0
 34 29  1  0
M  END
$$$$
