
     RDKit          3D

 38 40  0  0  0  0  0  0  0  0999 V2000
  -19.8764  -38.2209   -9.3125 C   0  0  0  0  0  0  0  0  0  0  0  0
  -19.8720  -39.2205   -8.1746 C   0  0  2  0  0  0  0  0  0  0  0  0
  -21.1178  -38.9516   -7.3437 C   0  0  0  0  0  0  0  0  0  0  0  0
  -21.9088  -40.2424   -7.3156 C   0  0  0  0  0  0  0  0  0  0  0  0
  -23.3510  -40.0807   -6.9881 C   0  0  0  0  0  0  0  0  0  0  0  0
  -23.8322  -40.7870   -5.7724 C   0  0  0  0  0  0  0  0  0  0  0  0
  -23.2164  -42.1176   -5.4943 C   0  0  0  0  0  0  0  0  0  0  0  0
  -23.4581  -43.1665   -6.5328 C   0  0  0  0  0  0  0  0  0  0  0  0
  -22.5620  -43.2008   -7.5687 O   0  0  0  0  0  0  0  0  0  0  0  0
  -21.3257  -43.7530   -7.2375 C   0  0  0  0  0  0  0  0  0  0  0  0
  -20.3322  -43.1808   -8.1795 C   0  0  0  0  0  0  0  0  0  0  0  0
  -20.7281  -42.9747   -9.3777 O   0  0  0  0  0  0  0  0  0  0  0  0
  -19.0070  -42.8439   -7.8918 N   0  0  0  0  0  0  0  0  0  0  0  0
  -18.0041  -42.9227   -8.9669 C   0  0  0  0  0  0  0  0  0  0  0  0
  -18.4906  -42.4120   -6.6079 C   0  0  1  0  0  0  0  0  0  0  0  0
  -18.2767  -43.7148   -5.8165 C   0  0  0  0  0  0  0  0  0  0  0  0
  -17.2165  -41.6639   -6.7288 C   0  0  0  0  0  0  0  0  0  0  0  0
  -16.3739  -41.9037   -5.7825 O   0  0  0  0  0  0  0  0  0  0  0  0
  -16.8179  -40.7618   -7.7009 N   0  0  0  0  0  0  0  0  0  0  0  0
  -17.4342  -39.5315   -8.1562 C   0  0  1  0  0  0  0  0  0  0  0  0
  -18.5964  -39.0799   -7.3601 C   0  0  0  0  0  0  0  0  0  0  0  0
  -16.3320  -38.4847   -8.1393 C   0  0  2  0  0  0  0  0  0  0  0  0
  -16.7120  -37.3089   -8.7624 O   0  0  0  0  0  0  0  0  0  0  0  0
  -14.9906  -39.0083   -8.5749 C   0  0  0  0  0  0  0  0  0  0  0  0
  -14.1418  -37.8456   -8.7308 N   0  0  0  0  0  0  0  0  0  0  0  0
  -13.7823  -37.5246  -10.0734 C   0  0  0  0  0  0  0  0  0  0  0  0
  -13.8917  -36.0922  -10.4796 C   0  0  0  0  0  0  0  0  0  0  0  0
  -12.5440  -36.6425  -10.1444 C   0  0  0  0  0  0  0  0  0  0  0  0
  -13.8881  -38.5898  -11.1103 C   0  0  0  0  0  0  0  0  0  0  0  0
  -13.1908  -39.7897  -10.9207 C   0  0  0  0  0  0  0  0  0  0  0  0
  -13.2411  -40.8066  -11.8476 C   0  0  0  0  0  0  0  0  0  0  0  0
  -14.0076  -40.5954  -12.9725 C   0  0  0  0  0  0  0  0  0  0  0  0
  -14.6986  -39.4245  -13.1760 C   0  0  0  0  0  0  0  0  0  0  0  0
  -14.6481  -38.3882  -12.2333 C   0  0  0  0  0  0  0  0  0  0  0  0
  -12.5083  -42.0791  -11.6576 C   0  0  0  0  0  0  0  0  0  0  0  0
  -11.3664  -42.2357  -12.6083 C   0  0  0  0  0  0  0  0  0  0  0  0
  -11.9817  -42.2210  -10.2450 C   0  0  0  0  0  0  0  0  0  0  0  0
  -13.4784  -43.2254  -11.8780 C   0  0  0  0  0  0  0  0  0  0  0  0
  2  1  1  6
  2  3  1  0
  3  4  1  0
  4  5  1  0
  5  6  1  0
  6  7  1  0
  7  8  1  0
  8  9  1  0
  9 10  1  0
 10 11  1  0
 11 12  2  0
 11 13  1  0
 13 14  1  0
 13 15  1  0
 15 16  1  1
 15 17  1  0
 17 18  2  0
 17 19  1  0
 19 20  1  0
 20 21  1  1
 20 22  1  0
 22 23  1  6
 22 24  1  0
 24 25  1  0
 25 26  1  0
 26 27  1  0
 27 28  1  0
 26 29  1  0
 29 30  2  0
 30 31  1  0
 31 32  2  0
 32 33  1  0
 33 34  2  0
 31 35  1  0
 35 36  1  0
 35 37  1  0
 35 38  1  0
 21  2  1  0
 28 26  1  0
 34 29  1  0
M  END
$$$$
