
     RDKit          3D

 38 40  0  0  0  0  0  0  0  0999 V2000
  -20.0314  -38.1853   -7.6141 C   0  0  0  0  0  0  0  0  0  0  0  0
  -19.8677  -39.4318   -6.7695 C   0  0  2  0  0  0  0  0  0  0  0  0
  -20.5304  -39.1493   -5.4294 C   0  0  0  0  0  0  0  0  0  0  0  0
  -21.5889  -40.2145   -5.2347 C   0  0  0  0  0  0  0  0  0  0  0  0
  -22.6564  -39.8593   -4.2612 C   0  0  0  0  0  0  0  0  0  0  0  0
  -22.7938  -40.7525   -3.0815 C   0  0  0  0  0  0  0  0  0  0  0  0
  -22.5462  -42.2047   -3.3201 C   0  0  0  0  0  0  0  0  0  0  0  0
  -23.4869  -42.8679   -4.2753 C   0  0  0  0  0  0  0  0  0  0  0  0
  -23.1392  -42.8042   -5.5990 O   0  0  0  0  0  0  0  0  0  0  0  0
  -22.1010  -43.6616   -5.9596 C   0  0  0  0  0  0  0  0  0  0  0  0
  -21.4501  -43.0708   -7.1551 C   0  0  0  0  0  0  0  0  0  0  0  0
  -22.2139  -42.4775   -7.9915 O   0  0  0  0  0  0  0  0  0  0  0  0
  -20.0871  -43.0964   -7.4616 N   0  0  0  0  0  0  0  0  0  0  0  0
  -19.6761  -43.0857   -8.8754 C   0  0  0  0  0  0  0  0  0  0  0  0
  -18.9941  -43.1355   -6.5100 C   0  0  1  0  0  0  0  0  0  0  0  0
  -18.8792  -44.6176   -6.1105 C   0  0  0  0  0  0  0  0  0  0  0  0
  -17.7172  -42.6544   -7.0892 C   0  0  0  0  0  0  0  0  0  0  0  0
  -16.6785  -43.3021   -6.6836 O   0  0  0  0  0  0  0  0  0  0  0  0
  -17.4946  -41.6250   -7.9883 N   0  0  0  0  0  0  0  0  0  0  0  0
  -17.8439  -40.2200   -7.9197 C   0  0  1  0  0  0  0  0  0  0  0  0
  -18.3939  -39.7729   -6.6213 C   0  0  0  0  0  0  0  0  0  0  0  0
  -16.5710  -39.4594   -8.2546 C   0  0  2  0  0  0  0  0  0  0  0  0
  -16.8284  -38.1966   -8.7588 O   0  0  0  0  0  0  0  0  0  0  0  0
  -15.5821  -40.2561   -9.0612 C   0  0  0  0  0  0  0  0  0  0  0  0
  -14.4601  -39.3724   -9.2995 N   0  0  0  0  0  0  0  0  0  0  0  0
  -13.5357  -39.8097  -10.2940 C   0  0  0  0  0  0  0  0  0  0  0  0
  -12.7959  -41.0771  -10.0202 C   0  0  0  0  0  0  0  0  0  0  0  0
  -13.9659  -41.1147  -10.9482 C   0  0  0  0  0  0  0  0  0  0  0  0
  -12.9326  -38.7908  -11.1992 C   0  0  0  0  0  0  0  0  0  0  0  0
  -13.6076  -37.5800  -11.3994 C   0  0  0  0  0  0  0  0  0  0  0  0
  -13.1061  -36.6043  -12.2314 C   0  0  0  0  0  0  0  0  0  0  0  0
  -11.9095  -36.8681  -12.8608 C   0  0  0  0  0  0  0  0  0  0  0  0
  -11.2329  -38.0506  -12.6769 C   0  0  0  0  0  0  0  0  0  0  0  0
  -11.7424  -39.0450  -11.8304 C   0  0  0  0  0  0  0  0  0  0  0  0
  -13.8109  -35.3206  -12.4503 C   0  0  0  0  0  0  0  0  0  0  0  0
  -15.0703  -35.2100  -11.6541 C   0  0  0  0  0  0  0  0  0  0  0  0
  -12.9307  -34.1318  -12.1267 C   0  0  0  0  0  0  0  0  0  0  0  0
  -14.1620  -35.2147  -13.9231 C   0  0  0  0  0  0  0  0  0  0  0  0
  2  1  1  6
  2  3  1  0
  3  4  1  0
  4  5  1  0
  5  6  1  0
  6  7  1  0
  7  8  1  0
  8  9  1  0
  9 10  1  0
 10 11  1  0
 11 12  2  0
 11 13  1  0
 13 14  1  0
 13 15  1  0
 15 16  1  6
 15 17  1  0
 17 18  2  0
 17 19  1  0
 19 20  1  0
 20 21  1  1
 20 22  1  0
 22 23  1  6
 22 24  1  0
 24 25  1  0
 25 26  1  0
 26 27  1  0
 27 28  1  0
 26 29  1  0
 29 30  2  0
 30 31  1  0
 31 32  2  0
 32 33  1  0
 33 34  2  0
 31 35  1  0
 35 36  1  0
 35 37  1  0
 35 38  1  0
 21  2  1  0
 28 26  1  0
 34 29  1  0
M  END
$$$$
