
     RDKit          3D

 38 40  0  0  0  0  0  0  0  0999 V2000
  -12.7616  -37.5566   -9.0337 C   0  0  0  0  0  0  0  0  0  0  0  0
  -13.3858  -38.4647  -10.0727 C   0  0  2  0  0  0  0  0  0  0  0  0
  -12.9265  -37.9628  -11.4335 C   0  0  0  0  0  0  0  0  0  0  0  0
  -12.2259  -39.1218  -12.1107 C   0  0  0  0  0  0  0  0  0  0  0  0
  -11.2971  -38.7327  -13.2058 C   0  0  0  0  0  0  0  0  0  0  0  0
  -11.6062  -39.2762  -14.5539 C   0  0  0  0  0  0  0  0  0  0  0  0
  -12.1666  -40.6587  -14.5961 C   0  0  0  0  0  0  0  0  0  0  0  0
  -11.2684  -41.7320  -14.0686 C   0  0  0  0  0  0  0  0  0  0  0  0
  -11.3436  -41.9665  -12.7208 O   0  0  0  0  0  0  0  0  0  0  0  0
  -12.4825  -42.6657  -12.3246 C   0  0  0  0  0  0  0  0  0  0  0  0
  -12.7353  -42.3088  -10.9066 C   0  0  0  0  0  0  0  0  0  0  0  0
  -11.7080  -42.1322  -10.1661 O   0  0  0  0  0  0  0  0  0  0  0  0
  -13.9817  -42.1460  -10.2964 N   0  0  0  0  0  0  0  0  0  0  0  0
  -14.1143  -42.4425   -8.8603 C   0  0  0  0  0  0  0  0  0  0  0  0
  -15.2022  -41.7041  -10.9421 C   0  0  1  0  0  0  0  0  0  0  0  0
  -15.7594  -42.9657  -11.6255 C   0  0  0  0  0  0  0  0  0  0  0  0
  -16.1890  -41.1566   -9.9810 C   0  0  0  0  0  0  0  0  0  0  0  0
  -17.4136  -41.4480  -10.2610 O   0  0  0  0  0  0  0  0  0  0  0  0
  -15.9771  -40.3909   -8.8467 N   0  0  0  0  0  0  0  0  0  0  0  0
  -15.3012  -39.1197   -8.6790 C   0  0  1  0  0  0  0  0  0  0  0  0
  -14.8997  -38.4519   -9.9364 C   0  0  0  0  0  0  0  0  0  0  0  0
  -16.2575  -38.2430   -7.8867 C   0  0  2  0  0  0  0  0  0  0  0  0
  -15.6552  -37.6731   -6.7787 O   0  0  0  0  0  0  0  0  0  0  0  0
  -17.5834  -38.8941   -7.6017 C   0  0  0  0  0  0  0  0  0  0  0  0
  -18.5904  -37.9124   -7.9466 N   0  0  0  0  0  0  0  0  0  0  0  0
  -19.7955  -38.4386   -8.4997 C   0  0  0  0  0  0  0  0  0  0  0  0
  -20.1244  -38.0465   -9.9021 C   0  0  0  0  0  0  0  0  0  0  0  0
  -19.5317  -39.3950   -9.6538 C   0  0  0  0  0  0  0  0  0  0  0  0
  -20.8950  -38.8218   -7.5695 C   0  0  0  0  0  0  0  0  0  0  0  0
  -21.3268  -40.1540   -7.5455 C   0  0  0  0  0  0  0  0  0  0  0  0
  -22.3448  -40.5667   -6.7152 C   0  0  0  0  0  0  0  0  0  0  0  0
  -22.9230  -39.6132   -5.9065 C   0  0  0  0  0  0  0  0  0  0  0  0
  -22.5128  -38.3011   -5.9166 C   0  0  0  0  0  0  0  0  0  0  0  0
  -21.4768  -37.8794   -6.7615 C   0  0  0  0  0  0  0  0  0  0  0  0
  -22.8093  -41.9722   -6.6813 C   0  0  0  0  0  0  0  0  0  0  0  0
  -24.2988  -42.0882   -6.6661 C   0  0  0  0  0  0  0  0  0  0  0  0
  -22.2762  -42.7707   -7.8523 C   0  0  0  0  0  0  0  0  0  0  0  0
  -22.2631  -42.6246   -5.4244 C   0  0  0  0  0  0  0  0  0  0  0  0
  2  1  1  1
  2  3  1  0
  3  4  1  0
  4  5  1  0
  5  6  1  0
  6  7  1  0
  7  8  1  0
  8  9  1  0
  9 10  1  0
 10 11  1  0
 11 12  2  0
 11 13  1  0
 13 14  1  0
 13 15  1  0
 15 16  1  1
 15 17  1  0
 17 18  2  0
 17 19  1  0
 19 20  1  0
 20 21  1  6
 20 22  1  0
 22 23  1  1
 22 24  1  0
 24 25  1  0
 25 26  1  0
 26 27  1  0
 27 28  1  0
 26 29  1  0
 29 30  2  0
 30 31  1  0
 31 32  2  0
 32 33  1  0
 33 34  2  0
 31 35  1  0
 35 36  1  0
 35 37  1  0
 35 38  1  0
 21  2  1  0
 28 26  1  0
 34 29  1  0
M  END
$$$$
