
     RDKit          3D

 38 40  0  0  0  0  0  0  0  0999 V2000
  -13.4442  -38.9958   -9.5296 C   0  0  0  0  0  0  0  0  0  0  0  0
  -14.0967  -40.1858  -10.2020 C   0  0  2  0  0  0  0  0  0  0  0  0
  -13.6752  -40.1551  -11.6636 C   0  0  0  0  0  0  0  0  0  0  0  0
  -12.9932  -41.4769  -11.9473 C   0  0  0  0  0  0  0  0  0  0  0  0
  -12.0952  -41.4711  -13.1334 C   0  0  0  0  0  0  0  0  0  0  0  0
  -12.4411  -42.4188  -14.2245 C   0  0  0  0  0  0  0  0  0  0  0  0
  -13.0021  -43.7357  -13.8022 C   0  0  0  0  0  0  0  0  0  0  0  0
  -12.0894  -44.5884  -12.9795 C   0  0  0  0  0  0  0  0  0  0  0  0
  -12.1273  -44.3735  -11.6269 O   0  0  0  0  0  0  0  0  0  0  0  0
  -13.2546  -44.8970  -10.9959 C   0  0  0  0  0  0  0  0  0  0  0  0
  -13.4683  -44.0984   -9.7637 C   0  0  0  0  0  0  0  0  0  0  0  0
  -12.4209  -43.7006   -9.1474 O   0  0  0  0  0  0  0  0  0  0  0  0
  -14.6974  -43.7362   -9.2065 N   0  0  0  0  0  0  0  0  0  0  0  0
  -14.7902  -43.5509   -7.7489 C   0  0  0  0  0  0  0  0  0  0  0  0
  -15.9354  -43.5164   -9.9283 C   0  0  1  0  0  0  0  0  0  0  0  0
  -16.5109  -44.9264  -10.1517 C   0  0  0  0  0  0  0  0  0  0  0  0
  -16.8955  -42.6788   -9.1706 C   0  0  0  0  0  0  0  0  0  0  0  0
  -18.1272  -43.0346   -9.3090 O   0  0  0  0  0  0  0  0  0  0  0  0
  -16.6525  -41.5892   -8.3512 N   0  0  0  0  0  0  0  0  0  0  0  0
  -15.9726  -40.3381   -8.6216 C   0  0  1  0  0  0  0  0  0  0  0  0
  -15.6062  -40.1164  -10.0376 C   0  0  0  0  0  0  0  0  0  0  0  0
  -16.9069  -39.2439   -8.1309 C   0  0  2  0  0  0  0  0  0  0  0  0
  -16.7272  -38.9599   -6.7884 O   0  0  0  0  0  0  0  0  0  0  0  0
  -18.3427  -39.4466   -8.5318 C   0  0  0  0  0  0  0  0  0  0  0  0
  -19.1065  -39.4181   -7.3020 N   0  0  0  0  0  0  0  0  0  0  0  0
  -20.0722  -38.3727   -7.2041 C   0  0  0  0  0  0  0  0  0  0  0  0
  -20.7211  -38.1728   -5.8746 C   0  0  0  0  0  0  0  0  0  0  0  0
  -19.6177  -37.2515   -6.2807 C   0  0  0  0  0  0  0  0  0  0  0  0
  -20.7909  -37.9526   -8.4402 C   0  0  0  0  0  0  0  0  0  0  0  0
  -21.3767  -38.9350   -9.2487 C   0  0  0  0  0  0  0  0  0  0  0  0
  -22.0451  -38.6100  -10.4078 C   0  0  0  0  0  0  0  0  0  0  0  0
  -22.1145  -37.2752  -10.7410 C   0  0  0  0  0  0  0  0  0  0  0  0
  -21.5455  -36.2971   -9.9602 C   0  0  0  0  0  0  0  0  0  0  0  0
  -20.8646  -36.6265   -8.7800 C   0  0  0  0  0  0  0  0  0  0  0  0
  -22.6682  -39.6399  -11.2700 C   0  0  0  0  0  0  0  0  0  0  0  0
  -21.8570  -40.8919  -11.3528 C   0  0  0  0  0  0  0  0  0  0  0  0
  -24.0622  -39.9997  -10.8010 C   0  0  0  0  0  0  0  0  0  0  0  0
  -22.8130  -39.0672  -12.6681 C   0  0  0  0  0  0  0  0  0  0  0  0
  2  1  1  1
  2  3  1  0
  3  4  1  0
  4  5  1  0
  5  6  1  0
  6  7  1  0
  7  8  1  0
  8  9  1  0
  9 10  1  0
 10 11  1  0
 11 12  2  0
 11 13  1  0
 13 14  1  0
 13 15  1  0
 15 16  1  1
 15 17  1  0
 17 18  2  0
 17 19  1  0
 19 20  1  0
 20 21  1  6
 20 22  1  0
 22 23  1  1
 22 24  1  0
 24 25  1  0
 25 26  1  0
 26 27  1  0
 27 28  1  0
 26 29  1  0
 29 30  2  0
 30 31  1  0
 31 32  2  0
 32 33  1  0
 33 34  2  0
 31 35  1  0
 35 36  1  0
 35 37  1  0
 35 38  1  0
 21  2  1  0
 28 26  1  0
 34 29  1  0
M  END
$$$$
