
     RDKit          3D

 38 40  0  0  0  0  0  0  0  0999 V2000
  -20.5826  -38.1502   -7.5180 C   0  0  0  0  0  0  0  0  0  0  0  0
  -20.2108  -39.5118   -6.9689 C   0  0  2  0  0  0  0  0  0  0  0  0
  -20.6349  -39.5315   -5.5080 C   0  0  0  0  0  0  0  0  0  0  0  0
  -21.5892  -40.6962   -5.3478 C   0  0  0  0  0  0  0  0  0  0  0  0
  -22.4804  -40.6107   -4.1596 C   0  0  0  0  0  0  0  0  0  0  0  0
  -22.3611  -41.7111   -3.1681 C   0  0  0  0  0  0  0  0  0  0  0  0
  -22.0914  -43.0712   -3.7200 C   0  0  0  0  0  0  0  0  0  0  0  0
  -23.1556  -43.6238   -4.6140 C   0  0  0  0  0  0  0  0  0  0  0  0
  -23.0546  -43.2933   -5.9398 O   0  0  0  0  0  0  0  0  0  0  0  0
  -22.0583  -43.9846   -6.6273 C   0  0  0  0  0  0  0  0  0  0  0  0
  -21.6614  -43.1362   -7.7783 C   0  0  0  0  0  0  0  0  0  0  0  0
  -22.5904  -42.4646   -8.3449 O   0  0  0  0  0  0  0  0  0  0  0  0
  -20.3759  -42.9958   -8.3076 N   0  0  0  0  0  0  0  0  0  0  0  0
  -20.2263  -42.6957   -9.7412 C   0  0  0  0  0  0  0  0  0  0  0  0
  -19.1293  -43.1185   -7.5778 C   0  0  1  0  0  0  0  0  0  0  0  0
  -18.8740  -44.6343   -7.4963 C   0  0  0  0  0  0  0  0  0  0  0  0
  -18.0014  -42.4389   -8.2587 C   0  0  0  0  0  0  0  0  0  0  0  0
  -16.8772  -43.0635   -8.1651 O   0  0  0  0  0  0  0  0  0  0  0  0
  -17.9932  -41.2490   -8.9670 N   0  0  0  0  0  0  0  0  0  0  0  0
  -18.3911  -39.9126   -8.5715 C   0  0  1  0  0  0  0  0  0  0  0  0
  -18.7197  -39.7542   -7.1379 C   0  0  0  0  0  0  0  0  0  0  0  0
  -17.2367  -39.0037   -8.9616 C   0  0  2  0  0  0  0  0  0  0  0  0
  -17.5727  -37.6633   -8.8881 O   0  0  0  0  0  0  0  0  0  0  0  0
  -16.5585  -39.4004  -10.2446 C   0  0  0  0  0  0  0  0  0  0  0  0
  -15.5330  -38.4047  -10.4763 N   0  0  0  0  0  0  0  0  0  0  0  0
  -14.9447  -38.4212  -11.7757 C   0  0  0  0  0  0  0  0  0  0  0  0
  -15.7000  -39.1285  -12.8518 C   0  0  0  0  0  0  0  0  0  0  0  0
  -15.7643  -37.6373  -12.7906 C   0  0  0  0  0  0  0  0  0  0  0  0
  -13.4645  -38.2884  -11.8862 C   0  0  0  0  0  0  0  0  0  0  0  0
  -12.7772  -37.5518  -10.9131 C   0  0  0  0  0  0  0  0  0  0  0  0
  -11.4114  -37.3851  -10.9666 C   0  0  0  0  0  0  0  0  0  0  0  0
  -10.7464  -37.9743  -12.0192 C   0  0  0  0  0  0  0  0  0  0  0  0
  -11.4038  -38.7006  -12.9837 C   0  0  0  0  0  0  0  0  0  0  0  0
  -12.7943  -38.8709  -12.9307 C   0  0  0  0  0  0  0  0  0  0  0  0
  -10.6745  -36.6088   -9.9436 C   0  0  0  0  0  0  0  0  0  0  0  0
   -9.2548  -37.0500   -9.7953 C   0  0  0  0  0  0  0  0  0  0  0  0
  -10.6886  -35.1247  -10.2437 C   0  0  0  0  0  0  0  0  0  0  0  0
  -11.3765  -36.7903   -8.6102 C   0  0  0  0  0  0  0  0  0  0  0  0
  2  1  1  1
  2  3  1  0
  3  4  1  0
  4  5  1  0
  5  6  1  0
  6  7  1  0
  7  8  1  0
  8  9  1  0
  9 10  1  0
 10 11  1  0
 11 12  2  0
 11 13  1  0
 13 14  1  0
 13 15  1  0
 15 16  1  6
 15 17  1  0
 17 18  2  0
 17 19  1  0
 19 20  1  0
 20 21  1  1
 20 22  1  0
 22 23  1  6
 22 24  1  0
 24 25  1  0
 25 26  1  0
 26 27  1  0
 27 28  1  0
 26 29  1  0
 29 30  2  0
 30 31  1  0
 31 32  2  0
 32 33  1  0
 33 34  2  0
 31 35  1  0
 35 36  1  0
 35 37  1  0
 35 38  1  0
 21  2  1  0
 28 26  1  0
 34 29  1  0
M  END
$$$$
