
     RDKit          3D

 38 40  0  0  0  0  0  0  0  0999 V2000
  -20.3963  -37.6575   -7.9424 C   0  0  0  0  0  0  0  0  0  0  0  0
  -20.0864  -39.0130   -7.3420 C   0  0  2  0  0  0  0  0  0  0  0  0
  -21.0509  -39.2152   -6.1829 C   0  0  0  0  0  0  0  0  0  0  0  0
  -21.8151  -40.4904   -6.4706 C   0  0  0  0  0  0  0  0  0  0  0  0
  -23.1088  -40.6165   -5.7467 C   0  0  0  0  0  0  0  0  0  0  0  0
  -23.2412  -41.7829   -4.8356 C   0  0  0  0  0  0  0  0  0  0  0  0
  -22.5848  -43.0470   -5.2813 C   0  0  0  0  0  0  0  0  0  0  0  0
  -23.1142  -43.6319   -6.5520 C   0  0  0  0  0  0  0  0  0  0  0  0
  -22.5402  -43.1712   -7.7076 O   0  0  0  0  0  0  0  0  0  0  0  0
  -21.2657  -43.6787   -7.9550 C   0  0  0  0  0  0  0  0  0  0  0  0
  -20.5665  -42.6883   -8.8107 C   0  0  0  0  0  0  0  0  0  0  0  0
  -21.2767  -42.0770   -9.6807 O   0  0  0  0  0  0  0  0  0  0  0  0
  -19.2104  -42.3548   -8.7639 N   0  0  0  0  0  0  0  0  0  0  0  0
  -18.5451  -41.9088   -9.9993 C   0  0  0  0  0  0  0  0  0  0  0  0
  -18.3548  -42.4021   -7.5945 C   0  0  1  0  0  0  0  0  0  0  0  0
  -17.9423  -43.8802   -7.4740 C   0  0  0  0  0  0  0  0  0  0  0  0
  -17.1571  -41.5392   -7.7297 C   0  0  0  0  0  0  0  0  0  0  0  0
  -16.0878  -42.0382   -7.2098 O   0  0  0  0  0  0  0  0  0  0  0  0
  -17.0348  -40.2958   -8.3270 N   0  0  0  0  0  0  0  0  0  0  0  0
  -17.7417  -39.0553   -8.0773 C   0  0  1  0  0  0  0  0  0  0  0  0
  -18.6339  -39.0681   -6.8974 C   0  0  0  0  0  0  0  0  0  0  0  0
  -16.6683  -37.9893   -7.9276 C   0  0  2  0  0  0  0  0  0  0  0  0
  -17.0427  -36.9829   -7.0547 O   0  0  0  0  0  0  0  0  0  0  0  0
  -16.1154  -37.4964   -9.2370 C   0  0  0  0  0  0  0  0  0  0  0  0
  -15.2995  -38.5746   -9.7550 N   0  0  0  0  0  0  0  0  0  0  0  0
  -14.5634  -38.2723  -10.9389 C   0  0  0  0  0  0  0  0  0  0  0  0
  -15.1775  -37.2966  -11.8873 C   0  0  0  0  0  0  0  0  0  0  0  0
  -14.0942  -36.8249  -10.9733 C   0  0  0  0  0  0  0  0  0  0  0  0
  -13.5995  -39.2858  -11.4534 C   0  0  0  0  0  0  0  0  0  0  0  0
  -13.4670  -40.5011  -10.7697 C   0  0  0  0  0  0  0  0  0  0  0  0
  -12.5862  -41.4723  -11.1903 C   0  0  0  0  0  0  0  0  0  0  0  0
  -11.8384  -41.1993  -12.3145 C   0  0  0  0  0  0  0  0  0  0  0  0
  -11.9544  -40.0123  -12.9982 C   0  0  0  0  0  0  0  0  0  0  0  0
  -12.8505  -39.0226  -12.5711 C   0  0  0  0  0  0  0  0  0  0  0  0
  -12.4380  -42.7606  -10.4756 C   0  0  0  0  0  0  0  0  0  0  0  0
  -12.2181  -42.5852   -9.0082 C   0  0  0  0  0  0  0  0  0  0  0  0
  -13.6396  -43.6594  -10.6784 C   0  0  0  0  0  0  0  0  0  0  0  0
  -11.2427  -43.4934  -11.0569 C   0  0  0  0  0  0  0  0  0  0  0  0
  2  1  1  1
  2  3  1  0
  3  4  1  0
  4  5  1  0
  5  6  1  0
  6  7  1  0
  7  8  1  0
  8  9  1  0
  9 10  1  0
 10 11  1  0
 11 12  2  0
 11 13  1  0
 13 14  1  0
 13 15  1  0
 15 16  1  6
 15 17  1  0
 17 18  2  0
 17 19  1  0
 19 20  1  0
 20 21  1  1
 20 22  1  0
 22 23  1  6
 22 24  1  0
 24 25  1  0
 25 26  1  0
 26 27  1  0
 27 28  1  0
 26 29  1  0
 29 30  2  0
 30 31  1  0
 31 32  2  0
 32 33  1  0
 33 34  2  0
 31 35  1  0
 35 36  1  0
 35 37  1  0
 35 38  1  0
 21  2  1  0
 28 26  1  0
 34 29  1  0
M  END
$$$$
