
     RDKit          3D

 38 40  0  0  0  0  0  0  0  0999 V2000
  -20.2831  -38.0335   -7.8940 C   0  0  0  0  0  0  0  0  0  0  0  0
  -20.0816  -39.3069   -7.0992 C   0  0  2  0  0  0  0  0  0  0  0  0
  -20.9860  -39.2158   -5.8792 C   0  0  0  0  0  0  0  0  0  0  0  0
  -21.8986  -40.4233   -5.9232 C   0  0  0  0  0  0  0  0  0  0  0  0
  -23.1493  -40.2865   -5.1292 C   0  0  0  0  0  0  0  0  0  0  0  0
  -23.3466  -41.2756   -4.0379 C   0  0  0  0  0  0  0  0  0  0  0  0
  -22.8584  -42.6603   -4.3053 C   0  0  0  0  0  0  0  0  0  0  0  0
  -23.5273  -43.3689   -5.4400 C   0  0  0  0  0  0  0  0  0  0  0  0
  -22.9827  -43.1610   -6.6798 O   0  0  0  0  0  0  0  0  0  0  0  0
  -21.7879  -43.8440   -6.9016 C   0  0  0  0  0  0  0  0  0  0  0  0
  -21.0434  -43.0844   -7.9364 C   0  0  0  0  0  0  0  0  0  0  0  0
  -21.7387  -42.5367   -8.8592 O   0  0  0  0  0  0  0  0  0  0  0  0
  -19.6593  -42.9063   -8.0066 N   0  0  0  0  0  0  0  0  0  0  0  0
  -19.0307  -42.7356   -9.3270 C   0  0  0  0  0  0  0  0  0  0  0  0
  -18.7406  -42.8713   -6.8857 C   0  0  1  0  0  0  0  0  0  0  0  0
  -18.4810  -44.3507   -6.5493 C   0  0  0  0  0  0  0  0  0  0  0  0
  -17.4689  -42.1833   -7.2128 C   0  0  0  0  0  0  0  0  0  0  0  0
  -16.4278  -42.7162   -6.6698 O   0  0  0  0  0  0  0  0  0  0  0  0
  -17.2533  -41.0692   -8.0065 N   0  0  0  0  0  0  0  0  0  0  0  0
  -17.8066  -39.7320   -7.9262 C   0  0  1  0  0  0  0  0  0  0  0  0
  -18.6178  -39.4600   -6.7194 C   0  0  0  0  0  0  0  0  0  0  0  0
  -16.6184  -38.7866   -7.9992 C   0  0  2  0  0  0  0  0  0  0  0  0
  -16.9415  -37.5017   -7.5993 O   0  0  0  0  0  0  0  0  0  0  0  0
  -15.8654  -38.8571   -9.2996 C   0  0  0  0  0  0  0  0  0  0  0  0
  -14.8542  -39.8776   -9.1184 N   0  0  0  0  0  0  0  0  0  0  0  0
  -13.7831  -39.8535  -10.0603 C   0  0  0  0  0  0  0  0  0  0  0  0
  -12.9230  -41.0711  -10.1387 C   0  0  0  0  0  0  0  0  0  0  0  0
  -13.9753  -40.8672  -11.1791 C   0  0  0  0  0  0  0  0  0  0  0  0
  -13.2212  -38.5329  -10.4621 C   0  0  0  0  0  0  0  0  0  0  0  0
  -13.5846  -37.9925  -11.7022 C   0  0  0  0  0  0  0  0  0  0  0  0
  -13.0909  -36.7816  -12.1332 C   0  0  0  0  0  0  0  0  0  0  0  0
  -12.2222  -36.1211  -11.2925 C   0  0  0  0  0  0  0  0  0  0  0  0
  -11.8538  -36.6359  -10.0722 C   0  0  0  0  0  0  0  0  0  0  0  0
  -12.3555  -37.8687   -9.6322 C   0  0  0  0  0  0  0  0  0  0  0  0
  -13.4682  -36.2007  -13.4418 C   0  0  0  0  0  0  0  0  0  0  0  0
  -12.5095  -36.5581  -14.5306 C   0  0  0  0  0  0  0  0  0  0  0  0
  -14.8587  -36.6238  -13.8666 C   0  0  0  0  0  0  0  0  0  0  0  0
  -13.4962  -34.6896  -13.3023 C   0  0  0  0  0  0  0  0  0  0  0  0
  2  1  1  1
  2  3  1  0
  3  4  1  0
  4  5  1  0
  5  6  1  0
  6  7  1  0
  7  8  1  0
  8  9  1  0
  9 10  1  0
 10 11  1  0
 11 12  2  0
 11 13  1  0
 13 14  1  0
 13 15  1  0
 15 16  1  6
 15 17  1  0
 17 18  2  0
 17 19  1  0
 19 20  1  0
 20 21  1  1
 20 22  1  0
 22 23  1  6
 22 24  1  0
 24 25  1  0
 25 26  1  0
 26 27  1  0
 27 28  1  0
 26 29  1  0
 29 30  2  0
 30 31  1  0
 31 32  2  0
 32 33  1  0
 33 34  2  0
 31 35  1  0
 35 36  1  0
 35 37  1  0
 35 38  1  0
 21  2  1  0
 28 26  1  0
 34 29  1  0
M  END
$$$$
