
     RDKit          3D

 42 46  0  0  0  0  0  0  0  0999 V2000
  -12.2245  -35.0914  -12.1099 C   0  0  0  0  0  0  0  0  0  0  0  0
  -11.4888  -36.1767  -11.3940 C   0  0  0  0  0  0  0  0  0  0  0  0
  -10.1195  -36.3675  -12.0715 C   0  0  0  0  0  0  0  0  0  0  0  0
  -12.2190  -37.4761  -11.3818 C   0  0  0  0  0  0  0  0  0  0  0  0
  -12.7310  -37.9914  -10.1840 C   0  0  0  0  0  0  0  0  0  0  0  0
  -13.4220  -39.1713  -10.1574 C   0  0  0  0  0  0  0  0  0  0  0  0
  -13.5967  -39.8338  -11.3383 C   0  0  0  0  0  0  0  0  0  0  0  0
  -13.1042  -39.3531  -12.5333 C   0  0  0  0  0  0  0  0  0  0  0  0
  -12.3995  -38.1471  -12.5587 C   0  0  0  0  0  0  0  0  0  0  0  0
  -13.9579  -39.6853   -8.8654 C   0  0  0  0  0  0  0  0  0  0  0  0
  -13.1719  -40.8604   -8.2638 C   0  0  0  0  0  0  0  0  0  0  0  0
  -14.5340  -41.0454   -8.8555 C   0  0  0  0  0  0  0  0  0  0  0  0
  -14.3401  -38.7266   -7.8542 N   0  0  0  0  0  0  0  0  0  0  0  0
  -15.6409  -38.1885   -8.0558 C   0  0  0  0  0  0  0  0  0  0  0  0
  -16.6760  -38.6435   -7.0274 C   0  0  1  0  0  0  0  0  0  0  0  0
  -17.6046  -37.6247   -6.8035 O   0  0  0  0  0  0  0  0  0  0  0  0
  -17.3844  -39.8009   -7.6530 C   0  0  2  0  0  0  0  0  0  0  0  0
  -17.9826  -40.7995   -6.7370 C   0  0  0  0  0  0  0  0  0  0  0  0
  -19.3172  -40.4803   -6.1329 C   0  0  0  0  0  0  0  0  0  0  0  0
  -20.5262  -40.2506   -6.7195 C   0  0  0  0  0  0  0  0  0  0  0  0
  -21.6212  -39.9849   -5.9193 C   0  0  0  0  0  0  0  0  0  0  0  0
  -21.4563  -39.9572   -4.5212 C   0  0  0  0  0  0  0  0  0  0  0  0
  -20.2673  -40.1803   -3.8821 C   0  0  0  0  0  0  0  0  0  0  0  0
  -19.2172  -40.4399   -4.7285 C   0  0  0  0  0  0  0  0  0  0  0  0
  -22.9195  -39.7277   -6.2894 O   0  0  0  0  0  0  0  0  0  0  0  0
  -23.9363  -40.2829   -7.0165 C   0  0  0  0  0  0  0  0  0  0  0  0
  -23.9619  -39.9844   -8.4788 C   0  0  0  0  0  0  0  0  0  0  0  0
  -23.4618  -41.0364   -9.3879 C   0  0  0  0  0  0  0  0  0  0  0  0
  -22.7365  -40.5261  -10.6042 C   0  0  0  0  0  0  0  0  0  0  0  0
  -21.8639  -41.5909  -11.0645 N   0  0  0  0  0  0  0  0  0  0  0  0
  -20.5670  -42.0088  -10.6323 C   0  0  0  0  0  0  0  0  0  0  0  0
  -20.5410  -43.4300  -10.5799 C   0  0  0  0  0  0  0  0  0  0  0  0
  -19.4507  -44.1560  -10.1992 C   0  0  0  0  0  0  0  0  0  0  0  0
  -18.3499  -43.4184   -9.8600 C   0  0  0  0  0  0  0  0  0  0  0  0
  -18.3147  -41.9982   -9.8925 C   0  0  0  0  0  0  0  0  0  0  0  0
  -19.4400  -41.3022  -10.2851 C   0  0  0  0  0  0  0  0  0  0  0  0
  -16.9829  -41.5352   -9.4690 C   0  0  0  0  0  0  0  0  0  0  0  0
  -15.9581  -42.2249   -9.9307 O   0  0  0  0  0  0  0  0  0  0  0  0
  -16.5451  -40.4830   -8.6479 N   0  0  0  0  0  0  0  0  0  0  0  0
  -19.4616  -45.6147  -10.1656 C   0  0  0  0  0  0  0  0  0  0  0  0
  -18.2229  -46.4157  -10.2306 C   0  0  0  0  0  0  0  0  0  0  0  0
  -20.6094  -46.1636  -10.0754 O   0  0  0  0  0  0  0  0  0  0  0  0
  1  2  1  0
  2  3  1  0
  2  4  1  0
  4  5  2  0
  5  6  1  0
  6  7  2  0
  7  8  1  0
  8  9  2  0
  6 10  1  0
 10 11  1  0
 11 12  1  0
 10 13  1  0
 13 14  1  0
 14 15  1  0
 15 16  1  6
 15 17  1  0
 17 18  1  1
 18 19  1  0
 19 20  2  0
 20 21  1  0
 21 22  2  0
 22 23  1  0
 23 24  2  0
 21 25  1  0
 25 26  1  0
 26 27  1  0
 27 28  1  0
 28 29  1  0
 29 30  1  0
 30 31  1  0
 31 32  2  0
 32 33  1  0
 33 34  2  0
 34 35  1  0
 35 36  2  0
 35 37  1  0
 37 38  2  0
 37 39  1  0
 33 40  1  0
 40 41  1  0
 40 42  2  0
  9  4  1  0
 12 10  1  0
 24 19  1  0
 36 31  1  0
 39 17  1  0
M  END
$$$$
