
     RDKit          3D

 42 46  0  0  0  0  0  0  0  0999 V2000
  -24.5069  -40.8750   -4.1519 C   0  0  0  0  0  0  0  0  0  0  0  0
  -24.0961  -40.6066   -5.5630 C   0  0  0  0  0  0  0  0  0  0  0  0
  -24.0773  -41.9421   -6.3286 C   0  0  0  0  0  0  0  0  0  0  0  0
  -22.7604  -39.9544   -5.6749 C   0  0  0  0  0  0  0  0  0  0  0  0
  -21.5918  -40.7269   -5.6834 C   0  0  0  0  0  0  0  0  0  0  0  0
  -20.3593  -40.1473   -5.8068 C   0  0  0  0  0  0  0  0  0  0  0  0
  -20.3033  -38.7879   -5.9207 C   0  0  0  0  0  0  0  0  0  0  0  0
  -21.4352  -38.0003   -5.9148 C   0  0  0  0  0  0  0  0  0  0  0  0
  -22.6935  -38.5943   -5.7896 C   0  0  0  0  0  0  0  0  0  0  0  0
  -19.1383  -41.0016   -5.8186 C   0  0  0  0  0  0  0  0  0  0  0  0
  -19.0980  -42.0523   -6.9390 C   0  0  0  0  0  0  0  0  0  0  0  0
  -19.3031  -42.4360   -5.5071 C   0  0  0  0  0  0  0  0  0  0  0  0
  -17.8548  -40.3620   -5.6415 N   0  0  0  0  0  0  0  0  0  0  0  0
  -17.7931  -39.0620   -6.2147 C   0  0  0  0  0  0  0  0  0  0  0  0
  -18.3906  -38.9646   -7.6180 C   0  0  1  0  0  0  0  0  0  0  0  0
  -18.3164  -37.6476   -8.0768 O   0  0  0  0  0  0  0  0  0  0  0  0
  -17.5235  -39.8178   -8.4858 C   0  0  2  0  0  0  0  0  0  0  0  0
  -17.8932  -39.9177   -9.9167 C   0  0  0  0  0  0  0  0  0  0  0  0
  -17.4742  -38.8005  -10.8247 C   0  0  0  0  0  0  0  0  0  0  0  0
  -16.2341  -38.3348  -11.1472 C   0  0  0  0  0  0  0  0  0  0  0  0
  -16.1222  -37.2810  -12.0341 C   0  0  0  0  0  0  0  0  0  0  0  0
  -17.2923  -36.7172  -12.5780 C   0  0  0  0  0  0  0  0  0  0  0  0
  -18.5591  -37.1455  -12.2888 C   0  0  0  0  0  0  0  0  0  0  0  0
  -18.6065  -38.1948  -11.4036 C   0  0  0  0  0  0  0  0  0  0  0  0
  -14.9878  -36.6581  -12.4969 O   0  0  0  0  0  0  0  0  0  0  0  0
  -13.8100  -36.9498  -13.1279 C   0  0  0  0  0  0  0  0  0  0  0  0
  -12.6620  -37.3520  -12.2626 C   0  0  0  0  0  0  0  0  0  0  0  0
  -12.3525  -38.7947  -12.1850 C   0  0  0  0  0  0  0  0  0  0  0  0
  -11.8642  -39.2634  -10.8405 C   0  0  0  0  0  0  0  0  0  0  0  0
  -12.1377  -40.6864  -10.7543 N   0  0  0  0  0  0  0  0  0  0  0  0
  -13.3277  -41.4058  -10.4229 C   0  0  0  0  0  0  0  0  0  0  0  0
  -13.4662  -42.4963  -11.3255 C   0  0  0  0  0  0  0  0  0  0  0  0
  -14.5014  -43.3840  -11.2909 C   0  0  0  0  0  0  0  0  0  0  0  0
  -15.4275  -43.1600  -10.3095 C   0  0  0  0  0  0  0  0  0  0  0  0
  -15.3436  -42.0891   -9.3792 C   0  0  0  0  0  0  0  0  0  0  0  0
  -14.2786  -41.2141   -9.4487 C   0  0  0  0  0  0  0  0  0  0  0  0
  -16.4988  -42.1451   -8.4681 C   0  0  0  0  0  0  0  0  0  0  0  0
  -16.8478  -43.3466   -8.0516 O   0  0  0  0  0  0  0  0  0  0  0  0
  -17.3462  -41.1649   -7.9260 N   0  0  0  0  0  0  0  0  0  0  0  0
  -14.6040  -44.4953  -12.2309 C   0  0  0  0  0  0  0  0  0  0  0  0
  -15.6597  -45.5225  -12.1277 C   0  0  0  0  0  0  0  0  0  0  0  0
  -13.7248  -44.5298  -13.1542 O   0  0  0  0  0  0  0  0  0  0  0  0
  1  2  1  0
  2  3  1  0
  2  4  1  0
  4  5  2  0
  5  6  1  0
  6  7  2  0
  7  8  1  0
  8  9  2  0
  6 10  1  0
 10 11  1  0
 11 12  1  0
 10 13  1  0
 13 14  1  0
 14 15  1  0
 15 16  1  6
 15 17  1  0
 17 18  1  6
 18 19  1  0
 19 20  2  0
 20 21  1  0
 21 22  2  0
 22 23  1  0
 23 24  2  0
 21 25  1  0
 25 26  1  0
 26 27  1  0
 27 28  1  0
 28 29  1  0
 29 30  1  0
 30 31  1  0
 31 32  2  0
 32 33  1  0
 33 34  2  0
 34 35  1  0
 35 36  2  0
 35 37  1  0
 37 38  2  0
 37 39  1  0
 33 40  1  0
 40 41  1  0
 40 42  2  0
  9  4  1  0
 12 10  1  0
 24 19  1  0
 36 31  1  0
 39 17  1  0
M  END
$$$$
