
     RDKit          3D

 42 46  0  0  0  0  0  0  0  0999 V2000
  -24.4797  -41.0160   -5.2876 C   0  0  0  0  0  0  0  0  0  0  0  0
  -24.4556  -41.2893   -6.7561 C   0  0  0  0  0  0  0  0  0  0  0  0
  -24.3339  -42.8093   -6.9681 C   0  0  0  0  0  0  0  0  0  0  0  0
  -23.3405  -40.6008   -7.4664 C   0  0  0  0  0  0  0  0  0  0  0  0
  -22.1540  -40.2885   -6.7903 C   0  0  0  0  0  0  0  0  0  0  0  0
  -21.1125  -39.6763   -7.4314 C   0  0  0  0  0  0  0  0  0  0  0  0
  -21.2664  -39.3773   -8.7546 C   0  0  0  0  0  0  0  0  0  0  0  0
  -22.4220  -39.6710   -9.4473 C   0  0  0  0  0  0  0  0  0  0  0  0
  -23.4844  -40.2973   -8.7911 C   0  0  0  0  0  0  0  0  0  0  0  0
  -19.8628  -39.3653   -6.6814 C   0  0  0  0  0  0  0  0  0  0  0  0
  -19.6057  -40.2595   -5.4588 C   0  0  0  0  0  0  0  0  0  0  0  0
  -20.0014  -38.8235   -5.3143 C   0  0  0  0  0  0  0  0  0  0  0  0
  -18.6526  -39.1335   -7.4360 N   0  0  0  0  0  0  0  0  0  0  0  0
  -17.6232  -38.5213   -6.6694 C   0  0  0  0  0  0  0  0  0  0  0  0
  -16.4772  -37.9461   -7.5012 C   0  0  1  0  0  0  0  0  0  0  0  0
  -15.3732  -37.6971   -6.6829 O   0  0  0  0  0  0  0  0  0  0  0  0
  -16.1110  -39.0161   -8.4778 C   0  0  2  0  0  0  0  0  0  0  0  0
  -16.7347  -38.9456   -9.8195 C   0  0  0  0  0  0  0  0  0  0  0  0
  -16.1293  -38.0088  -10.8215 C   0  0  0  0  0  0  0  0  0  0  0  0
  -14.8807  -37.9778  -11.3679 C   0  0  0  0  0  0  0  0  0  0  0  0
  -14.5771  -36.9982  -12.2942 C   0  0  0  0  0  0  0  0  0  0  0  0
  -15.5657  -36.0591  -12.6457 C   0  0  0  0  0  0  0  0  0  0  0  0
  -16.8323  -36.0450  -12.1286 C   0  0  0  0  0  0  0  0  0  0  0  0
  -17.0748  -37.0419  -11.2153 C   0  0  0  0  0  0  0  0  0  0  0  0
  -13.3980  -36.7797  -12.9656 O   0  0  0  0  0  0  0  0  0  0  0  0
  -12.5145  -37.4321  -13.7807 C   0  0  0  0  0  0  0  0  0  0  0  0
  -11.4366  -38.2207  -13.1142 C   0  0  0  0  0  0  0  0  0  0  0  0
  -11.6206  -39.6851  -13.0450 C   0  0  0  0  0  0  0  0  0  0  0  0
  -11.0927  -40.3283  -11.7907 C   0  0  0  0  0  0  0  0  0  0  0  0
  -11.8084  -41.5787  -11.6129 N   0  0  0  0  0  0  0  0  0  0  0  0
  -13.0942  -41.8657  -11.0583 C   0  0  0  0  0  0  0  0  0  0  0  0
  -13.7448  -42.8204  -11.8880 C   0  0  0  0  0  0  0  0  0  0  0  0
  -14.9952  -43.3094  -11.6467 C   0  0  0  0  0  0  0  0  0  0  0  0
  -15.6075  -42.8152  -10.5279 C   0  0  0  0  0  0  0  0  0  0  0  0
  -15.0093  -41.8614   -9.6609 C   0  0  0  0  0  0  0  0  0  0  0  0
  -13.7416  -41.3934   -9.9412 C   0  0  0  0  0  0  0  0  0  0  0  0
  -15.9398  -41.5519   -8.5627 C   0  0  0  0  0  0  0  0  0  0  0  0
  -16.5939  -42.5777   -8.0539 O   0  0  0  0  0  0  0  0  0  0  0  0
  -16.3018  -40.3597   -7.9141 N   0  0  0  0  0  0  0  0  0  0  0  0
  -15.6259  -44.2947  -12.5188 C   0  0  0  0  0  0  0  0  0  0  0  0
  -16.8831  -44.9797  -12.1575 C   0  0  0  0  0  0  0  0  0  0  0  0
  -15.0267  -44.5325  -13.6193 O   0  0  0  0  0  0  0  0  0  0  0  0
  1  2  1  0
  2  3  1  0
  2  4  1  0
  4  5  2  0
  5  6  1  0
  6  7  2  0
  7  8  1  0
  8  9  2  0
  6 10  1  0
 10 11  1  0
 11 12  1  0
 10 13  1  0
 13 14  1  0
 14 15  1  0
 15 16  1  1
 15 17  1  0
 17 18  1  6
 18 19  1  0
 19 20  2  0
 20 21  1  0
 21 22  2  0
 22 23  1  0
 23 24  2  0
 21 25  1  0
 25 26  1  0
 26 27  1  0
 27 28  1  0
 28 29  1  0
 29 30  1  0
 30 31  1  0
 31 32  2  0
 32 33  1  0
 33 34  2  0
 34 35  1  0
 35 36  2  0
 35 37  1  0
 37 38  2  0
 37 39  1  0
 33 40  1  0
 40 41  1  0
 40 42  2  0
  9  4  1  0
 12 10  1  0
 24 19  1  0
 36 31  1  0
 39 17  1  0
M  END
$$$$
