
     RDKit          3D

 42 46  0  0  0  0  0  0  0  0999 V2000
  -22.1095  -42.5916   -8.9773 C   0  0  0  0  0  0  0  0  0  0  0  0
  -23.1380  -41.6436   -8.4528 C   0  0  0  0  0  0  0  0  0  0  0  0
  -23.1861  -40.4142   -9.3782 C   0  0  0  0  0  0  0  0  0  0  0  0
  -22.8728  -41.1993   -7.0549 C   0  0  0  0  0  0  0  0  0  0  0  0
  -21.6646  -40.5706   -6.7271 C   0  0  0  0  0  0  0  0  0  0  0  0
  -21.4129  -40.1373   -5.4545 C   0  0  0  0  0  0  0  0  0  0  0  0
  -22.3787  -40.3382   -4.5106 C   0  0  0  0  0  0  0  0  0  0  0  0
  -23.5775  -40.9544   -4.8019 C   0  0  0  0  0  0  0  0  0  0  0  0
  -23.8331  -41.3955   -6.1026 C   0  0  0  0  0  0  0  0  0  0  0  0
  -20.1188  -39.4666   -5.1442 C   0  0  0  0  0  0  0  0  0  0  0  0
  -19.0920  -40.3513   -4.4205 C   0  0  0  0  0  0  0  0  0  0  0  0
  -19.7943  -39.2288   -3.7230 C   0  0  0  0  0  0  0  0  0  0  0  0
  -19.4995  -38.6658   -6.1752 N   0  0  0  0  0  0  0  0  0  0  0  0
  -18.0915  -38.5427   -6.0187 C   0  0  0  0  0  0  0  0  0  0  0  0
  -17.3494  -38.1464   -7.2947 C   0  0  1  0  0  0  0  0  0  0  0  0
  -15.9885  -37.9874   -7.0242 O   0  0  0  0  0  0  0  0  0  0  0  0
  -17.5144  -39.2985   -8.2318 C   0  0  2  0  0  0  0  0  0  0  0  0
  -17.7104  -38.9785   -9.6648 C   0  0  0  0  0  0  0  0  0  0  0  0
  -16.4934  -38.6608  -10.4810 C   0  0  0  0  0  0  0  0  0  0  0  0
  -15.3949  -39.4150  -10.7693 C   0  0  0  0  0  0  0  0  0  0  0  0
  -14.4032  -38.8790  -11.5686 C   0  0  0  0  0  0  0  0  0  0  0  0
  -14.5549  -37.5684  -12.0608 C   0  0  0  0  0  0  0  0  0  0  0  0
  -15.6353  -36.7697  -11.8025 C   0  0  0  0  0  0  0  0  0  0  0  0
  -16.5871  -37.3567  -11.0049 C   0  0  0  0  0  0  0  0  0  0  0  0
  -13.2246  -39.4512  -11.9836 O   0  0  0  0  0  0  0  0  0  0  0  0
  -12.7671  -40.5603  -12.6404 C   0  0  0  0  0  0  0  0  0  0  0  0
  -12.5151  -41.7780  -11.8147 C   0  0  0  0  0  0  0  0  0  0  0  0
  -13.5404  -42.8410  -11.8551 C   0  0  0  0  0  0  0  0  0  0  0  0
  -13.7428  -43.5716  -10.5547 C   0  0  0  0  0  0  0  0  0  0  0  0
  -15.0780  -44.1405  -10.5828 N   0  0  0  0  0  0  0  0  0  0  0  0
  -16.3590  -43.5695  -10.3063 C   0  0  0  0  0  0  0  0  0  0  0  0
  -17.2796  -44.0178  -11.2936 C   0  0  0  0  0  0  0  0  0  0  0  0
  -18.5940  -43.6544  -11.3270 C   0  0  0  0  0  0  0  0  0  0  0  0
  -18.9896  -42.8088  -10.3273 C   0  0  0  0  0  0  0  0  0  0  0  0
  -18.1176  -42.3275   -9.3138 C   0  0  0  0  0  0  0  0  0  0  0  0
  -16.7948  -42.7209   -9.3163 C   0  0  0  0  0  0  0  0  0  0  0  0
  -18.8682  -41.4442   -8.4060 C   0  0  0  0  0  0  0  0  0  0  0  0
  -20.0838  -41.8431   -8.0867 O   0  0  0  0  0  0  0  0  0  0  0  0
  -18.5659  -40.2219   -7.7833 N   0  0  0  0  0  0  0  0  0  0  0  0
  -19.5092  -44.1423  -12.3534 C   0  0  0  0  0  0  0  0  0  0  0  0
  -20.9325  -43.7510  -12.3933 C   0  0  0  0  0  0  0  0  0  0  0  0
  -19.0074  -44.9308  -13.2212 O   0  0  0  0  0  0  0  0  0  0  0  0
  1  2  1  0
  2  3  1  0
  2  4  1  0
  4  5  2  0
  5  6  1  0
  6  7  2  0
  7  8  1  0
  8  9  2  0
  6 10  1  0
 10 11  1  0
 11 12  1  0
 10 13  1  0
 13 14  1  0
 14 15  1  0
 15 16  1  1
 15 17  1  0
 17 18  1  6
 18 19  1  0
 19 20  2  0
 20 21  1  0
 21 22  2  0
 22 23  1  0
 23 24  2  0
 21 25  1  0
 25 26  1  0
 26 27  1  0
 27 28  1  0
 28 29  1  0
 29 30  1  0
 30 31  1  0
 31 32  2  0
 32 33  1  0
 33 34  2  0
 34 35  1  0
 35 36  2  0
 35 37  1  0
 37 38  2  0
 37 39  1  0
 33 40  1  0
 40 41  1  0
 40 42  2  0
  9  4  1  0
 12 10  1  0
 24 19  1  0
 36 31  1  0
 39 17  1  0
M  END
$$$$
