
     RDKit          3D

 42 46  0  0  0  0  0  0  0  0999 V2000
  -24.9544  -38.5310   -5.8622 C   0  0  0  0  0  0  0  0  0  0  0  0
  -24.5326  -39.3352   -7.0484 C   0  0  0  0  0  0  0  0  0  0  0  0
  -25.1491  -40.7409   -6.9297 C   0  0  0  0  0  0  0  0  0  0  0  0
  -23.0530  -39.4548   -7.1845 C   0  0  0  0  0  0  0  0  0  0  0  0
  -22.2554  -39.7115   -6.0619 C   0  0  0  0  0  0  0  0  0  0  0  0
  -20.8988  -39.8455   -6.1713 C   0  0  0  0  0  0  0  0  0  0  0  0
  -20.3445  -39.7198   -7.4126 C   0  0  0  0  0  0  0  0  0  0  0  0
  -21.1025  -39.4664   -8.5364 C   0  0  0  0  0  0  0  0  0  0  0  0
  -22.4882  -39.3308   -8.4228 C   0  0  0  0  0  0  0  0  0  0  0  0
  -20.0830  -40.1250   -4.9559 C   0  0  0  0  0  0  0  0  0  0  0  0
  -20.8830  -40.6293   -3.7450 C   0  0  0  0  0  0  0  0  0  0  0  0
  -20.2881  -39.2565   -3.7788 C   0  0  0  0  0  0  0  0  0  0  0  0
  -18.8444  -40.8515   -5.1163 N   0  0  0  0  0  0  0  0  0  0  0  0
  -17.9032  -40.1783   -5.9429 C   0  0  0  0  0  0  0  0  0  0  0  0
  -18.2894  -40.1248   -7.4207 C   0  0  1  0  0  0  0  0  0  0  0  0
  -17.1897  -39.7311   -8.1863 O   0  0  0  0  0  0  0  0  0  0  0  0
  -18.6495  -41.5260   -7.7946 C   0  0  2  0  0  0  0  0  0  0  0  0
  -19.5774  -41.7014   -8.9358 C   0  0  0  0  0  0  0  0  0  0  0  0
  -19.0045  -41.6208  -10.3190 C   0  0  0  0  0  0  0  0  0  0  0  0
  -18.0568  -42.3837  -10.9343 C   0  0  0  0  0  0  0  0  0  0  0  0
  -17.7117  -42.1004  -12.2421 C   0  0  0  0  0  0  0  0  0  0  0  0
  -18.3475  -41.0307  -12.9011 C   0  0  0  0  0  0  0  0  0  0  0  0
  -19.3034  -40.2349  -12.3312 C   0  0  0  0  0  0  0  0  0  0  0  0
  -19.6050  -40.5652  -11.0325 C   0  0  0  0  0  0  0  0  0  0  0  0
  -16.7946  -42.7299  -13.0493 O   0  0  0  0  0  0  0  0  0  0  0  0
  -16.4982  -43.9738  -13.5343 C   0  0  0  0  0  0  0  0  0  0  0  0
  -15.6341  -44.8427  -12.6819 C   0  0  0  0  0  0  0  0  0  0  0  0
  -16.3080  -45.9000  -11.9002 C   0  0  0  0  0  0  0  0  0  0  0  0
  -15.6991  -46.1714  -10.5506 C   0  0  0  0  0  0  0  0  0  0  0  0
  -16.7313  -46.7705   -9.7242 N   0  0  0  0  0  0  0  0  0  0  0  0
  -17.8023  -46.1917   -8.9752 C   0  0  0  0  0  0  0  0  0  0  0  0
  -18.9727  -46.9749   -9.1753 C   0  0  0  0  0  0  0  0  0  0  0  0
  -20.1803  -46.6949   -8.6059 C   0  0  0  0  0  0  0  0  0  0  0  0
  -20.2038  -45.5847   -7.8072 C   0  0  0  0  0  0  0  0  0  0  0  0
  -19.0687  -44.7637   -7.5690 C   0  0  0  0  0  0  0  0  0  0  0  0
  -17.8652  -45.0834   -8.1640 C   0  0  0  0  0  0  0  0  0  0  0  0
  -19.4462  -43.6621   -6.6680 C   0  0  0  0  0  0  0  0  0  0  0  0
  -20.2427  -43.9822   -5.6671 O   0  0  0  0  0  0  0  0  0  0  0  0
  -19.1366  -42.2923   -6.6392 N   0  0  0  0  0  0  0  0  0  0  0  0
  -21.3570  -47.5281   -8.8302 C   0  0  0  0  0  0  0  0  0  0  0  0
  -22.5117  -47.5287   -7.9099 C   0  0  0  0  0  0  0  0  0  0  0  0
  -21.3328  -48.2608   -9.8739 O   0  0  0  0  0  0  0  0  0  0  0  0
  1  2  1  0
  2  3  1  0
  2  4  1  0
  4  5  2  0
  5  6  1  0
  6  7  2  0
  7  8  1  0
  8  9  2  0
  6 10  1  0
 10 11  1  0
 11 12  1  0
 10 13  1  0
 13 14  1  0
 14 15  1  0
 15 16  1  6
 15 17  1  0
 17 18  1  6
 18 19  1  0
 19 20  2  0
 20 21  1  0
 21 22  2  0
 22 23  1  0
 23 24  2  0
 21 25  1  0
 25 26  1  0
 26 27  1  0
 27 28  1  0
 28 29  1  0
 29 30  1  0
 30 31  1  0
 31 32  2  0
 32 33  1  0
 33 34  2  0
 34 35  1  0
 35 36  2  0
 35 37  1  0
 37 38  2  0
 37 39  1  0
 33 40  1  0
 40 41  1  0
 40 42  2  0
  9  4  1  0
 12 10  1  0
 24 19  1  0
 36 31  1  0
 39 17  1  0
M  END
$$$$
