
     RDKit          3D

 42 46  0  0  0  0  0  0  0  0999 V2000
  -21.6328  -38.4054  -11.3701 C   0  0  0  0  0  0  0  0  0  0  0  0
  -21.4686  -37.2182  -10.4783 C   0  0  0  0  0  0  0  0  0  0  0  0
  -20.1331  -36.5323  -10.8192 C   0  0  0  0  0  0  0  0  0  0  0  0
  -21.4912  -37.5618   -9.0280 C   0  0  0  0  0  0  0  0  0  0  0  0
  -20.7069  -38.6127   -8.5353 C   0  0  0  0  0  0  0  0  0  0  0  0
  -20.6988  -38.9282   -7.2046 C   0  0  0  0  0  0  0  0  0  0  0  0
  -21.4825  -38.1853   -6.3691 C   0  0  0  0  0  0  0  0  0  0  0  0
  -22.2661  -37.1456   -6.8238 C   0  0  0  0  0  0  0  0  0  0  0  0
  -22.2723  -36.8241   -8.1833 C   0  0  0  0  0  0  0  0  0  0  0  0
  -19.8466  -40.0486   -6.7155 C   0  0  0  0  0  0  0  0  0  0  0  0
  -20.3716  -41.4524   -7.0536 C   0  0  0  0  0  0  0  0  0  0  0  0
  -20.3990  -40.9173   -5.6563 C   0  0  0  0  0  0  0  0  0  0  0  0
  -18.4175  -39.9539   -6.9063 N   0  0  0  0  0  0  0  0  0  0  0  0
  -17.9376  -38.6154   -6.8892 C   0  0  0  0  0  0  0  0  0  0  0  0
  -16.8738  -38.3153   -7.9448 C   0  0  1  0  0  0  0  0  0  0  0  0
  -15.7270  -37.8042   -7.3332 O   0  0  0  0  0  0  0  0  0  0  0  0
  -16.5342  -39.6334   -8.5613 C   0  0  2  0  0  0  0  0  0  0  0  0
  -16.3555  -39.6632  -10.0315 C   0  0  0  0  0  0  0  0  0  0  0  0
  -15.0350  -39.2154  -10.5826 C   0  0  0  0  0  0  0  0  0  0  0  0
  -13.7785  -39.7082  -10.3904 C   0  0  0  0  0  0  0  0  0  0  0  0
  -12.7152  -39.1072  -11.0369 C   0  0  0  0  0  0  0  0  0  0  0  0
  -12.9599  -38.0019  -11.8744 C   0  0  0  0  0  0  0  0  0  0  0  0
  -14.1990  -37.4683  -12.1018 C   0  0  0  0  0  0  0  0  0  0  0  0
  -15.2147  -38.1077  -11.4339 C   0  0  0  0  0  0  0  0  0  0  0  0
  -11.3807  -39.4325  -10.9911 O   0  0  0  0  0  0  0  0  0  0  0  0
  -10.5488  -40.4966  -11.2062 C   0  0  0  0  0  0  0  0  0  0  0  0
  -10.3261  -41.4227  -10.0569 C   0  0  0  0  0  0  0  0  0  0  0  0
  -11.0736  -42.6972  -10.0665 C   0  0  0  0  0  0  0  0  0  0  0  0
  -11.5086  -43.1832   -8.7099 C   0  0  0  0  0  0  0  0  0  0  0  0
  -12.6433  -44.0658   -8.9114 N   0  0  0  0  0  0  0  0  0  0  0  0
  -14.0326  -43.7951   -9.1112 C   0  0  0  0  0  0  0  0  0  0  0  0
  -14.5189  -44.6479  -10.1404 C   0  0  0  0  0  0  0  0  0  0  0  0
  -15.8088  -44.6435  -10.5841 C   0  0  0  0  0  0  0  0  0  0  0  0
  -16.6341  -43.7454   -9.9651 C   0  0  0  0  0  0  0  0  0  0  0  0
  -16.2072  -42.8684   -8.9317 C   0  0  0  0  0  0  0  0  0  0  0  0
  -14.8932  -42.9062   -8.5117 C   0  0  0  0  0  0  0  0  0  0  0  0
  -17.3450  -42.0427   -8.4942 C   0  0  0  0  0  0  0  0  0  0  0  0
  -18.5024  -42.6654   -8.3861 O   0  0  0  0  0  0  0  0  0  0  0  0
  -17.4767  -40.6856   -8.1565 N   0  0  0  0  0  0  0  0  0  0  0  0
  -16.2711  -45.5403  -11.6383 C   0  0  0  0  0  0  0  0  0  0  0  0
  -17.6918  -45.6337  -12.0294 C   0  0  0  0  0  0  0  0  0  0  0  0
  -15.3725  -46.2436  -12.2081 O   0  0  0  0  0  0  0  0  0  0  0  0
  1  2  1  0
  2  3  1  0
  2  4  1  0
  4  5  2  0
  5  6  1  0
  6  7  2  0
  7  8  1  0
  8  9  2  0
  6 10  1  0
 10 11  1  0
 11 12  1  0
 10 13  1  0
 13 14  1  0
 14 15  1  0
 15 16  1  1
 15 17  1  0
 17 18  1  6
 18 19  1  0
 19 20  2  0
 20 21  1  0
 21 22  2  0
 22 23  1  0
 23 24  2  0
 21 25  1  0
 25 26  1  0
 26 27  1  0
 27 28  1  0
 28 29  1  0
 29 30  1  0
 30 31  1  0
 31 32  2  0
 32 33  1  0
 33 34  2  0
 34 35  1  0
 35 36  2  0
 35 37  1  0
 37 38  2  0
 37 39  1  0
 33 40  1  0
 40 41  1  0
 40 42  2  0
  9  4  1  0
 12 10  1  0
 24 19  1  0
 36 31  1  0
 39 17  1  0
M  END
$$$$
