
     RDKit          3D

 42 46  0  0  0  0  0  0  0  0999 V2000
  -20.0358  -42.0843   -2.8901 C   0  0  0  0  0  0  0  0  0  0  0  0
  -20.8063  -40.8053   -2.8422 C   0  0  0  0  0  0  0  0  0  0  0  0
  -21.8164  -40.8868   -1.6832 C   0  0  0  0  0  0  0  0  0  0  0  0
  -21.5317  -40.5054   -4.1093 C   0  0  0  0  0  0  0  0  0  0  0  0
  -20.9364  -39.7097   -5.0967 C   0  0  0  0  0  0  0  0  0  0  0  0
  -21.5784  -39.4418   -6.2741 C   0  0  0  0  0  0  0  0  0  0  0  0
  -22.8219  -39.9749   -6.4572 C   0  0  0  0  0  0  0  0  0  0  0  0
  -23.4347  -40.7611   -5.5042 C   0  0  0  0  0  0  0  0  0  0  0  0
  -22.7769  -41.0344   -4.3024 C   0  0  0  0  0  0  0  0  0  0  0  0
  -20.9113  -38.5966   -7.3044 C   0  0  0  0  0  0  0  0  0  0  0  0
  -21.8587  -37.9844   -8.3476 C   0  0  0  0  0  0  0  0  0  0  0  0
  -20.9103  -39.0879   -8.6974 C   0  0  0  0  0  0  0  0  0  0  0  0
  -19.9138  -37.6467   -6.8679 N   0  0  0  0  0  0  0  0  0  0  0  0
  -18.7718  -38.2618   -6.2852 C   0  0  0  0  0  0  0  0  0  0  0  0
  -17.5842  -38.4109   -7.2356 C   0  0  1  0  0  0  0  0  0  0  0  0
  -16.3914  -38.4216   -6.5093 O   0  0  0  0  0  0  0  0  0  0  0  0
  -17.7538  -39.7449   -7.8872 C   0  0  2  0  0  0  0  0  0  0  0  0
  -18.5539  -39.7891   -9.1329 C   0  0  0  0  0  0  0  0  0  0  0  0
  -17.8751  -39.3993  -10.4118 C   0  0  0  0  0  0  0  0  0  0  0  0
  -16.7992  -39.9432  -11.0485 C   0  0  0  0  0  0  0  0  0  0  0  0
  -16.3749  -39.3902  -12.2417 C   0  0  0  0  0  0  0  0  0  0  0  0
  -17.0648  -38.2796  -12.7648 C   0  0  0  0  0  0  0  0  0  0  0  0
  -18.1484  -37.6959  -12.1675 C   0  0  0  0  0  0  0  0  0  0  0  0
  -18.5237  -38.2892  -10.9869 C   0  0  0  0  0  0  0  0  0  0  0  0
  -15.3273  -39.7706  -13.0460 O   0  0  0  0  0  0  0  0  0  0  0  0
  -14.8547  -40.8694  -13.7091 C   0  0  0  0  0  0  0  0  0  0  0  0
  -13.9777  -41.7985  -12.9371 C   0  0  0  0  0  0  0  0  0  0  0  0
  -14.5966  -43.0407  -12.4302 C   0  0  0  0  0  0  0  0  0  0  0  0
  -14.0814  -43.5018  -11.0932 C   0  0  0  0  0  0  0  0  0  0  0  0
  -15.1094  -44.3373  -10.4995 N   0  0  0  0  0  0  0  0  0  0  0  0
  -16.2988  -44.0098   -9.7774 C   0  0  0  0  0  0  0  0  0  0  0  0
  -17.3539  -44.8465  -10.2353 C   0  0  0  0  0  0  0  0  0  0  0  0
  -18.6299  -44.7904   -9.7563 C   0  0  0  0  0  0  0  0  0  0  0  0
  -18.8449  -43.8558   -8.7811 C   0  0  0  0  0  0  0  0  0  0  0  0
  -17.8322  -42.9924   -8.2829 C   0  0  0  0  0  0  0  0  0  0  0  0
  -16.5536  -43.0830   -8.7944 C   0  0  0  0  0  0  0  0  0  0  0  0
  -18.4056  -42.1180   -7.2464 C   0  0  0  0  0  0  0  0  0  0  0  0
  -19.2462  -42.6913   -6.4077 O   0  0  0  0  0  0  0  0  0  0  0  0
  -18.2524  -40.7550   -6.9434 N   0  0  0  0  0  0  0  0  0  0  0  0
  -19.6837  -45.6722  -10.2474 C   0  0  0  0  0  0  0  0  0  0  0  0
  -21.0591  -45.6341   -9.7117 C   0  0  0  0  0  0  0  0  0  0  0  0
  -19.3483  -46.4832  -11.1729 O   0  0  0  0  0  0  0  0  0  0  0  0
  1  2  1  0
  2  3  1  0
  2  4  1  0
  4  5  2  0
  5  6  1  0
  6  7  2  0
  7  8  1  0
  8  9  2  0
  6 10  1  0
 10 11  1  0
 11 12  1  0
 10 13  1  0
 13 14  1  0
 14 15  1  0
 15 16  1  1
 15 17  1  0
 17 18  1  6
 18 19  1  0
 19 20  2  0
 20 21  1  0
 21 22  2  0
 22 23  1  0
 23 24  2  0
 21 25  1  0
 25 26  1  0
 26 27  1  0
 27 28  1  0
 28 29  1  0
 29 30  1  0
 30 31  1  0
 31 32  2  0
 32 33  1  0
 33 34  2  0
 34 35  1  0
 35 36  2  0
 35 37  1  0
 37 38  2  0
 37 39  1  0
 33 40  1  0
 40 41  1  0
 40 42  2  0
  9  4  1  0
 12 10  1  0
 24 19  1  0
 36 31  1  0
 39 17  1  0
M  END
$$$$
