
     RDKit          3D

 42 46  0  0  0  0  0  0  0  0999 V2000
  -20.6288  -35.0902   -9.6832 C   0  0  0  0  0  0  0  0  0  0  0  0
  -20.2442  -36.4198  -10.2454 C   0  0  0  0  0  0  0  0  0  0  0  0
  -20.9653  -36.6073  -11.5927 C   0  0  0  0  0  0  0  0  0  0  0  0
  -20.5764  -37.5600   -9.3446 C   0  0  0  0  0  0  0  0  0  0  0  0
  -19.8435  -37.7734   -8.1700 C   0  0  0  0  0  0  0  0  0  0  0  0
  -20.1479  -38.8015   -7.3211 C   0  0  0  0  0  0  0  0  0  0  0  0
  -21.1908  -39.6165   -7.6559 C   0  0  0  0  0  0  0  0  0  0  0  0
  -21.9305  -39.4329   -8.8052 C   0  0  0  0  0  0  0  0  0  0  0  0
  -21.6187  -38.3815   -9.6707 C   0  0  0  0  0  0  0  0  0  0  0  0
  -19.3503  -38.9939   -6.0770 C   0  0  0  0  0  0  0  0  0  0  0  0
  -20.0286  -39.8598   -5.0043 C   0  0  0  0  0  0  0  0  0  0  0  0
  -19.8625  -38.3823   -4.8338 C   0  0  0  0  0  0  0  0  0  0  0  0
  -17.9463  -39.3094   -6.2071 N   0  0  0  0  0  0  0  0  0  0  0  0
  -17.2062  -38.3016   -6.8844 C   0  0  0  0  0  0  0  0  0  0  0  0
  -16.0225  -38.8285   -7.6951 C   0  0  1  0  0  0  0  0  0  0  0  0
  -14.9925  -39.2177   -6.8360 O   0  0  0  0  0  0  0  0  0  0  0  0
  -16.5288  -40.0408   -8.4070 C   0  0  2  0  0  0  0  0  0  0  0  0
  -16.9921  -39.8583   -9.8020 C   0  0  0  0  0  0  0  0  0  0  0  0
  -15.9532  -39.8211  -10.8825 C   0  0  0  0  0  0  0  0  0  0  0  0
  -15.0456  -40.7593  -11.2755 C   0  0  0  0  0  0  0  0  0  0  0  0
  -14.1941  -40.4718  -12.3253 C   0  0  0  0  0  0  0  0  0  0  0  0
  -14.2873  -39.2172  -12.9579 C   0  0  0  0  0  0  0  0  0  0  0  0
  -15.1784  -38.2412  -12.6038 C   0  0  0  0  0  0  0  0  0  0  0  0
  -15.9978  -38.5850  -11.5564 C   0  0  0  0  0  0  0  0  0  0  0  0
  -13.2143  -41.2577  -12.8831 O   0  0  0  0  0  0  0  0  0  0  0  0
  -13.0514  -42.4897  -13.4543 C   0  0  0  0  0  0  0  0  0  0  0  0
  -12.7769  -43.6307  -12.5319 C   0  0  0  0  0  0  0  0  0  0  0  0
  -13.9092  -44.5253  -12.2146 C   0  0  0  0  0  0  0  0  0  0  0  0
  -13.9109  -45.0661  -10.8098 C   0  0  0  0  0  0  0  0  0  0  0  0
  -15.2796  -45.4274  -10.4884 N   0  0  0  0  0  0  0  0  0  0  0  0
  -16.3890  -44.6430  -10.0442 C   0  0  0  0  0  0  0  0  0  0  0  0
  -17.5510  -45.0560  -10.7529 C   0  0  0  0  0  0  0  0  0  0  0  0
  -18.7860  -44.5054  -10.5730 C   0  0  0  0  0  0  0  0  0  0  0  0
  -18.8466  -43.5028   -9.6445 C   0  0  0  0  0  0  0  0  0  0  0  0
  -17.7217  -43.0471   -8.9054 C   0  0  0  0  0  0  0  0  0  0  0  0
  -16.4902  -43.6326   -9.1175 C   0  0  0  0  0  0  0  0  0  0  0  0
  -18.1414  -41.9646   -8.0000 C   0  0  0  0  0  0  0  0  0  0  0  0
  -19.2975  -42.1378   -7.3899 O   0  0  0  0  0  0  0  0  0  0  0  0
  -17.5624  -40.7394   -7.6303 N   0  0  0  0  0  0  0  0  0  0  0  0
  -19.9563  -44.9626  -11.3151 C   0  0  0  0  0  0  0  0  0  0  0  0
  -21.2995  -44.3864  -11.1053 C   0  0  0  0  0  0  0  0  0  0  0  0
  -19.7526  -45.8941  -12.1621 O   0  0  0  0  0  0  0  0  0  0  0  0
  1  2  1  0
  2  3  1  0
  2  4  1  0
  4  5  2  0
  5  6  1  0
  6  7  2  0
  7  8  1  0
  8  9  2  0
  6 10  1  0
 10 11  1  0
 11 12  1  0
 10 13  1  0
 13 14  1  0
 14 15  1  0
 15 16  1  1
 15 17  1  0
 17 18  1  6
 18 19  1  0
 19 20  2  0
 20 21  1  0
 21 22  2  0
 22 23  1  0
 23 24  2  0
 21 25  1  0
 25 26  1  0
 26 27  1  0
 27 28  1  0
 28 29  1  0
 29 30  1  0
 30 31  1  0
 31 32  2  0
 32 33  1  0
 33 34  2  0
 34 35  1  0
 35 36  2  0
 35 37  1  0
 37 38  2  0
 37 39  1  0
 33 40  1  0
 40 41  1  0
 40 42  2  0
  9  4  1  0
 12 10  1  0
 24 19  1  0
 36 31  1  0
 39 17  1  0
M  END
$$$$
