
     RDKit          3D

 42 46  0  0  0  0  0  0  0  0999 V2000
  -22.5426  -41.3212   -1.9802 C   0  0  0  0  0  0  0  0  0  0  0  0
  -21.2844  -40.7414   -2.5395 C   0  0  0  0  0  0  0  0  0  0  0  0
  -20.6776  -39.7898   -1.4923 C   0  0  0  0  0  0  0  0  0  0  0  0
  -21.4922  -40.0020   -3.8170 C   0  0  0  0  0  0  0  0  0  0  0  0
  -21.0871  -40.5623   -5.0353 C   0  0  0  0  0  0  0  0  0  0  0  0
  -21.2890  -39.9076   -6.2190 C   0  0  0  0  0  0  0  0  0  0  0  0
  -21.8987  -38.6868   -6.1757 C   0  0  0  0  0  0  0  0  0  0  0  0
  -22.3080  -38.1086   -4.9926 C   0  0  0  0  0  0  0  0  0  0  0  0
  -22.1017  -38.7792   -3.7845 C   0  0  0  0  0  0  0  0  0  0  0  0
  -20.8507  -40.5376   -7.4964 C   0  0  0  0  0  0  0  0  0  0  0  0
  -21.9944  -40.9908   -8.4169 C   0  0  0  0  0  0  0  0  0  0  0  0
  -21.1365  -41.9745   -7.6848 C   0  0  0  0  0  0  0  0  0  0  0  0
  -19.7866  -39.9044   -8.2410 N   0  0  0  0  0  0  0  0  0  0  0  0
  -18.9487  -39.0861   -7.4344 C   0  0  0  0  0  0  0  0  0  0  0  0
  -17.9727  -38.2144   -8.2240 C   0  0  1  0  0  0  0  0  0  0  0  0
  -17.0299  -37.6526   -7.3603 O   0  0  0  0  0  0  0  0  0  0  0  0
  -17.2659  -39.1435   -9.1568 C   0  0  2  0  0  0  0  0  0  0  0  0
  -17.3763  -38.8561  -10.6057 C   0  0  0  0  0  0  0  0  0  0  0  0
  -16.4726  -37.8060  -11.1792 C   0  0  0  0  0  0  0  0  0  0  0  0
  -15.1122  -37.7410  -11.2399 C   0  0  0  0  0  0  0  0  0  0  0  0
  -14.5184  -36.6487  -11.8433 C   0  0  0  0  0  0  0  0  0  0  0  0
  -15.3356  -35.6333  -12.3764 C   0  0  0  0  0  0  0  0  0  0  0  0
  -16.7032  -35.6489  -12.3422 C   0  0  0  0  0  0  0  0  0  0  0  0
  -17.2350  -36.7587  -11.7321 C   0  0  0  0  0  0  0  0  0  0  0  0
  -13.1822  -36.3775  -12.0161 O   0  0  0  0  0  0  0  0  0  0  0  0
  -12.0562  -36.9359  -12.5554 C   0  0  0  0  0  0  0  0  0  0  0  0
  -11.2695  -37.8515  -11.6773 C   0  0  0  0  0  0  0  0  0  0  0  0
  -11.4399  -39.3028  -11.8960 C   0  0  0  0  0  0  0  0  0  0  0  0
  -11.3781  -40.1402  -10.6468 C   0  0  0  0  0  0  0  0  0  0  0  0
  -12.0880  -41.3765  -10.9206 N   0  0  0  0  0  0  0  0  0  0  0  0
  -13.4815  -41.6945  -10.9033 C   0  0  0  0  0  0  0  0  0  0  0  0
  -13.7797  -42.4943  -12.0411 C   0  0  0  0  0  0  0  0  0  0  0  0
  -15.0258  -42.9677  -12.3311 C   0  0  0  0  0  0  0  0  0  0  0  0
  -16.0027  -42.6197  -11.4393 C   0  0  0  0  0  0  0  0  0  0  0  0
  -15.7666  -41.8244  -10.2855 C   0  0  0  0  0  0  0  0  0  0  0  0
  -14.4902  -41.3666  -10.0287 C   0  0  0  0  0  0  0  0  0  0  0  0
  -17.0306  -41.6445   -9.5523 C   0  0  0  0  0  0  0  0  0  0  0  0
  -17.8039  -42.7090   -9.4650 O   0  0  0  0  0  0  0  0  0  0  0  0
  -17.6196  -40.5470   -8.9030 N   0  0  0  0  0  0  0  0  0  0  0  0
  -15.2898  -43.7923  -13.5056 C   0  0  0  0  0  0  0  0  0  0  0  0
  -16.4349  -44.7218  -13.5771 C   0  0  0  0  0  0  0  0  0  0  0  0
  -14.4708  -43.6637  -14.4749 O   0  0  0  0  0  0  0  0  0  0  0  0
  1  2  1  0
  2  3  1  0
  2  4  1  0
  4  5  2  0
  5  6  1  0
  6  7  2  0
  7  8  1  0
  8  9  2  0
  6 10  1  0
 10 11  1  0
 11 12  1  0
 10 13  1  0
 13 14  1  0
 14 15  1  0
 15 16  1  1
 15 17  1  0
 17 18  1  6
 18 19  1  0
 19 20  2  0
 20 21  1  0
 21 22  2  0
 22 23  1  0
 23 24  2  0
 21 25  1  0
 25 26  1  0
 26 27  1  0
 27 28  1  0
 28 29  1  0
 29 30  1  0
 30 31  1  0
 31 32  2  0
 32 33  1  0
 33 34  2  0
 34 35  1  0
 35 36  2  0
 35 37  1  0
 37 38  2  0
 37 39  1  0
 33 40  1  0
 40 41  1  0
 40 42  2  0
  9  4  1  0
 12 10  1  0
 24 19  1  0
 36 31  1  0
 39 17  1  0
M  END
$$$$
