
     RDKit          3D

 42 46  0  0  0  0  0  0  0  0999 V2000
  -15.8027  -33.8604  -10.5060 C   0  0  0  0  0  0  0  0  0  0  0  0
  -15.2456  -35.0457   -9.7872 C   0  0  0  0  0  0  0  0  0  0  0  0
  -13.9784  -34.6069   -9.0309 C   0  0  0  0  0  0  0  0  0  0  0  0
  -14.9119  -36.1818  -10.6925 C   0  0  0  0  0  0  0  0  0  0  0  0
  -14.9609  -37.5010  -10.2238 C   0  0  0  0  0  0  0  0  0  0  0  0
  -14.6787  -38.5568  -11.0460 C   0  0  0  0  0  0  0  0  0  0  0  0
  -14.3456  -38.2838  -12.3415 C   0  0  0  0  0  0  0  0  0  0  0  0
  -14.2877  -36.9964  -12.8325 C   0  0  0  0  0  0  0  0  0  0  0  0
  -14.5773  -35.9193  -11.9913 C   0  0  0  0  0  0  0  0  0  0  0  0
  -14.7476  -39.9471  -10.5140 C   0  0  0  0  0  0  0  0  0  0  0  0
  -13.5465  -40.3679   -9.6533 C   0  0  0  0  0  0  0  0  0  0  0  0
  -13.7657  -40.9252  -11.0247 C   0  0  0  0  0  0  0  0  0  0  0  0
  -15.9960  -40.4000   -9.9446 N   0  0  0  0  0  0  0  0  0  0  0  0
  -17.1185  -40.1408  -10.7782 C   0  0  0  0  0  0  0  0  0  0  0  0
  -18.1398  -39.1764  -10.1759 C   0  0  1  0  0  0  0  0  0  0  0  0
  -19.2583  -39.0868  -11.0074 O   0  0  0  0  0  0  0  0  0  0  0  0
  -18.5607  -39.7916   -8.8808 C   0  0  2  0  0  0  0  0  0  0  0  0
  -19.3275  -38.9356   -7.9462 C   0  0  0  0  0  0  0  0  0  0  0  0
  -20.7974  -38.7747   -8.1945 C   0  0  0  0  0  0  0  0  0  0  0  0
  -21.8007  -39.6974   -8.2193 C   0  0  0  0  0  0  0  0  0  0  0  0
  -23.0940  -39.2767   -8.4647 C   0  0  0  0  0  0  0  0  0  0  0  0
  -23.3381  -37.9073   -8.6839 C   0  0  0  0  0  0  0  0  0  0  0  0
  -22.3694  -36.9412   -8.6700 C   0  0  0  0  0  0  0  0  0  0  0  0
  -21.1061  -37.4191   -8.4201 C   0  0  0  0  0  0  0  0  0  0  0  0
  -24.2465  -40.0222   -8.5342 O   0  0  0  0  0  0  0  0  0  0  0  0
  -24.9734  -40.9083   -7.7877 C   0  0  0  0  0  0  0  0  0  0  0  0
  -24.5996  -42.3493   -7.8970 C   0  0  0  0  0  0  0  0  0  0  0  0
  -23.7912  -42.9187   -6.7991 C   0  0  0  0  0  0  0  0  0  0  0  0
  -22.7842  -43.9521   -7.2281 C   0  0  0  0  0  0  0  0  0  0  0  0
  -21.7472  -43.9912   -6.2130 N   0  0  0  0  0  0  0  0  0  0  0  0
  -20.6031  -43.1631   -5.9926 C   0  0  0  0  0  0  0  0  0  0  0  0
  -20.4981  -42.8936   -4.6000 C   0  0  0  0  0  0  0  0  0  0  0  0
  -19.5162  -42.1247   -4.0473 C   0  0  0  0  0  0  0  0  0  0  0  0
  -18.6103  -41.6114   -4.9343 C   0  0  0  0  0  0  0  0  0  0  0  0
  -18.6624  -41.8452   -6.3349 C   0  0  0  0  0  0  0  0  0  0  0  0
  -19.6724  -42.6303   -6.8529 C   0  0  0  0  0  0  0  0  0  0  0  0
  -17.5414  -41.1475   -6.9862 C   0  0  0  0  0  0  0  0  0  0  0  0
  -16.3837  -41.2024   -6.3573 O   0  0  0  0  0  0  0  0  0  0  0  0
  -17.4281  -40.4049   -8.1731 N   0  0  0  0  0  0  0  0  0  0  0  0
  -19.4385  -41.8775   -2.6113 C   0  0  0  0  0  0  0  0  0  0  0  0
  -18.3874  -41.0320   -2.0109 C   0  0  0  0  0  0  0  0  0  0  0  0
  -20.3365  -42.4360   -1.8983 O   0  0  0  0  0  0  0  0  0  0  0  0
  1  2  1  0
  2  3  1  0
  2  4  1  0
  4  5  2  0
  5  6  1  0
  6  7  2  0
  7  8  1  0
  8  9  2  0
  6 10  1  0
 10 11  1  0
 11 12  1  0
 10 13  1  0
 13 14  1  0
 14 15  1  0
 15 16  1  6
 15 17  1  0
 17 18  1  1
 18 19  1  0
 19 20  2  0
 20 21  1  0
 21 22  2  0
 22 23  1  0
 23 24  2  0
 21 25  1  0
 25 26  1  0
 26 27  1  0
 27 28  1  0
 28 29  1  0
 29 30  1  0
 30 31  1  0
 31 32  2  0
 32 33  1  0
 33 34  2  0
 34 35  1  0
 35 36  2  0
 35 37  1  0
 37 38  2  0
 37 39  1  0
 33 40  1  0
 40 41  1  0
 40 42  2  0
  9  4  1  0
 12 10  1  0
 24 19  1  0
 36 31  1  0
 39 17  1  0
M  END
$$$$
