
     RDKit          3D

 42 46  0  0  0  0  0  0  0  0999 V2000
  -25.0505  -42.1527   -7.3691 C   0  0  0  0  0  0  0  0  0  0  0  0
  -24.1231  -41.7913   -6.2550 C   0  0  0  0  0  0  0  0  0  0  0  0
  -24.9647  -41.4038   -5.0254 C   0  0  0  0  0  0  0  0  0  0  0  0
  -23.2006  -40.6709   -6.5949 C   0  0  0  0  0  0  0  0  0  0  0  0
  -21.9203  -40.6094   -6.0297 C   0  0  0  0  0  0  0  0  0  0  0  0
  -21.0529  -39.6006   -6.3465 C   0  0  0  0  0  0  0  0  0  0  0  0
  -21.4756  -38.6519   -7.2326 C   0  0  0  0  0  0  0  0  0  0  0  0
  -22.7298  -38.6844   -7.8051 C   0  0  0  0  0  0  0  0  0  0  0  0
  -23.6141  -39.7162   -7.4810 C   0  0  0  0  0  0  0  0  0  0  0  0
  -19.6962  -39.5714   -5.7306 C   0  0  0  0  0  0  0  0  0  0  0  0
  -19.5901  -40.2806   -4.3717 C   0  0  0  0  0  0  0  0  0  0  0  0
  -19.5244  -38.7901   -4.4889 C   0  0  0  0  0  0  0  0  0  0  0  0
  -18.5572  -39.8589   -6.5719 N   0  0  0  0  0  0  0  0  0  0  0  0
  -17.6976  -38.7405   -6.7522 C   0  0  0  0  0  0  0  0  0  0  0  0
  -17.0566  -38.6570   -8.1372 C   0  0  1  0  0  0  0  0  0  0  0  0
  -15.7267  -38.2464   -8.0224 O   0  0  0  0  0  0  0  0  0  0  0  0
  -17.0769  -40.0507   -8.6758 C   0  0  2  0  0  0  0  0  0  0  0  0
  -17.4952  -40.2215  -10.0865 C   0  0  0  0  0  0  0  0  0  0  0  0
  -16.4725  -39.9664  -11.1528 C   0  0  0  0  0  0  0  0  0  0  0  0
  -15.2781  -40.5746  -11.4024 C   0  0  0  0  0  0  0  0  0  0  0  0
  -14.5185  -40.1480  -12.4751 C   0  0  0  0  0  0  0  0  0  0  0  0
  -14.9990  -39.0960  -13.2784 C   0  0  0  0  0  0  0  0  0  0  0  0
  -16.1885  -38.4521  -13.0725 C   0  0  0  0  0  0  0  0  0  0  0  0
  -16.8987  -38.9202  -11.9941 C   0  0  0  0  0  0  0  0  0  0  0  0
  -13.2992  -40.6108  -12.9087 O   0  0  0  0  0  0  0  0  0  0  0  0
  -12.6930  -41.7728  -13.2997 C   0  0  0  0  0  0  0  0  0  0  0  0
  -12.0976  -42.6190  -12.2238 C   0  0  0  0  0  0  0  0  0  0  0  0
  -12.8718  -43.8015  -11.7934 C   0  0  0  0  0  0  0  0  0  0  0  0
  -12.7679  -44.1234  -10.3267 C   0  0  0  0  0  0  0  0  0  0  0  0
  -13.9465  -44.8918   -9.9691 N   0  0  0  0  0  0  0  0  0  0  0  0
  -15.2804  -44.4898   -9.6489 C   0  0  0  0  0  0  0  0  0  0  0  0
  -16.1892  -45.3674  -10.3022 C   0  0  0  0  0  0  0  0  0  0  0  0
  -17.5461  -45.2603  -10.2117 C   0  0  0  0  0  0  0  0  0  0  0  0
  -17.9980  -44.2300   -9.4339 C   0  0  0  0  0  0  0  0  0  0  0  0
  -17.1403  -43.3216   -8.7567 C   0  0  0  0  0  0  0  0  0  0  0  0
  -15.7729  -43.4664   -8.8742 C   0  0  0  0  0  0  0  0  0  0  0  0
  -17.9551  -42.3442   -8.0160 C   0  0  0  0  0  0  0  0  0  0  0  0
  -19.0149  -42.8270   -7.3973 O   0  0  0  0  0  0  0  0  0  0  0  0
  -17.8516  -40.9576   -7.8173 N   0  0  0  0  0  0  0  0  0  0  0  0
  -18.4458  -46.1861  -10.8920 C   0  0  0  0  0  0  0  0  0  0  0  0
  -19.9144  -46.0926  -10.7716 C   0  0  0  0  0  0  0  0  0  0  0  0
  -17.8886  -47.0870  -11.6025 O   0  0  0  0  0  0  0  0  0  0  0  0
  1  2  1  0
  2  3  1  0
  2  4  1  0
  4  5  2  0
  5  6  1  0
  6  7  2  0
  7  8  1  0
  8  9  2  0
  6 10  1  0
 10 11  1  0
 11 12  1  0
 10 13  1  0
 13 14  1  0
 14 15  1  0
 15 16  1  1
 15 17  1  0
 17 18  1  6
 18 19  1  0
 19 20  2  0
 20 21  1  0
 21 22  2  0
 22 23  1  0
 23 24  2  0
 21 25  1  0
 25 26  1  0
 26 27  1  0
 27 28  1  0
 28 29  1  0
 29 30  1  0
 30 31  1  0
 31 32  2  0
 32 33  1  0
 33 34  2  0
 34 35  1  0
 35 36  2  0
 35 37  1  0
 37 38  2  0
 37 39  1  0
 33 40  1  0
 40 41  1  0
 40 42  2  0
  9  4  1  0
 12 10  1  0
 24 19  1  0
 36 31  1  0
 39 17  1  0
M  END
$$$$
