
     RDKit          3D

 42 46  0  0  0  0  0  0  0  0999 V2000
  -20.9653  -41.0075   -3.9084 C   0  0  0  0  0  0  0  0  0  0  0  0
  -20.9221  -39.5518   -4.2416 C   0  0  0  0  0  0  0  0  0  0  0  0
  -22.0252  -38.8349   -3.4421 C   0  0  0  0  0  0  0  0  0  0  0  0
  -21.1050  -39.2733   -5.6945 C   0  0  0  0  0  0  0  0  0  0  0  0
  -20.0190  -38.8694   -6.4819 C   0  0  0  0  0  0  0  0  0  0  0  0
  -20.1638  -38.6301   -7.8206 C   0  0  0  0  0  0  0  0  0  0  0  0
  -21.4039  -38.7967   -8.3670 C   0  0  0  0  0  0  0  0  0  0  0  0
  -22.4923  -39.1923   -7.6183 C   0  0  0  0  0  0  0  0  0  0  0  0
  -22.3423  -39.4372   -6.2511 C   0  0  0  0  0  0  0  0  0  0  0  0
  -18.9845  -38.2082   -8.6281 C   0  0  0  0  0  0  0  0  0  0  0  0
  -19.1864  -36.9184   -9.4382 C   0  0  0  0  0  0  0  0  0  0  0  0
  -19.1081  -38.2589  -10.0991 C   0  0  0  0  0  0  0  0  0  0  0  0
  -17.6808  -38.2483   -8.0064 N   0  0  0  0  0  0  0  0  0  0  0  0
  -17.4299  -39.4619   -7.3089 C   0  0  0  0  0  0  0  0  0  0  0  0
  -16.7244  -40.5316   -8.1421 C   0  0  1  0  0  0  0  0  0  0  0  0
  -15.6513  -41.0636   -7.4239 O   0  0  0  0  0  0  0  0  0  0  0  0
  -17.7357  -41.6116   -8.3518 C   0  0  2  0  0  0  0  0  0  0  0  0
  -17.8576  -42.1634   -9.7210 C   0  0  0  0  0  0  0  0  0  0  0  0
  -16.8598  -43.1982  -10.1472 C   0  0  0  0  0  0  0  0  0  0  0  0
  -16.5909  -44.4351   -9.6408 C   0  0  0  0  0  0  0  0  0  0  0  0
  -15.6115  -45.2065  -10.2370 C   0  0  0  0  0  0  0  0  0  0  0  0
  -14.9180  -44.6920  -11.3493 C   0  0  0  0  0  0  0  0  0  0  0  0
  -15.1479  -43.4593  -11.8965 C   0  0  0  0  0  0  0  0  0  0  0  0
  -16.1320  -42.7405  -11.2628 C   0  0  0  0  0  0  0  0  0  0  0  0
  -15.1797  -46.4669   -9.8995 O   0  0  0  0  0  0  0  0  0  0  0  0
  -15.6671  -47.7306   -9.7095 C   0  0  0  0  0  0  0  0  0  0  0  0
  -16.1808  -48.0583   -8.3469 C   0  0  0  0  0  0  0  0  0  0  0  0
  -17.6466  -48.0479   -8.1612 C   0  0  0  0  0  0  0  0  0  0  0  0
  -18.1080  -47.5594   -6.8142 C   0  0  0  0  0  0  0  0  0  0  0  0
  -19.4719  -47.0874   -6.9705 N   0  0  0  0  0  0  0  0  0  0  0  0
  -19.9982  -45.8481   -7.4505 C   0  0  0  0  0  0  0  0  0  0  0  0
  -21.1042  -46.1227   -8.3015 C   0  0  0  0  0  0  0  0  0  0  0  0
  -21.8343  -45.1588   -8.9330 C   0  0  0  0  0  0  0  0  0  0  0  0
  -21.4308  -43.8737   -8.6949 C   0  0  0  0  0  0  0  0  0  0  0  0
  -20.3350  -43.5367   -7.8553 C   0  0  0  0  0  0  0  0  0  0  0  0
  -19.6236  -44.5431   -7.2344 C   0  0  0  0  0  0  0  0  0  0  0  0
  -20.1799  -42.0729   -7.8229 C   0  0  0  0  0  0  0  0  0  0  0  0
  -21.2967  -41.3755   -7.7510 O   0  0  0  0  0  0  0  0  0  0  0  0
  -19.0630  -41.2218   -7.8560 N   0  0  0  0  0  0  0  0  0  0  0  0
  -22.9679  -45.4812   -9.7932 C   0  0  0  0  0  0  0  0  0  0  0  0
  -23.5107  -44.5232  -10.7770 C   0  0  0  0  0  0  0  0  0  0  0  0
  -23.4671  -46.6458   -9.6476 O   0  0  0  0  0  0  0  0  0  0  0  0
  1  2  1  0
  2  3  1  0
  2  4  1  0
  4  5  2  0
  5  6  1  0
  6  7  2  0
  7  8  1  0
  8  9  2  0
  6 10  1  0
 10 11  1  0
 11 12  1  0
 10 13  1  0
 13 14  1  0
 14 15  1  0
 15 16  1  1
 15 17  1  0
 17 18  1  6
 18 19  1  0
 19 20  2  0
 20 21  1  0
 21 22  2  0
 22 23  1  0
 23 24  2  0
 21 25  1  0
 25 26  1  0
 26 27  1  0
 27 28  1  0
 28 29  1  0
 29 30  1  0
 30 31  1  0
 31 32  2  0
 32 33  1  0
 33 34  2  0
 34 35  1  0
 35 36  2  0
 35 37  1  0
 37 38  2  0
 37 39  1  0
 33 40  1  0
 40 41  1  0
 40 42  2  0
  9  4  1  0
 12 10  1  0
 24 19  1  0
 36 31  1  0
 39 17  1  0
M  END
$$$$
