
     RDKit          3D

 42 46  0  0  0  0  0  0  0  0999 V2000
  -13.2620  -33.7049  -12.0798 C   0  0  0  0  0  0  0  0  0  0  0  0
  -12.7405  -35.0443  -11.6724 C   0  0  0  0  0  0  0  0  0  0  0  0
  -11.6397  -35.4621  -12.6643 C   0  0  0  0  0  0  0  0  0  0  0  0
  -13.7927  -36.0992  -11.6293 C   0  0  0  0  0  0  0  0  0  0  0  0
  -13.7095  -37.1474  -10.7038 C   0  0  0  0  0  0  0  0  0  0  0  0
  -14.6766  -38.1120  -10.6358 C   0  0  0  0  0  0  0  0  0  0  0  0
  -15.7283  -38.0217  -11.5016 C   0  0  0  0  0  0  0  0  0  0  0  0
  -15.8382  -37.0028  -12.4244 C   0  0  0  0  0  0  0  0  0  0  0  0
  -14.8498  -36.0178  -12.4917 C   0  0  0  0  0  0  0  0  0  0  0  0
  -14.5579  -39.2086   -9.6337 C   0  0  0  0  0  0  0  0  0  0  0  0
  -13.1190  -39.5409   -9.2096 C   0  0  0  0  0  0  0  0  0  0  0  0
  -13.9203  -40.4680  -10.0688 C   0  0  0  0  0  0  0  0  0  0  0  0
  -15.4584  -39.2023   -8.5037 N   0  0  0  0  0  0  0  0  0  0  0  0
  -16.7690  -38.7605   -8.8345 C   0  0  0  0  0  0  0  0  0  0  0  0
  -17.7308  -38.7015   -7.6481 C   0  0  1  0  0  0  0  0  0  0  0  0
  -18.8805  -37.9920   -8.0019 O   0  0  0  0  0  0  0  0  0  0  0  0
  -18.1156  -40.1183   -7.3698 C   0  0  2  0  0  0  0  0  0  0  0  0
  -18.6205  -40.4248   -6.0115 C   0  0  0  0  0  0  0  0  0  0  0  0
  -20.0577  -40.1161   -5.7157 C   0  0  0  0  0  0  0  0  0  0  0  0
  -21.2034  -40.5919   -6.2810 C   0  0  0  0  0  0  0  0  0  0  0  0
  -22.4221  -40.1450   -5.8068 C   0  0  0  0  0  0  0  0  0  0  0  0
  -22.4454  -39.2096   -4.7545 C   0  0  0  0  0  0  0  0  0  0  0  0
  -21.3272  -38.7005   -4.1526 C   0  0  0  0  0  0  0  0  0  0  0  0
  -20.1474  -39.1823   -4.6651 C   0  0  0  0  0  0  0  0  0  0  0  0
  -23.6876  -40.4852   -6.2209 O   0  0  0  0  0  0  0  0  0  0  0  0
  -24.4762  -41.5886   -6.3974 C   0  0  0  0  0  0  0  0  0  0  0  0
  -24.3724  -42.2895   -7.7112 C   0  0  0  0  0  0  0  0  0  0  0  0
  -23.5660  -43.5270   -7.7505 C   0  0  0  0  0  0  0  0  0  0  0  0
  -22.8044  -43.7428   -9.0308 C   0  0  0  0  0  0  0  0  0  0  0  0
  -21.6903  -44.6225   -8.7269 N   0  0  0  0  0  0  0  0  0  0  0  0
  -20.4030  -44.3633   -8.1623 C   0  0  0  0  0  0  0  0  0  0  0  0
  -20.1087  -45.3818   -7.2140 C   0  0  0  0  0  0  0  0  0  0  0  0
  -18.9559  -45.4318   -6.4864 C   0  0  0  0  0  0  0  0  0  0  0  0
  -18.0715  -44.4164   -6.7268 C   0  0  0  0  0  0  0  0  0  0  0  0
  -18.3086  -43.3721   -7.6608 C   0  0  0  0  0  0  0  0  0  0  0  0
  -19.4880  -43.3600   -8.3774 C   0  0  0  0  0  0  0  0  0  0  0  0
  -17.1569  -42.4549   -7.6671 C   0  0  0  0  0  0  0  0  0  0  0  0
  -15.9675  -43.0212   -7.6082 O   0  0  0  0  0  0  0  0  0  0  0  0
  -17.0400  -41.0562   -7.7206 N   0  0  0  0  0  0  0  0  0  0  0  0
  -18.6878  -46.4985   -5.5276 C   0  0  0  0  0  0  0  0  0  0  0  0
  -17.4770  -46.5155   -4.6828 C   0  0  0  0  0  0  0  0  0  0  0  0
  -19.5648  -47.4220   -5.4587 O   0  0  0  0  0  0  0  0  0  0  0  0
  1  2  1  0
  2  3  1  0
  2  4  1  0
  4  5  2  0
  5  6  1  0
  6  7  2  0
  7  8  1  0
  8  9  2  0
  6 10  1  0
 10 11  1  0
 11 12  1  0
 10 13  1  0
 13 14  1  0
 14 15  1  0
 15 16  1  6
 15 17  1  0
 17 18  1  1
 18 19  1  0
 19 20  2  0
 20 21  1  0
 21 22  2  0
 22 23  1  0
 23 24  2  0
 21 25  1  0
 25 26  1  0
 26 27  1  0
 27 28  1  0
 28 29  1  0
 29 30  1  0
 30 31  1  0
 31 32  2  0
 32 33  1  0
 33 34  2  0
 34 35  1  0
 35 36  2  0
 35 37  1  0
 37 38  2  0
 37 39  1  0
 33 40  1  0
 40 41  1  0
 40 42  2  0
  9  4  1  0
 12 10  1  0
 24 19  1  0
 36 31  1  0
 39 17  1  0
M  END
$$$$
