
     RDKit          3D

 42 46  0  0  0  0  0  0  0  0999 V2000
  -12.2674  -37.9765   -8.7081 C   0  0  0  0  0  0  0  0  0  0  0  0
  -12.4721  -37.3009  -10.0247 C   0  0  0  0  0  0  0  0  0  0  0  0
  -13.1763  -35.9542   -9.7782 C   0  0  0  0  0  0  0  0  0  0  0  0
  -13.2759  -38.1099  -10.9846 C   0  0  0  0  0  0  0  0  0  0  0  0
  -14.6545  -38.2716  -10.7961 C   0  0  0  0  0  0  0  0  0  0  0  0
  -15.4112  -38.9926  -11.6782 C   0  0  0  0  0  0  0  0  0  0  0  0
  -14.7787  -39.5523  -12.7508 C   0  0  0  0  0  0  0  0  0  0  0  0
  -13.4234  -39.4119  -12.9634 C   0  0  0  0  0  0  0  0  0  0  0  0
  -12.6522  -38.6743  -12.0618 C   0  0  0  0  0  0  0  0  0  0  0  0
  -16.8765  -39.1377  -11.4489 C   0  0  0  0  0  0  0  0  0  0  0  0
  -17.3284  -40.5490  -11.0430 C   0  0  0  0  0  0  0  0  0  0  0  0
  -17.6372  -39.9815  -12.3930 C   0  0  0  0  0  0  0  0  0  0  0  0
  -17.5518  -38.1195  -10.6775 N   0  0  0  0  0  0  0  0  0  0  0  0
  -18.8262  -38.5318  -10.1999 C   0  0  0  0  0  0  0  0  0  0  0  0
  -18.9759  -38.4771   -8.6798 C   0  0  1  0  0  0  0  0  0  0  0  0
  -20.2508  -38.0168   -8.3431 O   0  0  0  0  0  0  0  0  0  0  0  0
  -18.8431  -39.8895   -8.2103 C   0  0  2  0  0  0  0  0  0  0  0  0
  -18.9870  -40.1322   -6.7562 C   0  0  0  0  0  0  0  0  0  0  0  0
  -20.3758  -40.2173   -6.1976 C   0  0  0  0  0  0  0  0  0  0  0  0
  -21.3929  -41.0825   -6.4726 C   0  0  0  0  0  0  0  0  0  0  0  0
  -22.5907  -40.9476   -5.7967 C   0  0  0  0  0  0  0  0  0  0  0  0
  -22.7268  -39.9191   -4.8445 C   0  0  0  0  0  0  0  0  0  0  0  0
  -21.7396  -39.0253   -4.5308 C   0  0  0  0  0  0  0  0  0  0  0  0
  -20.5738  -39.2100   -5.2332 C   0  0  0  0  0  0  0  0  0  0  0  0
  -23.7365  -41.6978   -5.9111 O   0  0  0  0  0  0  0  0  0  0  0  0
  -24.1567  -42.9967   -5.8280 C   0  0  0  0  0  0  0  0  0  0  0  0
  -24.0636  -43.8173   -7.0714 C   0  0  0  0  0  0  0  0  0  0  0  0
  -22.9286  -44.7579   -7.1720 C   0  0  0  0  0  0  0  0  0  0  0  0
  -22.3676  -44.9230   -8.5590 C   0  0  0  0  0  0  0  0  0  0  0  0
  -20.9991  -45.3864   -8.4186 N   0  0  0  0  0  0  0  0  0  0  0  0
  -19.7818  -44.6848   -8.1552 C   0  0  0  0  0  0  0  0  0  0  0  0
  -19.0256  -45.4265   -7.2058 C   0  0  0  0  0  0  0  0  0  0  0  0
  -17.8092  -45.0332   -6.7298 C   0  0  0  0  0  0  0  0  0  0  0  0
  -17.3429  -43.8494   -7.2317 C   0  0  0  0  0  0  0  0  0  0  0  0
  -18.0514  -43.0646   -8.1811 C   0  0  0  0  0  0  0  0  0  0  0  0
  -19.2789  -43.4998   -8.6377 C   0  0  0  0  0  0  0  0  0  0  0  0
  -17.2648  -41.8620   -8.5015 C   0  0  0  0  0  0  0  0  0  0  0  0
  -15.9660  -42.0421   -8.6417 O   0  0  0  0  0  0  0  0  0  0  0  0
  -17.6038  -40.5127   -8.6952 N   0  0  0  0  0  0  0  0  0  0  0  0
  -17.0605  -45.8267   -5.7607 C   0  0  0  0  0  0  0  0  0  0  0  0
  -15.6056  -45.6677   -5.5651 C   0  0  0  0  0  0  0  0  0  0  0  0
  -17.7381  -46.6709   -5.0863 O   0  0  0  0  0  0  0  0  0  0  0  0
  1  2  1  0
  2  3  1  0
  2  4  1  0
  4  5  2  0
  5  6  1  0
  6  7  2  0
  7  8  1  0
  8  9  2  0
  6 10  1  0
 10 11  1  0
 11 12  1  0
 10 13  1  0
 13 14  1  0
 14 15  1  0
 15 16  1  6
 15 17  1  0
 17 18  1  1
 18 19  1  0
 19 20  2  0
 20 21  1  0
 21 22  2  0
 22 23  1  0
 23 24  2  0
 21 25  1  0
 25 26  1  0
 26 27  1  0
 27 28  1  0
 28 29  1  0
 29 30  1  0
 30 31  1  0
 31 32  2  0
 32 33  1  0
 33 34  2  0
 34 35  1  0
 35 36  2  0
 35 37  1  0
 37 38  2  0
 37 39  1  0
 33 40  1  0
 40 41  1  0
 40 42  2  0
  9  4  1  0
 12 10  1  0
 24 19  1  0
 36 31  1  0
 39 17  1  0
M  END
$$$$
