
     RDKit          3D

 42 46  0  0  0  0  0  0  0  0999 V2000
  -19.7266  -36.1249   -7.8833 C   0  0  0  0  0  0  0  0  0  0  0  0
  -20.7849  -36.6347   -6.9603 C   0  0  0  0  0  0  0  0  0  0  0  0
  -20.2314  -36.6137   -5.5238 C   0  0  0  0  0  0  0  0  0  0  0  0
  -21.2438  -38.0134   -7.2926 C   0  0  0  0  0  0  0  0  0  0  0  0
  -20.3247  -38.9879   -7.7023 C   0  0  0  0  0  0  0  0  0  0  0  0
  -20.7248  -40.2635   -7.9906 C   0  0  0  0  0  0  0  0  0  0  0  0
  -22.0523  -40.5579   -7.8672 C   0  0  0  0  0  0  0  0  0  0  0  0
  -22.9813  -39.6206   -7.4672 C   0  0  0  0  0  0  0  0  0  0  0  0
  -22.5705  -38.3183   -7.1722 C   0  0  0  0  0  0  0  0  0  0  0  0
  -19.7176  -41.2757   -8.4171 C   0  0  0  0  0  0  0  0  0  0  0  0
  -19.9263  -41.8353   -9.8327 C   0  0  0  0  0  0  0  0  0  0  0  0
  -20.1825  -42.6640   -8.6132 C   0  0  0  0  0  0  0  0  0  0  0  0
  -18.3232  -41.0068   -8.1507 N   0  0  0  0  0  0  0  0  0  0  0  0
  -18.1119  -39.7877   -7.4498 C   0  0  0  0  0  0  0  0  0  0  0  0
  -17.1296  -38.8340   -8.1292 C   0  0  1  0  0  0  0  0  0  0  0  0
  -16.3369  -38.2027   -7.1681 O   0  0  0  0  0  0  0  0  0  0  0  0
  -16.2506  -39.6960   -8.9760 C   0  0  2  0  0  0  0  0  0  0  0  0
  -16.4178  -39.5917  -10.4441 C   0  0  0  0  0  0  0  0  0  0  0  0
  -15.7448  -38.4486  -11.1430 C   0  0  0  0  0  0  0  0  0  0  0  0
  -14.4255  -38.1190  -11.2402 C   0  0  0  0  0  0  0  0  0  0  0  0
  -14.0646  -37.0001  -11.9664 C   0  0  0  0  0  0  0  0  0  0  0  0
  -15.0700  -36.2314  -12.5838 C   0  0  0  0  0  0  0  0  0  0  0  0
  -16.4064  -36.5171  -12.5180 C   0  0  0  0  0  0  0  0  0  0  0  0
  -16.7031  -37.6399  -11.7846 C   0  0  0  0  0  0  0  0  0  0  0  0
  -12.8106  -36.4865  -12.1958 O   0  0  0  0  0  0  0  0  0  0  0  0
  -11.5955  -36.8617  -12.6990 C   0  0  0  0  0  0  0  0  0  0  0  0
  -10.6397  -37.5028  -11.7484 C   0  0  0  0  0  0  0  0  0  0  0  0
  -10.5141  -38.9736  -11.8117 C   0  0  0  0  0  0  0  0  0  0  0  0
  -10.2838  -39.6445  -10.4840 C   0  0  0  0  0  0  0  0  0  0  0  0
  -10.7300  -41.0199  -10.6125 N   0  0  0  0  0  0  0  0  0  0  0  0
  -12.0308  -41.6071  -10.5317 C   0  0  0  0  0  0  0  0  0  0  0  0
  -12.1624  -42.5664  -11.5736 C   0  0  0  0  0  0  0  0  0  0  0  0
  -13.2876  -43.3079  -11.7855 C   0  0  0  0  0  0  0  0  0  0  0  0
  -14.3140  -43.0703  -10.9132 C   0  0  0  0  0  0  0  0  0  0  0  0
  -14.2423  -42.1261   -9.8536 C   0  0  0  0  0  0  0  0  0  0  0  0
  -13.0843  -41.3973   -9.6737 C   0  0  0  0  0  0  0  0  0  0  0  0
  -15.5161  -42.1266   -9.1153 C   0  0  0  0  0  0  0  0  0  0  0  0
  -16.0588  -43.3092   -8.9011 O   0  0  0  0  0  0  0  0  0  0  0  0
  -16.3139  -41.1070   -8.5703 N   0  0  0  0  0  0  0  0  0  0  0  0
  -13.3808  -44.2884  -12.8621 C   0  0  0  0  0  0  0  0  0  0  0  0
  -14.2600  -45.4717  -12.7791 C   0  0  0  0  0  0  0  0  0  0  0  0
  -12.6556  -44.0642  -13.8871 O   0  0  0  0  0  0  0  0  0  0  0  0
  1  2  1  0
  2  3  1  0
  2  4  1  0
  4  5  2  0
  5  6  1  0
  6  7  2  0
  7  8  1  0
  8  9  2  0
  6 10  1  0
 10 11  1  0
 11 12  1  0
 10 13  1  0
 13 14  1  0
 14 15  1  0
 15 16  1  1
 15 17  1  0
 17 18  1  6
 18 19  1  0
 19 20  2  0
 20 21  1  0
 21 22  2  0
 22 23  1  0
 23 24  2  0
 21 25  1  0
 25 26  1  0
 26 27  1  0
 27 28  1  0
 28 29  1  0
 29 30  1  0
 30 31  1  0
 31 32  2  0
 32 33  1  0
 33 34  2  0
 34 35  1  0
 35 36  2  0
 35 37  1  0
 37 38  2  0
 37 39  1  0
 33 40  1  0
 40 41  1  0
 40 42  2  0
  9  4  1  0
 12 10  1  0
 24 19  1  0
 36 31  1  0
 39 17  1  0
M  END
$$$$
