
     RDKit          3D

 42 46  0  0  0  0  0  0  0  0999 V2000
  -22.8325  -36.4090   -6.2121 C   0  0  0  0  0  0  0  0  0  0  0  0
  -23.3693  -37.3520   -7.2389 C   0  0  0  0  0  0  0  0  0  0  0  0
  -24.7445  -37.8576   -6.7662 C   0  0  0  0  0  0  0  0  0  0  0  0
  -22.4758  -38.5175   -7.4943 C   0  0  0  0  0  0  0  0  0  0  0  0
  -21.8465  -39.1761   -6.4301 C   0  0  0  0  0  0  0  0  0  0  0  0
  -21.0405  -40.2601   -6.6439 C   0  0  0  0  0  0  0  0  0  0  0  0
  -20.8671  -40.6808   -7.9311 C   0  0  0  0  0  0  0  0  0  0  0  0
  -21.4720  -40.0533   -8.9997 C   0  0  0  0  0  0  0  0  0  0  0  0
  -22.2958  -38.9467   -8.7793 C   0  0  0  0  0  0  0  0  0  0  0  0
  -20.3929  -40.9396   -5.4865 C   0  0  0  0  0  0  0  0  0  0  0  0
  -20.8484  -42.3881   -5.2525 C   0  0  0  0  0  0  0  0  0  0  0  0
  -21.2439  -41.2797   -4.3281 C   0  0  0  0  0  0  0  0  0  0  0  0
  -18.9644  -40.7971   -5.3221 N   0  0  0  0  0  0  0  0  0  0  0  0
  -18.4779  -39.5246   -5.7299 C   0  0  0  0  0  0  0  0  0  0  0  0
  -18.8607  -39.1329   -7.1568 C   0  0  1  0  0  0  0  0  0  0  0  0
  -18.2935  -37.8983   -7.4802 O   0  0  0  0  0  0  0  0  0  0  0  0
  -18.2558  -40.1772   -8.0379 C   0  0  2  0  0  0  0  0  0  0  0  0
  -18.7967  -40.2953   -9.4118 C   0  0  0  0  0  0  0  0  0  0  0  0
  -18.2991  -39.3269  -10.4427 C   0  0  0  0  0  0  0  0  0  0  0  0
  -17.0424  -39.1095  -10.9245 C   0  0  0  0  0  0  0  0  0  0  0  0
  -16.8537  -38.1475  -11.8985 C   0  0  0  0  0  0  0  0  0  0  0  0
  -17.9646  -37.4181  -12.3640 C   0  0  0  0  0  0  0  0  0  0  0  0
  -19.2448  -37.5960  -11.9153 C   0  0  0  0  0  0  0  0  0  0  0  0
  -19.3697  -38.5651  -10.9500 C   0  0  0  0  0  0  0  0  0  0  0  0
  -15.6896  -37.7654  -12.5212 O   0  0  0  0  0  0  0  0  0  0  0  0
  -14.6579  -38.2993  -13.2430 C   0  0  0  0  0  0  0  0  0  0  0  0
  -13.5048  -38.8468  -12.4693 C   0  0  0  0  0  0  0  0  0  0  0  0
  -13.4390  -40.3143  -12.3099 C   0  0  0  0  0  0  0  0  0  0  0  0
  -12.8886  -40.7809  -10.9889 C   0  0  0  0  0  0  0  0  0  0  0  0
  -13.3890  -42.1248  -10.7636 N   0  0  0  0  0  0  0  0  0  0  0  0
  -14.6389  -42.5998  -10.2580 C   0  0  0  0  0  0  0  0  0  0  0  0
  -15.0626  -43.7003  -11.0532 C   0  0  0  0  0  0  0  0  0  0  0  0
  -16.2233  -44.3859  -10.8443 C   0  0  0  0  0  0  0  0  0  0  0  0
  -16.9804  -43.9422   -9.7950 C   0  0  0  0  0  0  0  0  0  0  0  0
  -16.6103  -42.8496   -8.9653 C   0  0  0  0  0  0  0  0  0  0  0  0
  -15.4266  -42.1839   -9.2108 C   0  0  0  0  0  0  0  0  0  0  0  0
  -17.6474  -42.6445   -7.9405 C   0  0  0  0  0  0  0  0  0  0  0  0
  -18.1466  -43.7375   -7.3975 O   0  0  0  0  0  0  0  0  0  0  0  0
  -18.2484  -41.4984   -7.3944 N   0  0  0  0  0  0  0  0  0  0  0  0
  -16.6196  -45.5155  -11.6786 C   0  0  0  0  0  0  0  0  0  0  0  0
  -15.6461  -46.2903  -12.4736 C   0  0  0  0  0  0  0  0  0  0  0  0
  -17.8631  -45.7989  -11.6823 O   0  0  0  0  0  0  0  0  0  0  0  0
  1  2  1  0
  2  3  1  0
  2  4  1  0
  4  5  2  0
  5  6  1  0
  6  7  2  0
  7  8  1  0
  8  9  2  0
  6 10  1  0
 10 11  1  0
 11 12  1  0
 10 13  1  0
 13 14  1  0
 14 15  1  0
 15 16  1  6
 15 17  1  0
 17 18  1  6
 18 19  1  0
 19 20  2  0
 20 21  1  0
 21 22  2  0
 22 23  1  0
 23 24  2  0
 21 25  1  0
 25 26  1  0
 26 27  1  0
 27 28  1  0
 28 29  1  0
 29 30  1  0
 30 31  1  0
 31 32  2  0
 32 33  1  0
 33 34  2  0
 34 35  1  0
 35 36  2  0
 35 37  1  0
 37 38  2  0
 37 39  1  0
 33 40  1  0
 40 41  1  0
 40 42  2  0
  9  4  1  0
 12 10  1  0
 24 19  1  0
 36 31  1  0
 39 17  1  0
M  END
$$$$
