
     RDKit          3D

 42 46  0  0  0  0  0  0  0  0999 V2000
  -19.0403  -34.8088  -12.2602 C   0  0  0  0  0  0  0  0  0  0  0  0
  -19.7197  -35.9443  -11.5668 C   0  0  0  0  0  0  0  0  0  0  0  0
  -19.9375  -35.5564  -10.0929 C   0  0  0  0  0  0  0  0  0  0  0  0
  -18.9525  -37.2205  -11.6333 C   0  0  0  0  0  0  0  0  0  0  0  0
  -17.8351  -37.4205  -10.8124 C   0  0  0  0  0  0  0  0  0  0  0  0
  -17.1321  -38.5932  -10.8448 C   0  0  0  0  0  0  0  0  0  0  0  0
  -17.5541  -39.5653  -11.7056 C   0  0  0  0  0  0  0  0  0  0  0  0
  -18.6493  -39.3982  -12.5267 C   0  0  0  0  0  0  0  0  0  0  0  0
  -19.3668  -38.2001  -12.4916 C   0  0  0  0  0  0  0  0  0  0  0  0
  -15.9524  -38.7728   -9.9521 C   0  0  0  0  0  0  0  0  0  0  0  0
  -14.7121  -37.9588  -10.3518 C   0  0  0  0  0  0  0  0  0  0  0  0
  -14.7639  -39.4455  -10.5149 C   0  0  0  0  0  0  0  0  0  0  0  0
  -16.1667  -38.7505   -8.5233 N   0  0  0  0  0  0  0  0  0  0  0  0
  -17.4943  -38.3914   -8.1617 C   0  0  0  0  0  0  0  0  0  0  0  0
  -17.9562  -38.9601   -6.8204 C   0  0  1  0  0  0  0  0  0  0  0  0
  -19.1224  -38.3134   -6.4052 O   0  0  0  0  0  0  0  0  0  0  0  0
  -18.2779  -40.3960   -7.0802 C   0  0  2  0  0  0  0  0  0  0  0  0
  -18.5025  -41.2604   -5.8985 C   0  0  0  0  0  0  0  0  0  0  0  0
  -19.8521  -41.2139   -5.2470 C   0  0  0  0  0  0  0  0  0  0  0  0
  -21.0873  -41.5152   -5.7391 C   0  0  0  0  0  0  0  0  0  0  0  0
  -22.1874  -41.3961   -4.9111 C   0  0  0  0  0  0  0  0  0  0  0  0
  -22.0010  -40.9653   -3.5835 C   0  0  0  0  0  0  0  0  0  0  0  0
  -20.7855  -40.6506   -3.0401 C   0  0  0  0  0  0  0  0  0  0  0  0
  -19.7312  -40.7893   -3.9095 C   0  0  0  0  0  0  0  0  0  0  0  0
  -23.5100  -41.6438   -5.1908 O   0  0  0  0  0  0  0  0  0  0  0  0
  -24.3178  -42.6445   -5.6562 C   0  0  0  0  0  0  0  0  0  0  0  0
  -24.4773  -42.7501   -7.1365 C   0  0  0  0  0  0  0  0  0  0  0  0
  -23.6947  -43.7983   -7.8235 C   0  0  0  0  0  0  0  0  0  0  0  0
  -23.2029  -43.4210   -9.1951 C   0  0  0  0  0  0  0  0  0  0  0  0
  -22.0506  -44.2550   -9.4848 N   0  0  0  0  0  0  0  0  0  0  0  0
  -20.6767  -44.1397   -9.1075 C   0  0  0  0  0  0  0  0  0  0  0  0
  -20.1996  -45.4250   -8.7286 C   0  0  0  0  0  0  0  0  0  0  0  0
  -18.9251  -45.6680   -8.3073 C   0  0  0  0  0  0  0  0  0  0  0  0
  -18.1062  -44.5731   -8.2683 C   0  0  0  0  0  0  0  0  0  0  0  0
  -18.5246  -43.2653   -8.6343 C   0  0  0  0  0  0  0  0  0  0  0  0
  -19.8229  -43.0633   -9.0563 C   0  0  0  0  0  0  0  0  0  0  0  0
  -17.3972  -42.3319   -8.4744 C   0  0  0  0  0  0  0  0  0  0  0  0
  -16.2198  -42.7757   -8.8689 O   0  0  0  0  0  0  0  0  0  0  0  0
  -17.2934  -41.0242   -7.9722 N   0  0  0  0  0  0  0  0  0  0  0  0
  -18.4715  -47.0037   -7.9339 C   0  0  0  0  0  0  0  0  0  0  0  0
  -17.0482  -47.3947   -7.9741 C   0  0  0  0  0  0  0  0  0  0  0  0
  -19.3798  -47.8206   -7.5672 O   0  0  0  0  0  0  0  0  0  0  0  0
  1  2  1  0
  2  3  1  0
  2  4  1  0
  4  5  2  0
  5  6  1  0
  6  7  2  0
  7  8  1  0
  8  9  2  0
  6 10  1  0
 10 11  1  0
 11 12  1  0
 10 13  1  0
 13 14  1  0
 14 15  1  0
 15 16  1  6
 15 17  1  0
 17 18  1  1
 18 19  1  0
 19 20  2  0
 20 21  1  0
 21 22  2  0
 22 23  1  0
 23 24  2  0
 21 25  1  0
 25 26  1  0
 26 27  1  0
 27 28  1  0
 28 29  1  0
 29 30  1  0
 30 31  1  0
 31 32  2  0
 32 33  1  0
 33 34  2  0
 34 35  1  0
 35 36  2  0
 35 37  1  0
 37 38  2  0
 37 39  1  0
 33 40  1  0
 40 41  1  0
 40 42  2  0
  9  4  1  0
 12 10  1  0
 24 19  1  0
 36 31  1  0
 39 17  1  0
M  END
$$$$
