
     RDKit          3D

 43 46  0  0  0  0  0  0  0  0999 V2000
  -15.0325  -46.6379   -9.4853 C   0  0  0  0  0  0  0  0  0  0  0  0
  -16.3006  -46.3713   -8.9520 O   0  0  0  0  0  0  0  0  0  0  0  0
  -17.0458  -45.6438   -9.8731 C   0  0  0  0  0  0  0  0  0  0  0  0
  -18.0336  -44.7903   -9.1653 C   0  0  0  0  0  0  0  0  0  0  0  0
  -19.3580  -44.7757   -9.4741 C   0  0  0  0  0  0  0  0  0  0  0  0
  -20.3159  -43.9631   -8.7977 C   0  0  0  0  0  0  0  0  0  0  0  0
  -19.9095  -43.1350   -7.7718 C   0  0  0  0  0  0  0  0  0  0  0  0
  -18.5547  -43.1282   -7.4321 C   0  0  0  0  0  0  0  0  0  0  0  0
  -17.6538  -43.9615   -8.1437 C   0  0  0  0  0  0  0  0  0  0  0  0
  -17.8117  -42.3707   -6.4129 C   0  0  0  0  0  0  0  0  0  0  0  0
  -16.9217  -43.0967   -5.7674 O   0  0  0  0  0  0  0  0  0  0  0  0
  -17.8273  -41.0550   -5.9677 N   0  0  0  0  0  0  0  0  0  0  0  0
  -18.1710  -39.8416   -6.6910 C   0  0  1  0  0  0  0  0  0  0  0  0
  -19.2178  -39.0439   -5.9961 C   0  0  0  0  0  0  0  0  0  0  0  0
  -20.6168  -39.5405   -6.0040 C   0  0  0  0  0  0  0  0  0  0  0  0
  -21.5260  -39.6792   -7.0302 C   0  0  0  0  0  0  0  0  0  0  0  0
  -22.7854  -40.1802   -6.7494 C   0  0  0  0  0  0  0  0  0  0  0  0
  -23.1279  -40.5405   -5.4266 C   0  0  0  0  0  0  0  0  0  0  0  0
  -22.2525  -40.4170   -4.3830 C   0  0  0  0  0  0  0  0  0  0  0  0
  -21.0190  -39.9196   -4.7028 C   0  0  0  0  0  0  0  0  0  0  0  0
  -23.8492  -40.4062   -7.5987 O   0  0  0  0  0  0  0  0  0  0  0  0
  -24.1016  -41.1205   -8.7547 C   0  0  0  0  0  0  0  0  0  0  0  0
  -24.5395  -42.5367   -8.4811 C   0  0  0  0  0  0  0  0  0  0  0  0
  -23.9686  -43.5365   -9.4127 C   0  0  0  0  0  0  0  0  0  0  0  0
  -22.9105  -44.4160   -8.7990 C   0  0  0  0  0  0  0  0  0  0  0  0
  -21.5981  -44.2043   -9.3850 N   0  0  0  0  0  0  0  0  0  0  0  0
  -16.9210  -39.0883   -6.9968 C   0  0  2  0  0  0  0  0  0  0  0  0
  -17.2176  -37.8838   -7.5826 O   0  0  0  0  0  0  0  0  0  0  0  0
  -15.8369  -39.7924   -7.6853 C   0  0  0  0  0  0  0  0  0  0  0  0
  -15.5315  -39.6700   -9.0095 N   0  0  0  0  0  0  0  0  0  0  0  0
  -14.4390  -39.9882   -9.7470 C   0  0  0  0  0  0  0  0  0  0  0  0
  -13.1742  -40.2872   -9.0043 C   0  0  0  0  0  0  0  0  0  0  0  0
  -14.6092  -41.1599  -10.7284 C   0  0  0  0  0  0  0  0  0  0  0  0
  -14.0684  -38.8447  -10.6965 C   0  0  0  0  0  0  0  0  0  0  0  0
  -12.9245  -38.0690  -10.6207 C   0  0  0  0  0  0  0  0  0  0  0  0
  -12.9662  -37.1520  -11.6554 C   0  0  0  0  0  0  0  0  0  0  0  0
  -11.9896  -36.1081  -12.0097 C   0  0  0  0  0  0  0  0  0  0  0  0
  -12.5528  -34.9486  -12.7686 C   0  0  0  0  0  0  0  0  0  0  0  0
  -11.4923  -34.1773  -13.5222 C   0  0  0  0  0  0  0  0  0  0  0  0
  -13.2830  -33.9614  -11.8925 C   0  0  0  0  0  0  0  0  0  0  0  0
  -13.5305  -35.5032  -13.7837 C   0  0  0  0  0  0  0  0  0  0  0  0
  -14.0808  -37.3866  -12.2975 O   0  0  0  0  0  0  0  0  0  0  0  0
  -14.7362  -38.3780  -11.7433 N   0  0  0  0  0  0  0  0  0  0  0  0
  1  2  1  0
  2  3  1  0
  3  4  1  0
  4  5  2  0
  5  6  1  0
  6  7  2  0
  7  8  1  0
  8  9  2  0
  8 10  1  0
 10 11  2  0
 10 12  1  0
 12 13  1  0
 13 14  1  1
 14 15  1  0
 15 16  2  0
 16 17  1  0
 17 18  2  0
 18 19  1  0
 19 20  2  0
 17 21  1  0
 21 22  1  0
 22 23  1  0
 23 24  1  0
 24 25  1  0
 25 26  1  0
 13 27  1  0
 27 28  1  6
 27 29  1  0
 29 30  1  0
 30 31  1  0
 31 32  1  0
 31 33  1  0
 31 34  1  0
 34 35  1  0
 35 36  2  0
 36 37  1  0
 37 38  1  0
 38 39  1  0
 38 40  1  0
 38 41  1  0
 36 42  1  0
 42 43  1  0
  9  4  1  0
 20 15  1  0
 26  6  1  0
 43 34  2  0
M  END
$$$$
