
     RDKit          3D

 43 46  0  0  0  0  0  0  0  0999 V2000
  -15.4558  -44.6117  -11.1981 C   0  0  0  0  0  0  0  0  0  0  0  0
  -16.7789  -44.5937  -11.6591 O   0  0  0  0  0  0  0  0  0  0  0  0
  -17.1771  -43.2783  -11.8696 C   0  0  0  0  0  0  0  0  0  0  0  0
  -18.0381  -42.8236  -10.7484 C   0  0  0  0  0  0  0  0  0  0  0  0
  -19.3969  -42.8557  -10.7957 C   0  0  0  0  0  0  0  0  0  0  0  0
  -20.2331  -42.4254   -9.7229 C   0  0  0  0  0  0  0  0  0  0  0  0
  -19.6647  -41.9440   -8.5617 C   0  0  0  0  0  0  0  0  0  0  0  0
  -18.2708  -41.8987   -8.4837 C   0  0  0  0  0  0  0  0  0  0  0  0
  -17.4965  -42.3431   -9.5862 C   0  0  0  0  0  0  0  0  0  0  0  0
  -17.3712  -41.4436   -7.4121 C   0  0  0  0  0  0  0  0  0  0  0  0
  -16.3371  -42.2382   -7.2250 O   0  0  0  0  0  0  0  0  0  0  0  0
  -17.3554  -40.3602   -6.5430 N   0  0  0  0  0  0  0  0  0  0  0  0
  -17.8928  -39.0222   -6.7285 C   0  0  1  0  0  0  0  0  0  0  0  0
  -18.8116  -38.6220   -5.6283 C   0  0  0  0  0  0  0  0  0  0  0  0
  -20.1593  -39.2410   -5.5625 C   0  0  0  0  0  0  0  0  0  0  0  0
  -21.2507  -39.1326   -6.3969 C   0  0  0  0  0  0  0  0  0  0  0  0
  -22.4031  -39.8358   -6.0911 C   0  0  0  0  0  0  0  0  0  0  0  0
  -22.4535  -40.6498   -4.9371 C   0  0  0  0  0  0  0  0  0  0  0  0
  -21.3909  -40.7819   -4.0861 C   0  0  0  0  0  0  0  0  0  0  0  0
  -20.2717  -40.0722   -4.4244 C   0  0  0  0  0  0  0  0  0  0  0  0
  -23.6059  -39.8851   -6.7657 O   0  0  0  0  0  0  0  0  0  0  0  0
  -24.0552  -40.1996   -8.0343 C   0  0  0  0  0  0  0  0  0  0  0  0
  -24.3644  -41.6660   -8.1965 C   0  0  0  0  0  0  0  0  0  0  0  0
  -23.9501  -42.2303   -9.5016 C   0  0  0  0  0  0  0  0  0  0  0  0
  -22.7510  -43.1394   -9.4264 C   0  0  0  0  0  0  0  0  0  0  0  0
  -21.5957  -42.6002  -10.1230 N   0  0  0  0  0  0  0  0  0  0  0  0
  -16.7660  -38.0754   -6.9682 C   0  0  2  0  0  0  0  0  0  0  0  0
  -17.1365  -36.7957   -6.6410 O   0  0  0  0  0  0  0  0  0  0  0  0
  -16.0637  -38.1427   -8.2517 C   0  0  0  0  0  0  0  0  0  0  0  0
  -15.6077  -39.2845   -8.8435 N   0  0  0  0  0  0  0  0  0  0  0  0
  -14.3835  -39.6941   -9.2583 C   0  0  0  0  0  0  0  0  0  0  0  0
  -13.2007  -38.9108   -8.7808 C   0  0  0  0  0  0  0  0  0  0  0  0
  -14.0316  -41.1621   -8.9654 C   0  0  0  0  0  0  0  0  0  0  0  0
  -14.2822  -39.6538  -10.7863 C   0  0  0  0  0  0  0  0  0  0  0  0
  -13.1100  -39.5666  -11.5171 C   0  0  0  0  0  0  0  0  0  0  0  0
  -13.4477  -39.5570  -12.8584 C   0  0  0  0  0  0  0  0  0  0  0  0
  -12.5671  -39.4788  -14.0363 C   0  0  0  0  0  0  0  0  0  0  0  0
  -11.7572  -38.2252  -14.1365 C   0  0  0  0  0  0  0  0  0  0  0  0
  -11.1397  -37.8254  -12.8150 C   0  0  0  0  0  0  0  0  0  0  0  0
  -12.5501  -37.0420  -14.6333 C   0  0  0  0  0  0  0  0  0  0  0  0
  -10.6298  -38.4907  -15.1124 C   0  0  0  0  0  0  0  0  0  0  0  0
  -14.7523  -39.6344  -12.9000 O   0  0  0  0  0  0  0  0  0  0  0  0
  -15.2530  -39.6915  -11.6894 N   0  0  0  0  0  0  0  0  0  0  0  0
  1  2  1  0
  2  3  1  0
  3  4  1  0
  4  5  2  0
  5  6  1  0
  6  7  2  0
  7  8  1  0
  8  9  2  0
  8 10  1  0
 10 11  2  0
 10 12  1  0
 12 13  1  0
 13 14  1  1
 14 15  1  0
 15 16  2  0
 16 17  1  0
 17 18  2  0
 18 19  1  0
 19 20  2  0
 17 21  1  0
 21 22  1  0
 22 23  1  0
 23 24  1  0
 24 25  1  0
 25 26  1  0
 13 27  1  0
 27 28  1  6
 27 29  1  0
 29 30  1  0
 30 31  1  0
 31 32  1  0
 31 33  1  0
 31 34  1  0
 34 35  1  0
 35 36  2  0
 36 37  1  0
 37 38  1  0
 38 39  1  0
 38 40  1  0
 38 41  1  0
 36 42  1  0
 42 43  1  0
  9  4  1  0
 20 15  1  0
 26  6  1  0
 43 34  2  0
M  END
$$$$
