
     RDKit          3D

 43 46  0  0  0  0  0  0  0  0999 V2000
  -17.0428  -48.4018   -5.9741 C   0  0  0  0  0  0  0  0  0  0  0  0
  -17.3261  -47.0296   -5.9901 O   0  0  0  0  0  0  0  0  0  0  0  0
  -18.1288  -46.7362   -7.0869 C   0  0  0  0  0  0  0  0  0  0  0  0
  -18.9796  -45.5556   -6.7913 C   0  0  0  0  0  0  0  0  0  0  0  0
  -20.2760  -45.6559   -6.3927 C   0  0  0  0  0  0  0  0  0  0  0  0
  -21.1005  -44.5285   -6.1021 C   0  0  0  0  0  0  0  0  0  0  0  0
  -20.5864  -43.2541   -6.2235 C   0  0  0  0  0  0  0  0  0  0  0  0
  -19.2574  -43.1192   -6.6315 C   0  0  0  0  0  0  0  0  0  0  0  0
  -18.4908  -44.2814   -6.9038 C   0  0  0  0  0  0  0  0  0  0  0  0
  -18.4268  -41.9266   -6.8605 C   0  0  0  0  0  0  0  0  0  0  0  0
  -17.2019  -42.0442   -6.3899 O   0  0  0  0  0  0  0  0  0  0  0  0
  -18.6328  -40.6928   -7.4645 N   0  0  0  0  0  0  0  0  0  0  0  0
  -19.5313  -40.3372   -8.5507 C   0  0  1  0  0  0  0  0  0  0  0  0
  -20.4243  -39.1997   -8.1993 C   0  0  0  0  0  0  0  0  0  0  0  0
  -21.5388  -39.4343   -7.2473 C   0  0  0  0  0  0  0  0  0  0  0  0
  -22.6870  -40.1880   -7.3604 C   0  0  0  0  0  0  0  0  0  0  0  0
  -23.5704  -40.2312   -6.2957 C   0  0  0  0  0  0  0  0  0  0  0  0
  -23.2936  -39.5087   -5.1132 C   0  0  0  0  0  0  0  0  0  0  0  0
  -22.1651  -38.7503   -4.9645 C   0  0  0  0  0  0  0  0  0  0  0  0
  -21.3181  -38.7353   -6.0385 C   0  0  0  0  0  0  0  0  0  0  0  0
  -24.7678  -40.9065   -6.1759 O   0  0  0  0  0  0  0  0  0  0  0  0
  -25.2232  -42.2075   -6.2767 C   0  0  0  0  0  0  0  0  0  0  0  0
  -25.1306  -42.9603   -4.9740 C   0  0  0  0  0  0  0  0  0  0  0  0
  -24.6937  -44.3679   -5.1191 C   0  0  0  0  0  0  0  0  0  0  0  0
  -23.2892  -44.6289   -4.6403 C   0  0  0  0  0  0  0  0  0  0  0  0
  -22.3923  -45.0091   -5.7181 N   0  0  0  0  0  0  0  0  0  0  0  0
  -18.7335  -40.1357   -9.7943 C   0  0  2  0  0  0  0  0  0  0  0  0
  -19.1413  -41.0067  -10.7726 O   0  0  0  0  0  0  0  0  0  0  0  0
  -17.2749  -40.0671   -9.6800 C   0  0  0  0  0  0  0  0  0  0  0  0
  -16.4825  -39.1112  -10.2457 N   0  0  0  0  0  0  0  0  0  0  0  0
  -15.3420  -38.4931   -9.8510 C   0  0  0  0  0  0  0  0  0  0  0  0
  -15.3110  -37.9337   -8.4629 C   0  0  0  0  0  0  0  0  0  0  0  0
  -14.0521  -39.3213   -9.9737 C   0  0  0  0  0  0  0  0  0  0  0  0
  -15.0262  -37.2983  -10.7561 C   0  0  0  0  0  0  0  0  0  0  0  0
  -13.9588  -37.2075  -11.6325 C   0  0  0  0  0  0  0  0  0  0  0  0
  -14.0295  -35.9761  -12.2587 C   0  0  0  0  0  0  0  0  0  0  0  0
  -13.1324  -35.3989  -13.2741 C   0  0  0  0  0  0  0  0  0  0  0  0
  -11.7062  -35.8401  -13.1800 C   0  0  0  0  0  0  0  0  0  0  0  0
  -10.7417  -34.6771  -13.1125 C   0  0  0  0  0  0  0  0  0  0  0  0
  -11.2745  -36.7099  -14.3343 C   0  0  0  0  0  0  0  0  0  0  0  0
  -11.5616  -36.6361  -11.8997 C   0  0  0  0  0  0  0  0  0  0  0  0
  -15.0867  -35.3843  -11.7671 O   0  0  0  0  0  0  0  0  0  0  0  0
  -15.6796  -36.1511  -10.8838 N   0  0  0  0  0  0  0  0  0  0  0  0
  1  2  1  0
  2  3  1  0
  3  4  1  0
  4  5  2  0
  5  6  1  0
  6  7  2  0
  7  8  1  0
  8  9  2  0
  8 10  1  0
 10 11  2  0
 10 12  1  0
 12 13  1  0
 13 14  1  1
 14 15  1  0
 15 16  2  0
 16 17  1  0
 17 18  2  0
 18 19  1  0
 19 20  2  0
 17 21  1  0
 21 22  1  0
 22 23  1  0
 23 24  1  0
 24 25  1  0
 25 26  1  0
 13 27  1  0
 27 28  1  6
 27 29  1  0
 29 30  1  0
 30 31  1  0
 31 32  1  0
 31 33  1  0
 31 34  1  0
 34 35  1  0
 35 36  2  0
 36 37  1  0
 37 38  1  0
 38 39  1  0
 38 40  1  0
 38 41  1  0
 36 42  1  0
 42 43  1  0
  9  4  1  0
 20 15  1  0
 26  6  1  0
 43 34  2  0
M  END
$$$$
