
     RDKit          3D

 43 46  0  0  0  0  0  0  0  0999 V2000
  -15.8134  -43.3514  -11.5218 C   0  0  0  0  0  0  0  0  0  0  0  0
  -16.1899  -44.6573  -11.8628 O   0  0  0  0  0  0  0  0  0  0  0  0
  -16.5779  -45.3408  -10.7158 C   0  0  0  0  0  0  0  0  0  0  0  0
  -17.5672  -44.5353   -9.9557 C   0  0  0  0  0  0  0  0  0  0  0  0
  -18.9100  -44.6368  -10.1458 C   0  0  0  0  0  0  0  0  0  0  0  0
  -19.8689  -43.8711   -9.4182 C   0  0  0  0  0  0  0  0  0  0  0  0
  -19.4445  -42.9690   -8.4646 C   0  0  0  0  0  0  0  0  0  0  0  0
  -18.0706  -42.8424   -8.2472 C   0  0  0  0  0  0  0  0  0  0  0  0
  -17.1695  -43.6348   -9.0040 C   0  0  0  0  0  0  0  0  0  0  0  0
  -17.3066  -41.9850   -7.3275 C   0  0  0  0  0  0  0  0  0  0  0  0
  -16.3089  -42.6105   -6.7367 O   0  0  0  0  0  0  0  0  0  0  0  0
  -17.3904  -40.6558   -6.9328 N   0  0  0  0  0  0  0  0  0  0  0  0
  -17.8917  -39.5062   -7.6680 C   0  0  1  0  0  0  0  0  0  0  0  0
  -18.9362  -38.7614   -6.9135 C   0  0  0  0  0  0  0  0  0  0  0  0
  -20.2859  -39.3643   -6.7782 C   0  0  0  0  0  0  0  0  0  0  0  0
  -21.2655  -39.6186   -7.7135 C   0  0  0  0  0  0  0  0  0  0  0  0
  -22.4516  -40.2022   -7.3031 C   0  0  0  0  0  0  0  0  0  0  0  0
  -22.6494  -40.5283   -5.9424 C   0  0  0  0  0  0  0  0  0  0  0  0
  -21.7006  -40.2910   -4.9862 C   0  0  0  0  0  0  0  0  0  0  0  0
  -20.5433  -39.7147   -5.4329 C   0  0  0  0  0  0  0  0  0  0  0  0
  -23.5625  -40.5475   -8.0453 O   0  0  0  0  0  0  0  0  0  0  0  0
  -23.8544  -41.3301   -9.1464 C   0  0  0  0  0  0  0  0  0  0  0  0
  -24.1513  -42.7623   -8.7815 C   0  0  0  0  0  0  0  0  0  0  0  0
  -23.5835  -43.7557   -9.7217 C   0  0  0  0  0  0  0  0  0  0  0  0
  -22.4091  -44.5226   -9.1716 C   0  0  0  0  0  0  0  0  0  0  0  0
  -21.1731  -44.2366   -9.8796 N   0  0  0  0  0  0  0  0  0  0  0  0
  -16.7374  -38.6731   -8.1120 C   0  0  2  0  0  0  0  0  0  0  0  0
  -17.0711  -37.3425   -8.0950 O   0  0  0  0  0  0  0  0  0  0  0  0
  -16.0351  -39.0571   -9.3386 C   0  0  0  0  0  0  0  0  0  0  0  0
  -14.9880  -39.9291   -9.4091 N   0  0  0  0  0  0  0  0  0  0  0  0
  -13.6421  -39.7680   -9.4444 C   0  0  0  0  0  0  0  0  0  0  0  0
  -12.9930  -39.1596   -8.2405 C   0  0  0  0  0  0  0  0  0  0  0  0
  -12.8216  -41.0346   -9.7399 C   0  0  0  0  0  0  0  0  0  0  0  0
  -13.2307  -38.8585  -10.6063 C   0  0  0  0  0  0  0  0  0  0  0  0
  -13.9103  -37.7294  -11.0294 C   0  0  0  0  0  0  0  0  0  0  0  0
  -13.2163  -37.1945  -12.0998 C   0  0  0  0  0  0  0  0  0  0  0  0
  -13.5242  -35.9971  -12.8999 C   0  0  0  0  0  0  0  0  0  0  0  0
  -12.3303  -35.2664  -13.4274 C   0  0  0  0  0  0  0  0  0  0  0  0
  -12.6536  -34.4258  -14.6423 C   0  0  0  0  0  0  0  0  0  0  0  0
  -11.1930  -36.1810  -13.8089 C   0  0  0  0  0  0  0  0  0  0  0  0
  -11.8499  -34.3344  -12.3344 C   0  0  0  0  0  0  0  0  0  0  0  0
  -12.1858  -37.9775  -12.2860 O   0  0  0  0  0  0  0  0  0  0  0  0
  -12.1841  -38.9579  -11.4151 N   0  0  0  0  0  0  0  0  0  0  0  0
  1  2  1  0
  2  3  1  0
  3  4  1  0
  4  5  2  0
  5  6  1  0
  6  7  2  0
  7  8  1  0
  8  9  2  0
  8 10  1  0
 10 11  2  0
 10 12  1  0
 12 13  1  0
 13 14  1  1
 14 15  1  0
 15 16  2  0
 16 17  1  0
 17 18  2  0
 18 19  1  0
 19 20  2  0
 17 21  1  0
 21 22  1  0
 22 23  1  0
 23 24  1  0
 24 25  1  0
 25 26  1  0
 13 27  1  0
 27 28  1  6
 27 29  1  0
 29 30  1  0
 30 31  1  0
 31 32  1  0
 31 33  1  0
 31 34  1  0
 34 35  1  0
 35 36  2  0
 36 37  1  0
 37 38  1  0
 38 39  1  0
 38 40  1  0
 38 41  1  0
 36 42  1  0
 42 43  1  0
  9  4  1  0
 20 15  1  0
 26  6  1  0
 43 34  2  0
M  END
$$$$
