
     RDKit          3D

 43 46  0  0  0  0  0  0  0  0999 V2000
  -22.9526  -37.7038   -8.0836 C   0  0  0  0  0  0  0  0  0  0  0  0
  -22.9420  -38.8370   -7.2594 O   0  0  0  0  0  0  0  0  0  0  0  0
  -23.4801  -39.9165   -7.9509 C   0  0  0  0  0  0  0  0  0  0  0  0
  -22.4718  -41.0010   -8.0620 C   0  0  0  0  0  0  0  0  0  0  0  0
  -22.7183  -42.2849   -7.6873 C   0  0  0  0  0  0  0  0  0  0  0  0
  -21.7584  -43.3350   -7.7938 C   0  0  0  0  0  0  0  0  0  0  0  0
  -20.5027  -43.0669   -8.2982 C   0  0  0  0  0  0  0  0  0  0  0  0
  -20.2198  -41.7568   -8.6912 C   0  0  0  0  0  0  0  0  0  0  0  0
  -21.2196  -40.7589   -8.5604 C   0  0  0  0  0  0  0  0  0  0  0  0
  -19.0013  -41.1511   -9.2507 C   0  0  0  0  0  0  0  0  0  0  0  0
  -19.2404  -40.3117  -10.2376 O   0  0  0  0  0  0  0  0  0  0  0  0
  -17.6433  -41.2565   -8.9785 N   0  0  0  0  0  0  0  0  0  0  0  0
  -16.9760  -41.5606   -7.7232 C   0  0  1  0  0  0  0  0  0  0  0  0
  -16.0272  -42.7005   -7.8463 C   0  0  0  0  0  0  0  0  0  0  0  0
  -16.5744  -44.0739   -7.9805 C   0  0  0  0  0  0  0  0  0  0  0  0
  -17.2737  -44.8640   -7.0941 C   0  0  0  0  0  0  0  0  0  0  0  0
  -17.6713  -46.1293   -7.4904 C   0  0  0  0  0  0  0  0  0  0  0  0
  -17.3595  -46.5985   -8.7864 C   0  0  0  0  0  0  0  0  0  0  0  0
  -16.6675  -45.8432   -9.6929 C   0  0  0  0  0  0  0  0  0  0  0  0
  -16.2943  -44.5996   -9.2627 C   0  0  0  0  0  0  0  0  0  0  0  0
  -18.3716  -47.0890   -6.7886 O   0  0  0  0  0  0  0  0  0  0  0  0
  -19.5804  -47.1940   -6.1268 C   0  0  0  0  0  0  0  0  0  0  0  0
  -20.7081  -47.6124   -7.0354 C   0  0  0  0  0  0  0  0  0  0  0  0
  -21.9872  -46.9137   -6.7723 C   0  0  0  0  0  0  0  0  0  0  0  0
  -22.3613  -45.8988   -7.8210 C   0  0  0  0  0  0  0  0  0  0  0  0
  -22.3605  -44.5392   -7.3092 N   0  0  0  0  0  0  0  0  0  0  0  0
  -16.3729  -40.3102   -7.1789 C   0  0  2  0  0  0  0  0  0  0  0  0
  -16.4154  -40.3142   -5.8076 O   0  0  0  0  0  0  0  0  0  0  0  0
  -16.7989  -39.0293   -7.7472 C   0  0  0  0  0  0  0  0  0  0  0  0
  -16.1280  -38.3289   -8.7070 N   0  0  0  0  0  0  0  0  0  0  0  0
  -16.4668  -37.2911   -9.5111 C   0  0  0  0  0  0  0  0  0  0  0  0
  -17.9267  -37.0255   -9.7086 C   0  0  0  0  0  0  0  0  0  0  0  0
  -15.8624  -35.9272   -9.1379 C   0  0  0  0  0  0  0  0  0  0  0  0
  -15.9161  -37.4934  -10.9261 C   0  0  0  0  0  0  0  0  0  0  0  0
  -16.0457  -36.6045  -11.9792 C   0  0  0  0  0  0  0  0  0  0  0  0
  -15.4130  -37.1563  -13.0785 C   0  0  0  0  0  0  0  0  0  0  0  0
  -15.2680  -36.6078  -14.4376 C   0  0  0  0  0  0  0  0  0  0  0  0
  -14.0352  -35.7901  -14.6598 C   0  0  0  0  0  0  0  0  0  0  0  0
  -14.2158  -34.7492  -15.7420 C   0  0  0  0  0  0  0  0  0  0  0  0
  -12.8312  -36.6177  -15.0348 C   0  0  0  0  0  0  0  0  0  0  0  0
  -13.7335  -35.0641  -13.3652 C   0  0  0  0  0  0  0  0  0  0  0  0
  -14.9413  -38.3087  -12.6795 O   0  0  0  0  0  0  0  0  0  0  0  0
  -15.2309  -38.5172  -11.4176 N   0  0  0  0  0  0  0  0  0  0  0  0
  1  2  1  0
  2  3  1  0
  3  4  1  0
  4  5  2  0
  5  6  1  0
  6  7  2  0
  7  8  1  0
  8  9  2  0
  8 10  1  0
 10 11  2  0
 10 12  1  0
 12 13  1  0
 13 14  1  6
 14 15  1  0
 15 16  2  0
 16 17  1  0
 17 18  2  0
 18 19  1  0
 19 20  2  0
 17 21  1  0
 21 22  1  0
 22 23  1  0
 23 24  1  0
 24 25  1  0
 25 26  1  0
 13 27  1  0
 27 28  1  1
 27 29  1  0
 29 30  1  0
 30 31  1  0
 31 32  1  0
 31 33  1  0
 31 34  1  0
 34 35  1  0
 35 36  2  0
 36 37  1  0
 37 38  1  0
 38 39  1  0
 38 40  1  0
 38 41  1  0
 36 42  1  0
 42 43  1  0
  9  4  1  0
 20 15  1  0
 26  6  1  0
 43 34  2  0
M  END
$$$$
