
     RDKit          3D

 43 46  0  0  0  0  0  0  0  0999 V2000
  -25.5887  -41.5529  -10.6670 C   0  0  0  0  0  0  0  0  0  0  0  0
  -25.0765  -40.3029  -10.2948 O   0  0  0  0  0  0  0  0  0  0  0  0
  -24.6945  -40.3393   -8.9584 C   0  0  0  0  0  0  0  0  0  0  0  0
  -23.5990  -41.3241   -8.7708 C   0  0  0  0  0  0  0  0  0  0  0  0
  -23.7780  -42.5263   -8.1608 C   0  0  0  0  0  0  0  0  0  0  0  0
  -22.7336  -43.4811   -7.9793 C   0  0  0  0  0  0  0  0  0  0  0  0
  -21.4618  -43.2002   -8.4340 C   0  0  0  0  0  0  0  0  0  0  0  0
  -21.2471  -41.9726   -9.0646 C   0  0  0  0  0  0  0  0  0  0  0  0
  -22.3292  -41.0676   -9.2145 C   0  0  0  0  0  0  0  0  0  0  0  0
  -20.0334  -41.3766   -9.6448 C   0  0  0  0  0  0  0  0  0  0  0  0
  -20.2461  -40.7748  -10.7973 O   0  0  0  0  0  0  0  0  0  0  0  0
  -18.7018  -41.2974   -9.2576 N   0  0  0  0  0  0  0  0  0  0  0  0
  -18.1302  -41.2834   -7.9209 C   0  0  1  0  0  0  0  0  0  0  0  0
  -17.0883  -42.3302   -7.7381 C   0  0  0  0  0  0  0  0  0  0  0  0
  -17.5125  -43.7486   -7.6287 C   0  0  0  0  0  0  0  0  0  0  0  0
  -18.2261  -44.4109   -6.6535 C   0  0  0  0  0  0  0  0  0  0  0  0
  -18.4862  -45.7613   -6.8110 C   0  0  0  0  0  0  0  0  0  0  0  0
  -18.0220  -46.4453   -7.9571 C   0  0  0  0  0  0  0  0  0  0  0  0
  -17.3111  -45.8216   -8.9453 C   0  0  0  0  0  0  0  0  0  0  0  0
  -17.0766  -44.4879   -8.7522 C   0  0  0  0  0  0  0  0  0  0  0  0
  -19.1708  -46.6256   -5.9813 O   0  0  0  0  0  0  0  0  0  0  0  0
  -20.4231  -46.7119   -5.4029 C   0  0  0  0  0  0  0  0  0  0  0  0
  -21.4273  -47.4060   -6.2873 C   0  0  0  0  0  0  0  0  0  0  0  0
  -22.7755  -46.7934   -6.2675 C   0  0  0  0  0  0  0  0  0  0  0  0
  -23.1302  -46.0453   -7.5262 C   0  0  0  0  0  0  0  0  0  0  0  0
  -23.2818  -44.6175   -7.3045 N   0  0  0  0  0  0  0  0  0  0  0  0
  -17.6784  -39.8988   -7.6008 C   0  0  2  0  0  0  0  0  0  0  0  0
  -17.9267  -39.6054   -6.2838 O   0  0  0  0  0  0  0  0  0  0  0  0
  -18.0767  -38.8132   -8.4997 C   0  0  0  0  0  0  0  0  0  0  0  0
  -17.2238  -38.0497   -9.2422 N   0  0  0  0  0  0  0  0  0  0  0  0
  -17.4075  -37.0300  -10.1169 C   0  0  0  0  0  0  0  0  0  0  0  0
  -18.5297  -37.1631  -11.0986 C   0  0  0  0  0  0  0  0  0  0  0  0
  -17.5885  -35.6355   -9.4943 C   0  0  0  0  0  0  0  0  0  0  0  0
  -16.1607  -36.8199  -10.9815 C   0  0  0  0  0  0  0  0  0  0  0  0
  -15.1433  -35.9164  -10.7279 C   0  0  0  0  0  0  0  0  0  0  0  0
  -14.2086  -36.0369  -11.7403 C   0  0  0  0  0  0  0  0  0  0  0  0
  -12.9462  -35.3024  -11.9297 C   0  0  0  0  0  0  0  0  0  0  0  0
  -12.0267  -35.8824  -12.9572 C   0  0  0  0  0  0  0  0  0  0  0  0
  -12.6324  -35.8854  -14.3431 C   0  0  0  0  0  0  0  0  0  0  0  0
  -11.6092  -37.2992  -12.6509 C   0  0  0  0  0  0  0  0  0  0  0  0
  -10.7859  -35.0148  -12.9964 C   0  0  0  0  0  0  0  0  0  0  0  0
  -14.6646  -36.9650  -12.5404 O   0  0  0  0  0  0  0  0  0  0  0  0
  -15.8102  -37.4317  -12.1051 N   0  0  0  0  0  0  0  0  0  0  0  0
  1  2  1  0
  2  3  1  0
  3  4  1  0
  4  5  2  0
  5  6  1  0
  6  7  2  0
  7  8  1  0
  8  9  2  0
  8 10  1  0
 10 11  2  0
 10 12  1  0
 12 13  1  0
 13 14  1  6
 14 15  1  0
 15 16  2  0
 16 17  1  0
 17 18  2  0
 18 19  1  0
 19 20  2  0
 17 21  1  0
 21 22  1  0
 22 23  1  0
 23 24  1  0
 24 25  1  0
 25 26  1  0
 13 27  1  0
 27 28  1  1
 27 29  1  0
 29 30  1  0
 30 31  1  0
 31 32  1  0
 31 33  1  0
 31 34  1  0
 34 35  1  0
 35 36  2  0
 36 37  1  0
 37 38  1  0
 38 39  1  0
 38 40  1  0
 38 41  1  0
 36 42  1  0
 42 43  1  0
  9  4  1  0
 20 15  1  0
 26  6  1  0
 43 34  2  0
M  END
$$$$
