
     RDKit          3D

 43 46  0  0  0  0  0  0  0  0999 V2000
  -15.3892  -41.0804  -14.0931 C   0  0  0  0  0  0  0  0  0  0  0  0
  -16.7053  -41.0118  -13.6168 O   0  0  0  0  0  0  0  0  0  0  0  0
  -16.9293  -39.7592  -13.0565 C   0  0  0  0  0  0  0  0  0  0  0  0
  -17.7599  -39.8923  -11.8328 C   0  0  0  0  0  0  0  0  0  0  0  0
  -19.0027  -39.3522  -11.7168 C   0  0  0  0  0  0  0  0  0  0  0  0
  -19.8105  -39.4778  -10.5477 C   0  0  0  0  0  0  0  0  0  0  0  0
  -19.3346  -40.1769   -9.4578 C   0  0  0  0  0  0  0  0  0  0  0  0
  -18.0608  -40.7430   -9.5471 C   0  0  0  0  0  0  0  0  0  0  0  0
  -17.3090  -40.5822  -10.7394 C   0  0  0  0  0  0  0  0  0  0  0  0
  -17.2753  -41.5272   -8.5813 C   0  0  0  0  0  0  0  0  0  0  0  0
  -16.6555  -42.5554   -9.1238 O   0  0  0  0  0  0  0  0  0  0  0  0
  -17.0300  -41.4360   -7.2172 N   0  0  0  0  0  0  0  0  0  0  0  0
  -16.9994  -40.2599   -6.3631 C   0  0  1  0  0  0  0  0  0  0  0  0
  -17.8987  -40.3907   -5.1845 C   0  0  0  0  0  0  0  0  0  0  0  0
  -19.3658  -40.3005   -5.3921 C   0  0  0  0  0  0  0  0  0  0  0  0
  -20.1659  -39.2465   -5.7769 C   0  0  0  0  0  0  0  0  0  0  0  0
  -21.5305  -39.4466   -5.8952 C   0  0  0  0  0  0  0  0  0  0  0  0
  -22.0887  -40.7156   -5.6218 C   0  0  0  0  0  0  0  0  0  0  0  0
  -21.3266  -41.7846   -5.2378 C   0  0  0  0  0  0  0  0  0  0  0  0
  -19.9838  -41.5455   -5.1340 C   0  0  0  0  0  0  0  0  0  0  0  0
  -22.5194  -38.5561   -6.2598 O   0  0  0  0  0  0  0  0  0  0  0  0
  -22.8060  -37.7259   -7.3270 C   0  0  0  0  0  0  0  0  0  0  0  0
  -23.5907  -38.4198   -8.4111 C   0  0  0  0  0  0  0  0  0  0  0  0
  -23.1730  -38.0582   -9.7852 C   0  0  0  0  0  0  0  0  0  0  0  0
  -22.4233  -39.1474  -10.5073 C   0  0  0  0  0  0  0  0  0  0  0  0
  -21.0425  -38.7887  -10.7818 N   0  0  0  0  0  0  0  0  0  0  0  0
  -15.5820  -39.9409   -6.0269 C   0  0  2  0  0  0  0  0  0  0  0  0
  -15.3810  -38.5839   -6.0329 O   0  0  0  0  0  0  0  0  0  0  0  0
  -14.5216  -40.6658   -6.7306 C   0  0  0  0  0  0  0  0  0  0  0  0
  -13.6232  -40.1093   -7.5937 N   0  0  0  0  0  0  0  0  0  0  0  0
  -13.3518  -40.3018   -8.9082 C   0  0  0  0  0  0  0  0  0  0  0  0
  -11.9161  -40.4801   -9.2925 C   0  0  0  0  0  0  0  0  0  0  0  0
  -14.0908  -41.4698   -9.5825 C   0  0  0  0  0  0  0  0  0  0  0  0
  -13.8310  -39.1119   -9.7454 C   0  0  0  0  0  0  0  0  0  0  0  0
  -14.9808  -38.3751   -9.5200 C   0  0  0  0  0  0  0  0  0  0  0  0
  -15.0519  -37.3942  -10.4926 C   0  0  0  0  0  0  0  0  0  0  0  0
  -16.0780  -36.3564  -10.6903 C   0  0  0  0  0  0  0  0  0  0  0  0
  -16.1722  -35.8194  -12.0832 C   0  0  0  0  0  0  0  0  0  0  0  0
  -15.3505  -34.5648  -12.2789 C   0  0  0  0  0  0  0  0  0  0  0  0
  -17.5846  -35.4963  -12.5028 C   0  0  0  0  0  0  0  0  0  0  0  0
  -15.6259  -36.8804  -13.0159 C   0  0  0  0  0  0  0  0  0  0  0  0
  -13.9942  -37.5571  -11.2438 O   0  0  0  0  0  0  0  0  0  0  0  0
  -13.2702  -38.5628  -10.8148 N   0  0  0  0  0  0  0  0  0  0  0  0
  1  2  1  0
  2  3  1  0
  3  4  1  0
  4  5  2  0
  5  6  1  0
  6  7  2  0
  7  8  1  0
  8  9  2  0
  8 10  1  0
 10 11  2  0
 10 12  1  0
 12 13  1  0
 13 14  1  1
 14 15  1  0
 15 16  2  0
 16 17  1  0
 17 18  2  0
 18 19  1  0
 19 20  2  0
 17 21  1  0
 21 22  1  0
 22 23  1  0
 23 24  1  0
 24 25  1  0
 25 26  1  0
 13 27  1  0
 27 28  1  6
 27 29  1  0
 29 30  1  0
 30 31  1  0
 31 32  1  0
 31 33  1  0
 31 34  1  0
 34 35  1  0
 35 36  2  0
 36 37  1  0
 37 38  1  0
 38 39  1  0
 38 40  1  0
 38 41  1  0
 36 42  1  0
 42 43  1  0
  9  4  1  0
 20 15  1  0
 26  6  1  0
 43 34  2  0
M  END
$$$$
