
     RDKit          3D

 43 46  0  0  0  0  0  0  0  0999 V2000
  -22.7850  -37.2343   -7.1735 C   0  0  0  0  0  0  0  0  0  0  0  0
  -22.4709  -38.4805   -7.7319 O   0  0  0  0  0  0  0  0  0  0  0  0
  -22.2454  -39.3997   -6.7134 C   0  0  0  0  0  0  0  0  0  0  0  0
  -21.4792  -40.5590   -7.2371 C   0  0  0  0  0  0  0  0  0  0  0  0
  -21.9026  -41.8455   -7.1134 C   0  0  0  0  0  0  0  0  0  0  0  0
  -21.1765  -42.9658   -7.6165 C   0  0  0  0  0  0  0  0  0  0  0  0
  -19.9761  -42.7683   -8.2670 C   0  0  0  0  0  0  0  0  0  0  0  0
  -19.5151  -41.4574   -8.4091 C   0  0  0  0  0  0  0  0  0  0  0  0
  -20.2862  -40.3873   -7.8868 C   0  0  0  0  0  0  0  0  0  0  0  0
  -18.2966  -40.9174   -9.0321 C   0  0  0  0  0  0  0  0  0  0  0  0
  -18.5130  -39.8361   -9.7530 O   0  0  0  0  0  0  0  0  0  0  0  0
  -16.9565  -41.2831   -9.0373 N   0  0  0  0  0  0  0  0  0  0  0  0
  -16.1875  -41.9795   -8.0189 C   0  0  1  0  0  0  0  0  0  0  0  0
  -15.4910  -43.1802   -8.5555 C   0  0  0  0  0  0  0  0  0  0  0  0
  -16.2946  -44.3839   -8.8857 C   0  0  0  0  0  0  0  0  0  0  0  0
  -16.9961  -45.2565   -8.0823 C   0  0  0  0  0  0  0  0  0  0  0  0
  -17.6709  -46.3142   -8.6672 C   0  0  0  0  0  0  0  0  0  0  0  0
  -17.6352  -46.4918  -10.0686 C   0  0  0  0  0  0  0  0  0  0  0  0
  -16.9500  -45.6466  -10.8975 C   0  0  0  0  0  0  0  0  0  0  0  0
  -16.2982  -44.6143  -10.2805 C   0  0  0  0  0  0  0  0  0  0  0  0
  -18.4304  -47.3040   -8.0776 O   0  0  0  0  0  0  0  0  0  0  0  0
  -19.5332  -47.3906   -7.2490 C   0  0  0  0  0  0  0  0  0  0  0  0
  -20.8345  -47.4045   -8.0098 C   0  0  0  0  0  0  0  0  0  0  0  0
  -21.9137  -46.6129   -7.3759 C   0  0  0  0  0  0  0  0  0  0  0  0
  -22.2380  -45.3286   -8.0937 C   0  0  0  0  0  0  0  0  0  0  0  0
  -21.9157  -44.1509   -7.3063 N   0  0  0  0  0  0  0  0  0  0  0  0
  -15.2947  -41.0023   -7.3321 C   0  0  2  0  0  0  0  0  0  0  0  0
  -14.9929  -41.4355   -6.0659 O   0  0  0  0  0  0  0  0  0  0  0  0
  -15.6615  -39.5847   -7.3648 C   0  0  0  0  0  0  0  0  0  0  0  0
  -15.8335  -38.8393   -8.4947 N   0  0  0  0  0  0  0  0  0  0  0  0
  -14.9834  -38.3785   -9.4452 C   0  0  0  0  0  0  0  0  0  0  0  0
  -13.5451  -38.2227   -9.0609 C   0  0  0  0  0  0  0  0  0  0  0  0
  -14.9582  -39.1692  -10.7640 C   0  0  0  0  0  0  0  0  0  0  0  0
  -15.4067  -36.9883   -9.9296 C   0  0  0  0  0  0  0  0  0  0  0  0
  -16.1773  -36.7214  -11.0480 C   0  0  0  0  0  0  0  0  0  0  0  0
  -16.3331  -35.3498  -11.1366 C   0  0  0  0  0  0  0  0  0  0  0  0
  -17.0662  -34.5625  -12.1424 C   0  0  0  0  0  0  0  0  0  0  0  0
  -18.2850  -33.8627  -11.6301 C   0  0  0  0  0  0  0  0  0  0  0  0
  -18.5860  -34.2015  -10.1872 C   0  0  0  0  0  0  0  0  0  0  0  0
  -19.5277  -34.1700  -12.4280 C   0  0  0  0  0  0  0  0  0  0  0  0
  -18.0200  -32.3736  -11.7102 C   0  0  0  0  0  0  0  0  0  0  0  0
  -15.6831  -34.8488  -10.1186 O   0  0  0  0  0  0  0  0  0  0  0  0
  -15.1350  -35.8014   -9.4032 N   0  0  0  0  0  0  0  0  0  0  0  0
  1  2  1  0
  2  3  1  0
  3  4  1  0
  4  5  2  0
  5  6  1  0
  6  7  2  0
  7  8  1  0
  8  9  2  0
  8 10  1  0
 10 11  2  0
 10 12  1  0
 12 13  1  0
 13 14  1  6
 14 15  1  0
 15 16  2  0
 16 17  1  0
 17 18  2  0
 18 19  1  0
 19 20  2  0
 17 21  1  0
 21 22  1  0
 22 23  1  0
 23 24  1  0
 24 25  1  0
 25 26  1  0
 13 27  1  0
 27 28  1  1
 27 29  1  0
 29 30  1  0
 30 31  1  0
 31 32  1  0
 31 33  1  0
 31 34  1  0
 34 35  1  0
 35 36  2  0
 36 37  1  0
 37 38  1  0
 38 39  1  0
 38 40  1  0
 38 41  1  0
 36 42  1  0
 42 43  1  0
  9  4  1  0
 20 15  1  0
 26  6  1  0
 43 34  2  0
M  END
$$$$
