
     RDKit          3D

 43 46  0  0  0  0  0  0  0  0999 V2000
  -18.6634  -48.4276   -8.0641 C   0  0  0  0  0  0  0  0  0  0  0  0
  -18.0041  -47.2832   -7.5959 O   0  0  0  0  0  0  0  0  0  0  0  0
  -18.0318  -46.2996   -8.5781 C   0  0  0  0  0  0  0  0  0  0  0  0
  -19.0047  -45.2405   -8.2079 C   0  0  0  0  0  0  0  0  0  0  0  0
  -20.3311  -45.3167   -8.4984 C   0  0  0  0  0  0  0  0  0  0  0  0
  -21.2747  -44.3072   -8.1435 C   0  0  0  0  0  0  0  0  0  0  0  0
  -20.8514  -43.1797   -7.4704 C   0  0  0  0  0  0  0  0  0  0  0  0
  -19.4941  -43.0731   -7.1585 C   0  0  0  0  0  0  0  0  0  0  0  0
  -18.6080  -44.1135   -7.5390 C   0  0  0  0  0  0  0  0  0  0  0  0
  -18.7350  -42.0186   -6.4682 C   0  0  0  0  0  0  0  0  0  0  0  0
  -17.8485  -42.4868   -5.6135 O   0  0  0  0  0  0  0  0  0  0  0  0
  -18.7326  -40.6301   -6.5078 N   0  0  0  0  0  0  0  0  0  0  0  0
  -19.0680  -39.7391   -7.6065 C   0  0  1  0  0  0  0  0  0  0  0  0
  -20.1006  -38.7361   -7.2289 C   0  0  0  0  0  0  0  0  0  0  0  0
  -21.5050  -39.1860   -7.0593 C   0  0  0  0  0  0  0  0  0  0  0  0
  -22.4234  -39.6606   -7.9706 C   0  0  0  0  0  0  0  0  0  0  0  0
  -23.6863  -40.0163   -7.5294 C   0  0  0  0  0  0  0  0  0  0  0  0
  -24.0229  -39.8901   -6.1628 C   0  0  0  0  0  0  0  0  0  0  0  0
  -23.1383  -39.4233   -5.2298 C   0  0  0  0  0  0  0  0  0  0  0  0
  -21.9018  -39.0842   -5.7062 C   0  0  0  0  0  0  0  0  0  0  0  0
  -24.7588  -40.5093   -8.2440 O   0  0  0  0  0  0  0  0  0  0  0  0
  -25.0279  -41.5772   -9.0790 C   0  0  0  0  0  0  0  0  0  0  0  0
  -25.4796  -42.8044   -8.3290 C   0  0  0  0  0  0  0  0  0  0  0  0
  -24.9269  -44.0729   -8.8570 C   0  0  0  0  0  0  0  0  0  0  0  0
  -23.8742  -44.6983   -7.9792 C   0  0  0  0  0  0  0  0  0  0  0  0
  -22.5639  -44.7206   -8.6064 N   0  0  0  0  0  0  0  0  0  0  0  0
  -17.8119  -39.1554   -8.1589 C   0  0  2  0  0  0  0  0  0  0  0  0
  -17.8825  -39.0713   -9.5263 O   0  0  0  0  0  0  0  0  0  0  0  0
  -16.5324  -39.6991   -7.6980 C   0  0  0  0  0  0  0  0  0  0  0  0
  -15.3069  -39.1531   -7.9465 N   0  0  0  0  0  0  0  0  0  0  0  0
  -14.2403  -39.5534   -8.6818 C   0  0  0  0  0  0  0  0  0  0  0  0
  -12.9226  -39.6552   -7.9788 C   0  0  0  0  0  0  0  0  0  0  0  0
  -14.3992  -40.8919   -9.4222 C   0  0  0  0  0  0  0  0  0  0  0  0
  -13.9845  -38.5890   -9.8441 C   0  0  0  0  0  0  0  0  0  0  0  0
  -13.2837  -37.3979   -9.7675 C   0  0  0  0  0  0  0  0  0  0  0  0
  -13.2789  -36.8283  -11.0281 C   0  0  0  0  0  0  0  0  0  0  0  0
  -12.6675  -35.5644  -11.4726 C   0  0  0  0  0  0  0  0  0  0  0  0
  -11.1789  -35.5996  -11.6157 C   0  0  0  0  0  0  0  0  0  0  0  0
  -10.6145  -34.2973  -12.1380 C   0  0  0  0  0  0  0  0  0  0  0  0
  -10.6945  -36.6944  -12.5333 C   0  0  0  0  0  0  0  0  0  0  0  0
  -10.5966  -35.8365  -10.2377 C   0  0  0  0  0  0  0  0  0  0  0  0
  -13.9454  -37.6508  -11.7954 O   0  0  0  0  0  0  0  0  0  0  0  0
  -14.3647  -38.6878  -11.1111 N   0  0  0  0  0  0  0  0  0  0  0  0
  1  2  1  0
  2  3  1  0
  3  4  1  0
  4  5  2  0
  5  6  1  0
  6  7  2  0
  7  8  1  0
  8  9  2  0
  8 10  1  0
 10 11  2  0
 10 12  1  0
 12 13  1  0
 13 14  1  1
 14 15  1  0
 15 16  2  0
 16 17  1  0
 17 18  2  0
 18 19  1  0
 19 20  2  0
 17 21  1  0
 21 22  1  0
 22 23  1  0
 23 24  1  0
 24 25  1  0
 25 26  1  0
 13 27  1  0
 27 28  1  6
 27 29  1  0
 29 30  1  0
 30 31  1  0
 31 32  1  0
 31 33  1  0
 31 34  1  0
 34 35  1  0
 35 36  2  0
 36 37  1  0
 37 38  1  0
 38 39  1  0
 38 40  1  0
 38 41  1  0
 36 42  1  0
 42 43  1  0
  9  4  1  0
 20 15  1  0
 26  6  1  0
 43 34  2  0
M  END
$$$$
