
     RDKit          3D

 43 46  0  0  0  0  0  0  0  0999 V2000
  -24.1489  -38.7791   -6.5706 C   0  0  0  0  0  0  0  0  0  0  0  0
  -24.2546  -40.0504   -5.9906 O   0  0  0  0  0  0  0  0  0  0  0  0
  -23.1478  -40.2828   -5.1817 C   0  0  0  0  0  0  0  0  0  0  0  0
  -22.2474  -41.2722   -5.8264 C   0  0  0  0  0  0  0  0  0  0  0  0
  -22.3715  -42.6148   -5.6486 C   0  0  0  0  0  0  0  0  0  0  0  0
  -21.5148  -43.5739   -6.2664 C   0  0  0  0  0  0  0  0  0  0  0  0
  -20.4950  -43.1499   -7.0930 C   0  0  0  0  0  0  0  0  0  0  0  0
  -20.3425  -41.7761   -7.2945 C   0  0  0  0  0  0  0  0  0  0  0  0
  -21.2293  -40.8749   -6.6512 C   0  0  0  0  0  0  0  0  0  0  0  0
  -19.3717  -41.0126   -8.0941 C   0  0  0  0  0  0  0  0  0  0  0  0
  -19.9147  -40.0169   -8.7646 O   0  0  0  0  0  0  0  0  0  0  0  0
  -18.0019  -41.0950   -8.3091 N   0  0  0  0  0  0  0  0  0  0  0  0
  -16.9591  -41.5931   -7.4270 C   0  0  1  0  0  0  0  0  0  0  0  0
  -16.1196  -42.6379   -8.0740 C   0  0  0  0  0  0  0  0  0  0  0  0
  -16.6975  -43.9888   -8.2853 C   0  0  0  0  0  0  0  0  0  0  0  0
  -17.0722  -44.9670   -7.3899 C   0  0  0  0  0  0  0  0  0  0  0  0
  -17.5947  -46.1549   -7.8716 C   0  0  0  0  0  0  0  0  0  0  0  0
  -17.7374  -46.3556   -9.2631 C   0  0  0  0  0  0  0  0  0  0  0  0
  -17.3768  -45.4082  -10.1814 C   0  0  0  0  0  0  0  0  0  0  0  0
  -16.8662  -44.2492   -9.6646 C   0  0  0  0  0  0  0  0  0  0  0  0
  -18.0338  -47.2648   -7.1794 O   0  0  0  0  0  0  0  0  0  0  0  0
  -18.9551  -47.5560   -6.1911 C   0  0  0  0  0  0  0  0  0  0  0  0
  -20.3259  -47.8558   -6.7419 C   0  0  0  0  0  0  0  0  0  0  0  0
  -21.4359  -47.2877   -5.9428 C   0  0  0  0  0  0  0  0  0  0  0  0
  -22.1246  -46.1155   -6.5920 C   0  0  0  0  0  0  0  0  0  0  0  0
  -21.9366  -44.8778   -5.8549 N   0  0  0  0  0  0  0  0  0  0  0  0
  -16.1937  -40.4367   -6.8789 C   0  0  2  0  0  0  0  0  0  0  0  0
  -15.3712  -40.8453   -5.8598 O   0  0  0  0  0  0  0  0  0  0  0  0
  -16.9270  -39.2128   -6.5482 C   0  0  0  0  0  0  0  0  0  0  0  0
  -16.9728  -38.0872   -7.3181 N   0  0  0  0  0  0  0  0  0  0  0  0
  -16.3321  -37.7064   -8.4508 C   0  0  0  0  0  0  0  0  0  0  0  0
  -16.0059  -36.2528   -8.5979 C   0  0  0  0  0  0  0  0  0  0  0  0
  -15.0164  -38.4411   -8.7575 C   0  0  0  0  0  0  0  0  0  0  0  0
  -17.1667  -38.0424   -9.6905 C   0  0  0  0  0  0  0  0  0  0  0  0
  -16.9612  -37.5410  -10.9641 C   0  0  0  0  0  0  0  0  0  0  0  0
  -17.9236  -38.0874  -11.7940 C   0  0  0  0  0  0  0  0  0  0  0  0
  -18.1343  -37.8747  -13.2360 C   0  0  0  0  0  0  0  0  0  0  0  0
  -18.4396  -36.4637  -13.6276 C   0  0  0  0  0  0  0  0  0  0  0  0
  -19.6550  -35.9131  -12.9155 C   0  0  0  0  0  0  0  0  0  0  0  0
  -18.6763  -36.2943  -15.1077 C   0  0  0  0  0  0  0  0  0  0  0  0
  -17.2483  -35.6158  -13.2325 C   0  0  0  0  0  0  0  0  0  0  0  0
  -18.6502  -38.8664  -11.0357 O   0  0  0  0  0  0  0  0  0  0  0  0
  -18.2152  -38.8476   -9.7988 N   0  0  0  0  0  0  0  0  0  0  0  0
  1  2  1  0
  2  3  1  0
  3  4  1  0
  4  5  2  0
  5  6  1  0
  6  7  2  0
  7  8  1  0
  8  9  2  0
  8 10  1  0
 10 11  2  0
 10 12  1  0
 12 13  1  0
 13 14  1  6
 14 15  1  0
 15 16  2  0
 16 17  1  0
 17 18  2  0
 18 19  1  0
 19 20  2  0
 17 21  1  0
 21 22  1  0
 22 23  1  0
 23 24  1  0
 24 25  1  0
 25 26  1  0
 13 27  1  0
 27 28  1  1
 27 29  1  0
 29 30  1  0
 30 31  1  0
 31 32  1  0
 31 33  1  0
 31 34  1  0
 34 35  1  0
 35 36  2  0
 36 37  1  0
 37 38  1  0
 38 39  1  0
 38 40  1  0
 38 41  1  0
 36 42  1  0
 42 43  1  0
  9  4  1  0
 20 15  1  0
 26  6  1  0
 43 34  2  0
M  END
$$$$
