
     RDKit          3D

 43 46  0  0  0  0  0  0  0  0999 V2000
  -17.5708  -47.5208   -5.6896 C   0  0  0  0  0  0  0  0  0  0  0  0
  -18.6300  -47.6038   -6.6032 O   0  0  0  0  0  0  0  0  0  0  0  0
  -18.3955  -46.7347   -7.6629 C   0  0  0  0  0  0  0  0  0  0  0  0
  -19.1168  -45.4561   -7.4392 C   0  0  0  0  0  0  0  0  0  0  0  0
  -20.4710  -45.3470   -7.5022 C   0  0  0  0  0  0  0  0  0  0  0  0
  -21.1740  -44.1247   -7.2847 C   0  0  0  0  0  0  0  0  0  0  0  0
  -20.4723  -42.9729   -6.9946 C   0  0  0  0  0  0  0  0  0  0  0  0
  -19.0797  -43.0538   -6.9234 C   0  0  0  0  0  0  0  0  0  0  0  0
  -18.4418  -44.3007   -7.1489 C   0  0  0  0  0  0  0  0  0  0  0  0
  -18.0592  -42.0306   -6.6473 C   0  0  0  0  0  0  0  0  0  0  0  0
  -17.1050  -42.4482   -5.8406 O   0  0  0  0  0  0  0  0  0  0  0  0
  -17.8627  -40.7137   -7.0432 N   0  0  0  0  0  0  0  0  0  0  0  0
  -18.2662  -40.0512   -8.2727 C   0  0  1  0  0  0  0  0  0  0  0  0
  -19.0523  -38.8133   -8.0188 C   0  0  0  0  0  0  0  0  0  0  0  0
  -20.4497  -38.9413   -7.5347 C   0  0  0  0  0  0  0  0  0  0  0  0
  -21.5824  -39.4313   -8.1479 C   0  0  0  0  0  0  0  0  0  0  0  0
  -22.7775  -39.4337   -7.4495 C   0  0  0  0  0  0  0  0  0  0  0  0
  -22.8285  -38.9373   -6.1274 C   0  0  0  0  0  0  0  0  0  0  0  0
  -21.7257  -38.4435   -5.4865 C   0  0  0  0  0  0  0  0  0  0  0  0
  -20.5652  -38.4601   -6.2105 C   0  0  0  0  0  0  0  0  0  0  0  0
  -24.0255  -39.8673   -7.8474 O   0  0  0  0  0  0  0  0  0  0  0  0
  -24.5993  -41.0283   -8.3303 C   0  0  0  0  0  0  0  0  0  0  0  0
  -25.0748  -41.9443   -7.2316 C   0  0  0  0  0  0  0  0  0  0  0  0
  -24.8218  -43.3804   -7.4902 C   0  0  0  0  0  0  0  0  0  0  0  0
  -23.7247  -43.9740   -6.6454 C   0  0  0  0  0  0  0  0  0  0  0  0
  -22.5735  -44.3842   -7.4310 N   0  0  0  0  0  0  0  0  0  0  0  0
  -17.0655  -39.8552   -9.1350 C   0  0  2  0  0  0  0  0  0  0  0  0
  -17.4225  -39.2923  -10.3341 O   0  0  0  0  0  0  0  0  0  0  0  0
  -16.1377  -40.9766   -9.2986 C   0  0  0  0  0  0  0  0  0  0  0  0
  -14.8221  -40.9724   -8.9366 N   0  0  0  0  0  0  0  0  0  0  0  0
  -13.8173  -40.0744   -9.0869 C   0  0  0  0  0  0  0  0  0  0  0  0
  -13.5770  -39.1199   -7.9591 C   0  0  0  0  0  0  0  0  0  0  0  0
  -12.4337  -40.6626   -9.4104 C   0  0  0  0  0  0  0  0  0  0  0  0
  -14.0620  -39.1789  -10.3054 C   0  0  0  0  0  0  0  0  0  0  0  0
  -13.7924  -37.8233  -10.3801 C   0  0  0  0  0  0  0  0  0  0  0  0
  -14.1540  -37.3893  -11.6427 C   0  0  0  0  0  0  0  0  0  0  0  0
  -14.0653  -36.0372  -12.2196 C   0  0  0  0  0  0  0  0  0  0  0  0
  -12.7338  -35.6868  -12.8044 C   0  0  0  0  0  0  0  0  0  0  0  0
  -12.2085  -36.7569  -13.7352 C   0  0  0  0  0  0  0  0  0  0  0  0
  -11.6711  -35.4427  -11.7621 C   0  0  0  0  0  0  0  0  0  0  0  0
  -12.9132  -34.4183  -13.6122 C   0  0  0  0  0  0  0  0  0  0  0  0
  -14.6109  -38.4435  -12.2668 O   0  0  0  0  0  0  0  0  0  0  0  0
  -14.5619  -39.4999  -11.4913 N   0  0  0  0  0  0  0  0  0  0  0  0
  1  2  1  0
  2  3  1  0
  3  4  1  0
  4  5  2  0
  5  6  1  0
  6  7  2  0
  7  8  1  0
  8  9  2  0
  8 10  1  0
 10 11  2  0
 10 12  1  0
 12 13  1  0
 13 14  1  1
 14 15  1  0
 15 16  2  0
 16 17  1  0
 17 18  2  0
 18 19  1  0
 19 20  2  0
 17 21  1  0
 21 22  1  0
 22 23  1  0
 23 24  1  0
 24 25  1  0
 25 26  1  0
 13 27  1  0
 27 28  1  6
 27 29  1  0
 29 30  1  0
 30 31  1  0
 31 32  1  0
 31 33  1  0
 31 34  1  0
 34 35  1  0
 35 36  2  0
 36 37  1  0
 37 38  1  0
 38 39  1  0
 38 40  1  0
 38 41  1  0
 36 42  1  0
 42 43  1  0
  9  4  1  0
 20 15  1  0
 26  6  1  0
 43 34  2  0
M  END
$$$$
