
     RDKit          3D

 43 46  0  0  0  0  0  0  0  0999 V2000
  -14.3880  -45.6330  -10.5856 C   0  0  0  0  0  0  0  0  0  0  0  0
  -14.8296  -44.6017   -9.7459 O   0  0  0  0  0  0  0  0  0  0  0  0
  -15.7059  -43.7795  -10.4454 C   0  0  0  0  0  0  0  0  0  0  0  0
  -16.8723  -43.4391   -9.5918 C   0  0  0  0  0  0  0  0  0  0  0  0
  -18.0268  -44.1580   -9.5914 C   0  0  0  0  0  0  0  0  0  0  0  0
  -19.1514  -43.8422   -8.7723 C   0  0  0  0  0  0  0  0  0  0  0  0
  -19.0983  -42.7546   -7.9252 C   0  0  0  0  0  0  0  0  0  0  0  0
  -17.9253  -41.9966   -7.9039 C   0  0  0  0  0  0  0  0  0  0  0  0
  -16.8423  -42.3652   -8.7428 C   0  0  0  0  0  0  0  0  0  0  0  0
  -17.5561  -40.7978   -7.1350 C   0  0  0  0  0  0  0  0  0  0  0  0
  -16.3278  -40.8387   -6.6606 O   0  0  0  0  0  0  0  0  0  0  0  0
  -18.2054  -39.6194   -6.7895 N   0  0  0  0  0  0  0  0  0  0  0  0
  -19.2544  -38.9037   -7.4972 C   0  0  1  0  0  0  0  0  0  0  0  0
  -20.4419  -38.6425   -6.6390 C   0  0  0  0  0  0  0  0  0  0  0  0
  -21.3369  -39.7755   -6.2942 C   0  0  0  0  0  0  0  0  0  0  0  0
  -22.1769  -40.5400   -7.0746 C   0  0  0  0  0  0  0  0  0  0  0  0
  -22.9088  -41.5538   -6.4809 C   0  0  0  0  0  0  0  0  0  0  0  0
  -22.7928  -41.7948   -5.0933 C   0  0  0  0  0  0  0  0  0  0  0  0
  -21.9699  -41.0573   -4.2873 C   0  0  0  0  0  0  0  0  0  0  0  0
  -21.2637  -40.0667   -4.9127 C   0  0  0  0  0  0  0  0  0  0  0  0
  -23.8025  -42.4389   -7.0483 O   0  0  0  0  0  0  0  0  0  0  0  0
  -23.8093  -43.3755   -8.0647 C   0  0  0  0  0  0  0  0  0  0  0  0
  -23.3699  -44.7412   -7.6019 C   0  0  0  0  0  0  0  0  0  0  0  0
  -22.5057  -45.4576   -8.5680 C   0  0  0  0  0  0  0  0  0  0  0  0
  -21.0605  -45.5475   -8.1521 C   0  0  0  0  0  0  0  0  0  0  0  0
  -20.1772  -44.8046   -9.0345 N   0  0  0  0  0  0  0  0  0  0  0  0
  -18.6696  -37.6868   -8.1304 C   0  0  2  0  0  0  0  0  0  0  0  0
  -19.5094  -37.1993   -9.0995 O   0  0  0  0  0  0  0  0  0  0  0  0
  -17.2746  -37.7372   -8.5740 C   0  0  0  0  0  0  0  0  0  0  0  0
  -16.8189  -37.3322   -9.7947 N   0  0  0  0  0  0  0  0  0  0  0  0
  -15.6024  -37.3644  -10.3927 C   0  0  0  0  0  0  0  0  0  0  0  0
  -15.4038  -36.4876  -11.5896 C   0  0  0  0  0  0  0  0  0  0  0  0
  -14.3984  -37.0712   -9.4821 C   0  0  0  0  0  0  0  0  0  0  0  0
  -15.2744  -38.7760  -10.8891 C   0  0  0  0  0  0  0  0  0  0  0  0
  -15.2505  -39.9213  -10.1123 C   0  0  0  0  0  0  0  0  0  0  0  0
  -14.9120  -40.9819  -10.9333 C   0  0  0  0  0  0  0  0  0  0  0  0
  -14.7554  -42.4060  -10.5919 C   0  0  0  0  0  0  0  0  0  0  0  0
  -13.4036  -42.9786  -10.8787 C   0  0  0  0  0  0  0  0  0  0  0  0
  -12.2809  -42.0593  -10.4521 C   0  0  0  0  0  0  0  0  0  0  0  0
  -13.1886  -43.2964  -12.3375 C   0  0  0  0  0  0  0  0  0  0  0  0
  -13.2773  -44.2622  -10.0847 C   0  0  0  0  0  0  0  0  0  0  0  0
  -14.7479  -40.4733  -12.1266 O   0  0  0  0  0  0  0  0  0  0  0  0
  -14.9579  -39.1789  -12.1126 N   0  0  0  0  0  0  0  0  0  0  0  0
  1  2  1  0
  2  3  1  0
  3  4  1  0
  4  5  2  0
  5  6  1  0
  6  7  2  0
  7  8  1  0
  8  9  2  0
  8 10  1  0
 10 11  2  0
 10 12  1  0
 12 13  1  0
 13 14  1  1
 14 15  1  0
 15 16  2  0
 16 17  1  0
 17 18  2  0
 18 19  1  0
 19 20  2  0
 17 21  1  0
 21 22  1  0
 22 23  1  0
 23 24  1  0
 24 25  1  0
 25 26  1  0
 13 27  1  0
 27 28  1  6
 27 29  1  0
 29 30  1  0
 30 31  1  0
 31 32  1  0
 31 33  1  0
 31 34  1  0
 34 35  1  0
 35 36  2  0
 36 37  1  0
 37 38  1  0
 38 39  1  0
 38 40  1  0
 38 41  1  0
 36 42  1  0
 42 43  1  0
  9  4  1  0
 20 15  1  0
 26  6  1  0
 43 34  2  0
M  END
$$$$
