
     RDKit          3D

 43 46  0  0  0  0  0  0  0  0999 V2000
  -18.7598  -46.2331   -7.7639 C   0  0  0  0  0  0  0  0  0  0  0  0
  -18.7818  -45.0766   -8.5547 O   0  0  0  0  0  0  0  0  0  0  0  0
  -18.2898  -45.3731   -9.8209 C   0  0  0  0  0  0  0  0  0  0  0  0
  -17.2040  -44.4250  -10.1779 C   0  0  0  0  0  0  0  0  0  0  0  0
  -15.9604  -44.8279  -10.5530 C   0  0  0  0  0  0  0  0  0  0  0  0
  -14.9118  -43.9258  -10.9021 C   0  0  0  0  0  0  0  0  0  0  0  0
  -15.1379  -42.5653  -10.8660 C   0  0  0  0  0  0  0  0  0  0  0  0
  -16.4059  -42.1212  -10.4840 C   0  0  0  0  0  0  0  0  0  0  0  0
  -17.4055  -43.0709  -10.1503 C   0  0  0  0  0  0  0  0  0  0  0  0
  -16.9585  -40.7653  -10.3396 C   0  0  0  0  0  0  0  0  0  0  0  0
  -18.1803  -40.6451  -10.8176 O   0  0  0  0  0  0  0  0  0  0  0  0
  -16.4899  -39.5697   -9.8103 N   0  0  0  0  0  0  0  0  0  0  0  0
  -15.5348  -39.3488   -8.7367 C   0  0  1  0  0  0  0  0  0  0  0  0
  -14.4171  -38.4554   -9.1462 C   0  0  0  0  0  0  0  0  0  0  0  0
  -13.3806  -38.9847  -10.0677 C   0  0  0  0  0  0  0  0  0  0  0  0
  -12.4227  -39.9599   -9.8937 C   0  0  0  0  0  0  0  0  0  0  0  0
  -11.5704  -40.2599  -10.9425 C   0  0  0  0  0  0  0  0  0  0  0  0
  -11.6854  -39.5706  -12.1707 C   0  0  0  0  0  0  0  0  0  0  0  0
  -12.6233  -38.5972  -12.3802 C   0  0  0  0  0  0  0  0  0  0  0  0
  -13.4460  -38.3320  -11.3200 C   0  0  0  0  0  0  0  0  0  0  0  0
  -10.5476  -41.1840  -11.0051 O   0  0  0  0  0  0  0  0  0  0  0  0
  -10.3844  -42.5437  -10.8184 C   0  0  0  0  0  0  0  0  0  0  0  0
  -10.6388  -43.3392  -12.0734 C   0  0  0  0  0  0  0  0  0  0  0  0
  -11.3698  -44.6072  -11.8473 C   0  0  0  0  0  0  0  0  0  0  0  0
  -12.7979  -44.5883  -12.3269 C   0  0  0  0  0  0  0  0  0  0  0  0
  -13.7548  -44.6972  -11.2392 N   0  0  0  0  0  0  0  0  0  0  0  0
  -16.2689  -38.9019   -7.5182 C   0  0  2  0  0  0  0  0  0  0  0  0
  -15.5084  -39.1112   -6.3958 O   0  0  0  0  0  0  0  0  0  0  0  0
  -17.6554  -39.3402   -7.3431 C   0  0  0  0  0  0  0  0  0  0  0  0
  -18.7206  -38.9017   -8.0745 N   0  0  0  0  0  0  0  0  0  0  0  0
  -19.9496  -38.4346   -7.7428 C   0  0  0  0  0  0  0  0  0  0  0  0
  -20.0431  -37.0090   -7.2958 C   0  0  0  0  0  0  0  0  0  0  0  0
  -21.0382  -38.5851   -8.8185 C   0  0  0  0  0  0  0  0  0  0  0  0
  -20.5476  -39.2420   -6.5865 C   0  0  0  0  0  0  0  0  0  0  0  0
  -21.4359  -40.2962   -6.7107 C   0  0  0  0  0  0  0  0  0  0  0  0
  -21.7323  -40.7514   -5.4385 C   0  0  0  0  0  0  0  0  0  0  0  0
  -22.6223  -41.8517   -5.0309 C   0  0  0  0  0  0  0  0  0  0  0  0
  -24.0044  -41.4336   -4.6402 C   0  0  0  0  0  0  0  0  0  0  0  0
  -24.0529  -40.7966   -3.2693 C   0  0  0  0  0  0  0  0  0  0  0  0
  -24.9927  -42.5731   -4.6366 C   0  0  0  0  0  0  0  0  0  0  0  0
  -24.4671  -40.4008   -5.6468 C   0  0  0  0  0  0  0  0  0  0  0  0
  -21.0485  -39.9959   -4.6192 O   0  0  0  0  0  0  0  0  0  0  0  0
  -20.3495  -39.1060   -5.2820 N   0  0  0  0  0  0  0  0  0  0  0  0
  1  2  1  0
  2  3  1  0
  3  4  1  0
  4  5  2  0
  5  6  1  0
  6  7  2  0
  7  8  1  0
  8  9  2  0
  8 10  1  0
 10 11  2  0
 10 12  1  0
 12 13  1  0
 13 14  1  6
 14 15  1  0
 15 16  2  0
 16 17  1  0
 17 18  2  0
 18 19  1  0
 19 20  2  0
 17 21  1  0
 21 22  1  0
 22 23  1  0
 23 24  1  0
 24 25  1  0
 25 26  1  0
 13 27  1  0
 27 28  1  1
 27 29  1  0
 29 30  1  0
 30 31  1  0
 31 32  1  0
 31 33  1  0
 31 34  1  0
 34 35  1  0
 35 36  2  0
 36 37  1  0
 37 38  1  0
 38 39  1  0
 38 40  1  0
 38 41  1  0
 36 42  1  0
 42 43  1  0
  9  4  1  0
 20 15  1  0
 26  6  1  0
 43 34  2  0
M  END
$$$$
