
     RDKit          3D

 38 41  0  0  0  0  0  0  0  0999 V2000
  -22.8208  -38.0126   -9.6869 C   0  0  0  0  0  0  0  0  0  0  0  0
  -21.5911  -38.0888   -8.7806 C   0  0  0  0  0  0  0  0  0  0  0  0
  -21.8765  -37.2011   -7.5928 C   0  0  0  0  0  0  0  0  0  0  0  0
  -21.3856  -39.4706   -8.2936 C   0  0  0  0  0  0  0  0  0  0  0  0
  -20.1442  -40.1026   -8.3179 C   0  0  0  0  0  0  0  0  0  0  0  0
  -19.9897  -41.3896   -7.8464 C   0  0  0  0  0  0  0  0  0  0  0  0
  -18.6740  -42.0716   -7.8705 C   0  0  0  0  0  0  0  0  0  0  0  0
  -17.6105  -41.2151   -8.2769 N   0  0  0  0  0  0  0  0  0  0  0  0
  -17.5204  -40.0034   -7.5421 C   0  0  0  0  0  0  0  0  0  0  0  0
  -17.3930  -38.7477   -8.3703 C   0  0  1  0  0  0  0  0  0  0  0  0
  -17.8602  -37.6362   -7.6952 O   0  0  0  0  0  0  0  0  0  0  0  0
  -16.0673  -38.5815   -9.0349 C   0  0  2  0  0  0  0  0  0  0  0  0
  -16.1417  -38.2226  -10.5026 C   0  0  0  0  0  0  0  0  0  0  0  0
  -15.0864  -37.2409  -10.9417 C   0  0  0  0  0  0  0  0  0  0  0  0
  -13.7417  -37.4064  -11.0711 C   0  0  0  0  0  0  0  0  0  0  0  0
  -12.9849  -36.3194  -11.5126 C   0  0  0  0  0  0  0  0  0  0  0  0
  -13.6193  -35.1048  -11.8038 C   0  0  0  0  0  0  0  0  0  0  0  0
  -14.9760  -34.9032  -11.6835 C   0  0  0  0  0  0  0  0  0  0  0  0
  -15.6782  -35.9928  -11.2503 C   0  0  0  0  0  0  0  0  0  0  0  0
  -11.6323  -36.2351  -11.7231 O   0  0  0  0  0  0  0  0  0  0  0  0
  -10.5947  -36.7660  -12.4041 C   0  0  0  0  0  0  0  0  0  0  0  0
  -10.8892  -38.1700  -12.8728 C   0  0  0  0  0  0  0  0  0  0  0  0
  -11.9528  -38.0723  -13.9535 C   0  0  0  0  0  0  0  0  0  0  0  0
  -12.6986  -39.3498  -14.1779 C   0  0  0  0  0  0  0  0  0  0  0  0
  -12.4578  -40.3250  -13.2108 O   0  0  0  0  0  0  0  0  0  0  0  0
  -13.6598  -40.6788  -12.6775 C   0  0  1  0  0  0  0  0  0  0  0  0
  -14.4442  -41.6959  -13.4843 C   0  0  0  0  0  0  0  0  0  0  0  0
  -15.1699  -42.5850  -12.4616 C   0  0  0  0  0  0  0  0  0  0  0  0
  -14.8189  -41.8995  -11.1775 N   0  0  0  0  0  0  0  0  0  0  0  0
  -15.7352  -41.7702  -10.0939 C   0  0  0  0  0  0  0  0  0  0  0  0
  -15.3055  -41.0225   -8.9035 C   0  0  0  0  0  0  0  0  0  0  0  0
  -15.0600  -41.7546   -7.8670 O   0  0  0  0  0  0  0  0  0  0  0  0
  -15.1328  -39.6282   -8.7659 N   0  0  0  0  0  0  0  0  0  0  0  0
  -13.5206  -41.4838  -11.3807 C   0  0  0  0  0  0  0  0  0  0  0  0
  -12.3491  -41.5644  -10.8625 O   0  0  0  0  0  0  0  0  0  0  0  0
  -21.0823  -42.0495   -7.3480 C   0  0  0  0  0  0  0  0  0  0  0  0
  -22.3407  -41.4421   -7.3105 C   0  0  0  0  0  0  0  0  0  0  0  0
  -22.4581  -40.1604   -7.7877 C   0  0  0  0  0  0  0  0  0  0  0  0
  1  2  1  0
  2  3  1  0
  2  4  1  0
  4  5  2  0
  5  6  1  0
  6  7  1  0
  7  8  1  0
  8  9  1  0
  9 10  1  0
 10 11  1  1
 10 12  1  0
 12 13  1  6
 13 14  1  0
 14 15  1  0
 15 16  2  0
 16 17  1  0
 17 18  2  0
 18 19  1  0
 16 20  1  0
 20 21  1  0
 21 22  1  0
 22 23  1  0
 23 24  1  0
 24 25  1  0
 25 26  1  0
 26 27  1  6
 27 28  1  0
 28 29  1  0
 29 30  1  0
 30 31  1  0
 31 32  2  0
 31 33  1  0
 29 34  1  0
 34 35  2  0
  6 36  2  0
 36 37  1  0
 37 38  2  0
 19 14  2  0
 33 12  1  0
 34 26  1  0
 38  4  1  0
M  END
$$$$
