
     RDKit          3D

 38 41  0  0  0  0  0  0  0  0999 V2000
  -11.1840  -35.8494  -14.0741 C   0  0  0  0  0  0  0  0  0  0  0  0
  -12.4992  -36.6232  -14.1785 C   0  0  0  0  0  0  0  0  0  0  0  0
  -12.1534  -37.9876  -14.7254 C   0  0  0  0  0  0  0  0  0  0  0  0
  -13.1116  -36.7957  -12.8429 C   0  0  0  0  0  0  0  0  0  0  0  0
  -12.8044  -37.8650  -12.0042 C   0  0  0  0  0  0  0  0  0  0  0  0
  -13.3895  -37.9874  -10.7611 C   0  0  0  0  0  0  0  0  0  0  0  0
  -13.0715  -39.1225   -9.8627 C   0  0  0  0  0  0  0  0  0  0  0  0
  -14.2269  -39.6889   -9.2510 N   0  0  0  0  0  0  0  0  0  0  0  0
  -15.0930  -38.7412   -8.6445 C   0  0  0  0  0  0  0  0  0  0  0  0
  -15.9974  -39.2835   -7.5642 C   0  0  1  0  0  0  0  0  0  0  0  0
  -15.9389  -38.5212   -6.4133 O   0  0  0  0  0  0  0  0  0  0  0  0
  -17.3712  -39.6328   -8.0306 C   0  0  2  0  0  0  0  0  0  0  0  0
  -18.3561  -39.9235   -6.9197 C   0  0  0  0  0  0  0  0  0  0  0  0
  -19.7454  -39.4066   -7.1896 C   0  0  0  0  0  0  0  0  0  0  0  0
  -20.6717  -39.8274   -8.0936 C   0  0  0  0  0  0  0  0  0  0  0  0
  -21.9025  -39.1692   -8.1287 C   0  0  0  0  0  0  0  0  0  0  0  0
  -22.1470  -38.1075   -7.2480 C   0  0  0  0  0  0  0  0  0  0  0  0
  -21.2328  -37.6565   -6.3224 C   0  0  0  0  0  0  0  0  0  0  0  0
  -20.0432  -38.3294   -6.3212 C   0  0  0  0  0  0  0  0  0  0  0  0
  -22.9862  -39.4031   -8.9360 O   0  0  0  0  0  0  0  0  0  0  0  0
  -23.8863  -40.3335   -9.3188 C   0  0  0  0  0  0  0  0  0  0  0  0
  -23.3904  -41.7353   -9.0605 C   0  0  0  0  0  0  0  0  0  0  0  0
  -23.3594  -41.9339   -7.5544 C   0  0  0  0  0  0  0  0  0  0  0  0
  -22.4604  -43.0460   -7.1146 C   0  0  0  0  0  0  0  0  0  0  0  0
  -21.6376  -43.5437   -8.1243 O   0  0  0  0  0  0  0  0  0  0  0  0
  -20.3502  -43.4375   -7.6935 C   0  0  1  0  0  0  0  0  0  0  0  0
  -19.8844  -44.5583   -6.7839 C   0  0  0  0  0  0  0  0  0  0  0  0
  -18.4049  -44.7987   -7.1250 C   0  0  0  0  0  0  0  0  0  0  0  0
  -18.1500  -43.7004   -8.1102 N   0  0  0  0  0  0  0  0  0  0  0  0
  -16.9236  -42.9767   -8.1621 C   0  0  0  0  0  0  0  0  0  0  0  0
  -16.8047  -41.8755   -9.1285 C   0  0  0  0  0  0  0  0  0  0  0  0
  -16.0433  -42.1280  -10.1420 O   0  0  0  0  0  0  0  0  0  0  0  0
  -17.4139  -40.6030   -9.0785 N   0  0  0  0  0  0  0  0  0  0  0  0
  -19.3289  -43.6272   -8.8205 C   0  0  0  0  0  0  0  0  0  0  0  0
  -19.7806  -43.6695  -10.0212 O   0  0  0  0  0  0  0  0  0  0  0  0
  -14.2874  -37.0359  -10.3536 C   0  0  0  0  0  0  0  0  0  0  0  0
  -14.6160  -35.9518  -11.1726 C   0  0  0  0  0  0  0  0  0  0  0  0
  -14.0147  -35.8613  -12.4031 C   0  0  0  0  0  0  0  0  0  0  0  0
  1  2  1  0
  2  3  1  0
  2  4  1  0
  4  5  2  0
  5  6  1  0
  6  7  1  0
  7  8  1  0
  8  9  1  0
  9 10  1  0
 10 11  1  1
 10 12  1  0
 12 13  1  1
 13 14  1  0
 14 15  1  0
 15 16  2  0
 16 17  1  0
 17 18  2  0
 18 19  1  0
 16 20  1  0
 20 21  1  0
 21 22  1  0
 22 23  1  0
 23 24  1  0
 24 25  1  0
 25 26  1  0
 26 27  1  1
 27 28  1  0
 28 29  1  0
 29 30  1  0
 30 31  1  0
 31 32  2  0
 31 33  1  0
 29 34  1  0
 34 35  2  0
  6 36  2  0
 36 37  1  0
 37 38  2  0
 19 14  2  0
 33 12  1  0
 34 26  1  0
 38  4  1  0
M  END
$$$$
