
     RDKit          3D

 38 41  0  0  0  0  0  0  0  0999 V2000
  -22.7927  -42.4282   -5.0864 C   0  0  0  0  0  0  0  0  0  0  0  0
  -23.2009  -40.9595   -4.9609 C   0  0  0  0  0  0  0  0  0  0  0  0
  -22.6226  -40.4621   -3.6577 C   0  0  0  0  0  0  0  0  0  0  0  0
  -22.6238  -40.1606   -6.0643 C   0  0  0  0  0  0  0  0  0  0  0  0
  -21.2704  -40.1945   -6.3929 C   0  0  0  0  0  0  0  0  0  0  0  0
  -20.7703  -39.4416   -7.4350 C   0  0  0  0  0  0  0  0  0  0  0  0
  -19.3318  -39.4687   -7.7907 C   0  0  0  0  0  0  0  0  0  0  0  0
  -18.4833  -39.6681   -6.6636 N   0  0  0  0  0  0  0  0  0  0  0  0
  -17.2948  -38.8913   -6.6802 C   0  0  0  0  0  0  0  0  0  0  0  0
  -16.7770  -38.5226   -8.0494 C   0  0  1  0  0  0  0  0  0  0  0  0
  -16.5853  -37.1603   -8.1776 O   0  0  0  0  0  0  0  0  0  0  0  0
  -15.6504  -39.3748   -8.5305 C   0  0  2  0  0  0  0  0  0  0  0  0
  -15.6533  -39.6366  -10.0205 C   0  0  0  0  0  0  0  0  0  0  0  0
  -14.2789  -39.6466  -10.6378 C   0  0  0  0  0  0  0  0  0  0  0  0
  -13.2688  -40.5486  -10.5018 C   0  0  0  0  0  0  0  0  0  0  0  0
  -12.0837  -40.3194  -11.2033 C   0  0  0  0  0  0  0  0  0  0  0  0
  -11.9661  -39.1832  -12.0143 C   0  0  0  0  0  0  0  0  0  0  0  0
  -12.9671  -38.2513  -12.1738 C   0  0  0  0  0  0  0  0  0  0  0  0
  -14.1092  -38.5153  -11.4710 C   0  0  0  0  0  0  0  0  0  0  0  0
  -10.9369  -41.0709  -11.2337 O   0  0  0  0  0  0  0  0  0  0  0  0
  -10.4354  -42.2932  -11.5111 C   0  0  0  0  0  0  0  0  0  0  0  0
  -11.4992  -43.3624  -11.4594 C   0  0  0  0  0  0  0  0  0  0  0  0
  -12.4290  -43.1329  -12.6390 C   0  0  0  0  0  0  0  0  0  0  0  0
  -13.7734  -43.7686  -12.4753 C   0  0  0  0  0  0  0  0  0  0  0  0
  -14.0206  -44.2508  -11.1905 O   0  0  0  0  0  0  0  0  0  0  0  0
  -15.1608  -43.6565  -10.7421 C   0  0  1  0  0  0  0  0  0  0  0  0
  -16.4489  -44.3031  -11.2149 C   0  0  0  0  0  0  0  0  0  0  0  0
  -17.4437  -44.1760  -10.0499 C   0  0  0  0  0  0  0  0  0  0  0  0
  -16.6523  -43.3566   -9.0780 N   0  0  0  0  0  0  0  0  0  0  0  0
  -17.2368  -42.3433   -8.2644 C   0  0  0  0  0  0  0  0  0  0  0  0
  -16.3548  -41.5565   -7.3904 C   0  0  0  0  0  0  0  0  0  0  0  0
  -16.4573  -41.8331   -6.1319 O   0  0  0  0  0  0  0  0  0  0  0  0
  -15.4288  -40.5570   -7.7595 N   0  0  0  0  0  0  0  0  0  0  0  0
  -15.3668  -43.8288   -9.2331 C   0  0  0  0  0  0  0  0  0  0  0  0
  -14.3917  -44.3223   -8.5599 O   0  0  0  0  0  0  0  0  0  0  0  0
  -21.6278  -38.6497   -8.1528 C   0  0  0  0  0  0  0  0  0  0  0  0
  -22.9906  -38.5945   -7.8471 C   0  0  0  0  0  0  0  0  0  0  0  0
  -23.4540  -39.3568   -6.8039 C   0  0  0  0  0  0  0  0  0  0  0  0
  1  2  1  0
  2  3  1  0
  2  4  1  0
  4  5  2  0
  5  6  1  0
  6  7  1  0
  7  8  1  0
  8  9  1  0
  9 10  1  0
 10 11  1  1
 10 12  1  0
 12 13  1  6
 13 14  1  0
 14 15  1  0
 15 16  2  0
 16 17  1  0
 17 18  2  0
 18 19  1  0
 16 20  1  0
 20 21  1  0
 21 22  1  0
 22 23  1  0
 23 24  1  0
 24 25  1  0
 25 26  1  0
 26 27  1  6
 27 28  1  0
 28 29  1  0
 29 30  1  0
 30 31  1  0
 31 32  2  0
 31 33  1  0
 29 34  1  0
 34 35  2  0
  6 36  2  0
 36 37  1  0
 37 38  2  0
 19 14  2  0
 33 12  1  0
 34 26  1  0
 38  4  1  0
M  END
$$$$
