
     RDKit          3D

 38 41  0  0  0  0  0  0  0  0999 V2000
  -12.0515  -35.5671  -11.6609 C   0  0  0  0  0  0  0  0  0  0  0  0
  -13.3388  -35.0872  -10.9889 C   0  0  0  0  0  0  0  0  0  0  0  0
  -14.3182  -34.7888  -12.0987 C   0  0  0  0  0  0  0  0  0  0  0  0
  -13.9100  -36.1510  -10.1340 C   0  0  0  0  0  0  0  0  0  0  0  0
  -13.7435  -37.5075  -10.4046 C   0  0  0  0  0  0  0  0  0  0  0  0
  -14.2839  -38.4711   -9.5788 C   0  0  0  0  0  0  0  0  0  0  0  0
  -14.1147  -39.9165   -9.8595 C   0  0  0  0  0  0  0  0  0  0  0  0
  -14.8958  -40.7451   -9.0032 N   0  0  0  0  0  0  0  0  0  0  0  0
  -16.2104  -41.0010   -9.4749 C   0  0  0  0  0  0  0  0  0  0  0  0
  -17.1899  -39.8624   -9.3228 C   0  0  1  0  0  0  0  0  0  0  0  0
  -17.0231  -38.9053  -10.3053 O   0  0  0  0  0  0  0  0  0  0  0  0
  -18.5985  -40.2914   -9.0809 C   0  0  2  0  0  0  0  0  0  0  0  0
  -19.2420  -39.6726   -7.8596 C   0  0  0  0  0  0  0  0  0  0  0  0
  -20.6961  -39.3266   -8.0491 C   0  0  0  0  0  0  0  0  0  0  0  0
  -21.7768  -40.1436   -8.1797 C   0  0  0  0  0  0  0  0  0  0  0  0
  -23.0323  -39.5533   -8.3363 C   0  0  0  0  0  0  0  0  0  0  0  0
  -23.1448  -38.1571   -8.3574 C   0  0  0  0  0  0  0  0  0  0  0  0
  -22.0732  -37.3020   -8.2287 C   0  0  0  0  0  0  0  0  0  0  0  0
  -20.8646  -37.9216   -8.0761 C   0  0  0  0  0  0  0  0  0  0  0  0
  -24.2575  -40.1516   -8.4834 O   0  0  0  0  0  0  0  0  0  0  0  0
  -25.1351  -41.0050   -7.9143 C   0  0  0  0  0  0  0  0  0  0  0  0
  -24.4632  -41.9256   -6.9251 C   0  0  0  0  0  0  0  0  0  0  0  0
  -24.0371  -41.0797   -5.7370 C   0  0  0  0  0  0  0  0  0  0  0  0
  -22.9579  -41.7059   -4.9114 C   0  0  0  0  0  0  0  0  0  0  0  0
  -22.3725  -42.8271   -5.4984 O   0  0  0  0  0  0  0  0  0  0  0  0
  -21.0336  -42.5933   -5.5830 C   0  0  1  0  0  0  0  0  0  0  0  0
  -20.2531  -42.8713   -4.3125 C   0  0  0  0  0  0  0  0  0  0  0  0
  -18.8909  -43.4253   -4.7602 C   0  0  0  0  0  0  0  0  0  0  0  0
  -18.9939  -43.2871   -6.2476 N   0  0  0  0  0  0  0  0  0  0  0  0
  -17.8918  -42.9079   -7.0674 C   0  0  0  0  0  0  0  0  0  0  0  0
  -18.1213  -42.7413   -8.5098 C   0  0  0  0  0  0  0  0  0  0  0  0
  -17.6186  -43.6766   -9.2468 O   0  0  0  0  0  0  0  0  0  0  0  0
  -18.8131  -41.7012   -9.1674 N   0  0  0  0  0  0  0  0  0  0  0  0
  -20.3148  -43.5834   -6.5062 C   0  0  0  0  0  0  0  0  0  0  0  0
  -21.0474  -44.3636   -7.2148 O   0  0  0  0  0  0  0  0  0  0  0  0
  -14.9954  -38.0771   -8.4760 C   0  0  0  0  0  0  0  0  0  0  0  0
  -15.1797  -36.7238   -8.1781 C   0  0  0  0  0  0  0  0  0  0  0  0
  -14.6280  -35.7919   -9.0214 C   0  0  0  0  0  0  0  0  0  0  0  0
  1  2  1  0
  2  3  1  0
  2  4  1  0
  4  5  2  0
  5  6  1  0
  6  7  1  0
  7  8  1  0
  8  9  1  0
  9 10  1  0
 10 11  1  6
 10 12  1  0
 12 13  1  1
 13 14  1  0
 14 15  1  0
 15 16  2  0
 16 17  1  0
 17 18  2  0
 18 19  1  0
 16 20  1  0
 20 21  1  0
 21 22  1  0
 22 23  1  0
 23 24  1  0
 24 25  1  0
 25 26  1  0
 26 27  1  1
 27 28  1  0
 28 29  1  0
 29 30  1  0
 30 31  1  0
 31 32  2  0
 31 33  1  0
 29 34  1  0
 34 35  2  0
  6 36  2  0
 36 37  1  0
 37 38  2  0
 19 14  2  0
 33 12  1  0
 34 26  1  0
 38  4  1  0
M  END
$$$$
