
     RDKit          3D

 38 41  0  0  0  0  0  0  0  0999 V2000
  -13.1624  -33.7792  -11.8314 C   0  0  0  0  0  0  0  0  0  0  0  0
  -14.4301  -34.4467  -11.2960 C   0  0  0  0  0  0  0  0  0  0  0  0
  -15.5953  -33.7484  -11.9553 C   0  0  0  0  0  0  0  0  0  0  0  0
  -14.4670  -35.8767  -11.6732 C   0  0  0  0  0  0  0  0  0  0  0  0
  -14.3472  -36.9062  -10.7422 C   0  0  0  0  0  0  0  0  0  0  0  0
  -14.3954  -38.2288  -11.1311 C   0  0  0  0  0  0  0  0  0  0  0  0
  -14.2661  -39.3311  -10.1488 C   0  0  0  0  0  0  0  0  0  0  0  0
  -15.5224  -39.7865   -9.6546 N   0  0  0  0  0  0  0  0  0  0  0  0
  -15.4766  -40.3179   -8.3387 C   0  0  0  0  0  0  0  0  0  0  0  0
  -16.4243  -39.6859   -7.3480 C   0  0  1  0  0  0  0  0  0  0  0  0
  -16.2395  -38.3195   -7.2586 O   0  0  0  0  0  0  0  0  0  0  0  0
  -17.8420  -40.1318   -7.4830 C   0  0  2  0  0  0  0  0  0  0  0  0
  -18.4679  -40.6306   -6.1992 C   0  0  0  0  0  0  0  0  0  0  0  0
  -19.9140  -40.2398   -6.0371 C   0  0  0  0  0  0  0  0  0  0  0  0
  -21.0138  -40.6670   -6.7156 C   0  0  0  0  0  0  0  0  0  0  0  0
  -22.2555  -40.1422   -6.3523 C   0  0  0  0  0  0  0  0  0  0  0  0
  -22.3354  -39.2022   -5.3168 C   0  0  0  0  0  0  0  0  0  0  0  0
  -21.2438  -38.7483   -4.6108 C   0  0  0  0  0  0  0  0  0  0  0  0
  -20.0496  -39.2887   -4.9978 C   0  0  0  0  0  0  0  0  0  0  0  0
  -23.4948  -40.4105   -6.8749 O   0  0  0  0  0  0  0  0  0  0  0  0
  -24.3906  -41.3896   -7.1221 C   0  0  0  0  0  0  0  0  0  0  0  0
  -23.7380  -42.7494   -7.1717 C   0  0  0  0  0  0  0  0  0  0  0  0
  -23.2894  -43.0878   -5.7600 C   0  0  0  0  0  0  0  0  0  0  0  0
  -22.2232  -44.1358   -5.7046 C   0  0  0  0  0  0  0  0  0  0  0  0
  -21.6655  -44.4443   -6.9449 O   0  0  0  0  0  0  0  0  0  0  0  0
  -20.3218  -44.2446   -6.8511 C   0  0  1  0  0  0  0  0  0  0  0  0
  -19.5450  -45.3923   -6.2347 C   0  0  0  0  0  0  0  0  0  0  0  0
  -18.1972  -45.4411   -6.9723 C   0  0  0  0  0  0  0  0  0  0  0  0
  -18.3004  -44.2322   -7.8498 N   0  0  0  0  0  0  0  0  0  0  0  0
  -17.1918  -43.3815   -8.1284 C   0  0  0  0  0  0  0  0  0  0  0  0
  -17.4208  -42.1859   -8.9524 C   0  0  0  0  0  0  0  0  0  0  0  0
  -16.9419  -42.2578  -10.1508 O   0  0  0  0  0  0  0  0  0  0  0  0
  -18.0897  -40.9957   -8.5936 N   0  0  0  0  0  0  0  0  0  0  0  0
  -19.6285  -44.2160   -8.2178 C   0  0  0  0  0  0  0  0  0  0  0  0
  -20.3809  -44.1899   -9.2574 O   0  0  0  0  0  0  0  0  0  0  0  0
  -14.5639  -38.5246  -12.4584 C   0  0  0  0  0  0  0  0  0  0  0  0
  -14.6870  -37.5137  -13.4160 C   0  0  0  0  0  0  0  0  0  0  0  0
  -14.6348  -36.2087  -12.9938 C   0  0  0  0  0  0  0  0  0  0  0  0
  1  2  1  0
  2  3  1  0
  2  4  1  0
  4  5  2  0
  5  6  1  0
  6  7  1  0
  7  8  1  0
  8  9  1  0
  9 10  1  0
 10 11  1  6
 10 12  1  0
 12 13  1  1
 13 14  1  0
 14 15  1  0
 15 16  2  0
 16 17  1  0
 17 18  2  0
 18 19  1  0
 16 20  1  0
 20 21  1  0
 21 22  1  0
 22 23  1  0
 23 24  1  0
 24 25  1  0
 25 26  1  0
 26 27  1  1
 27 28  1  0
 28 29  1  0
 29 30  1  0
 30 31  1  0
 31 32  2  0
 31 33  1  0
 29 34  1  0
 34 35  2  0
  6 36  2  0
 36 37  1  0
 37 38  2  0
 19 14  2  0
 33 12  1  0
 34 26  1  0
 38  4  1  0
M  END
$$$$
