
     RDKit          3D

 38 41  0  0  0  0  0  0  0  0999 V2000
  -11.0081  -34.7826  -10.3346 C   0  0  0  0  0  0  0  0  0  0  0  0
  -12.4998  -35.1197  -10.3518 C   0  0  0  0  0  0  0  0  0  0  0  0
  -13.1588  -34.1090  -11.2598 C   0  0  0  0  0  0  0  0  0  0  0  0
  -12.7241  -36.4699  -10.9136 C   0  0  0  0  0  0  0  0  0  0  0  0
  -13.0602  -37.5688  -10.1259 C   0  0  0  0  0  0  0  0  0  0  0  0
  -13.2704  -38.8111  -10.6872 C   0  0  0  0  0  0  0  0  0  0  0  0
  -13.6257  -39.9868   -9.8577 C   0  0  0  0  0  0  0  0  0  0  0  0
  -14.4805  -39.6597   -8.7657 N   0  0  0  0  0  0  0  0  0  0  0  0
  -15.7753  -39.2188   -9.1468 C   0  0  0  0  0  0  0  0  0  0  0  0
  -16.7544  -39.0193   -8.0152 C   0  0  1  0  0  0  0  0  0  0  0  0
  -16.7610  -37.7131   -7.5645 O   0  0  0  0  0  0  0  0  0  0  0  0
  -18.0994  -39.6204   -8.2529 C   0  0  2  0  0  0  0  0  0  0  0  0
  -19.0481  -39.5197   -7.0789 C   0  0  0  0  0  0  0  0  0  0  0  0
  -20.4769  -39.2507   -7.4744 C   0  0  0  0  0  0  0  0  0  0  0  0
  -21.3738  -40.0578   -8.1041 C   0  0  0  0  0  0  0  0  0  0  0  0
  -22.6540  -39.5556   -8.3454 C   0  0  0  0  0  0  0  0  0  0  0  0
  -22.9760  -38.2534   -7.9417 C   0  0  0  0  0  0  0  0  0  0  0  0
  -22.0935  -37.4109   -7.3036 C   0  0  0  0  0  0  0  0  0  0  0  0
  -20.8534  -37.9428   -7.0861 C   0  0  0  0  0  0  0  0  0  0  0  0
  -23.7221  -40.1646   -8.9531 O   0  0  0  0  0  0  0  0  0  0  0  0
  -24.5472  -41.2319   -8.9051 C   0  0  0  0  0  0  0  0  0  0  0  0
  -23.9375  -42.3799   -8.1384 C   0  0  0  0  0  0  0  0  0  0  0  0
  -23.8779  -41.9672   -6.6773 C   0  0  0  0  0  0  0  0  0  0  0  0
  -22.8883  -42.7497   -5.8731 C   0  0  0  0  0  0  0  0  0  0  0  0
  -22.0365  -43.5448   -6.6390 O   0  0  0  0  0  0  0  0  0  0  0  0
  -20.7583  -43.1866   -6.3355 C   0  0  1  0  0  0  0  0  0  0  0  0
  -20.1957  -43.8230   -5.0789 C   0  0  0  0  0  0  0  0  0  0  0  0
  -18.7046  -44.0726   -5.3568 C   0  0  0  0  0  0  0  0  0  0  0  0
  -18.5477  -43.4354   -6.7027 N   0  0  0  0  0  0  0  0  0  0  0  0
  -17.3842  -42.7055   -7.0822 C   0  0  0  0  0  0  0  0  0  0  0  0
  -17.3628  -42.0678   -8.4065 C   0  0  0  0  0  0  0  0  0  0  0  0
  -16.5921  -42.6440   -9.2694 O   0  0  0  0  0  0  0  0  0  0  0  0
  -18.0724  -40.9250   -8.8346 N   0  0  0  0  0  0  0  0  0  0  0  0
  -19.7346  -43.7314   -7.3377 C   0  0  0  0  0  0  0  0  0  0  0  0
  -20.1915  -44.2746   -8.4071 O   0  0  0  0  0  0  0  0  0  0  0  0
  -13.1435  -38.9565  -12.0438 C   0  0  0  0  0  0  0  0  0  0  0  0
  -12.8071  -37.8729  -12.8604 C   0  0  0  0  0  0  0  0  0  0  0  0
  -12.6054  -36.6511  -12.2683 C   0  0  0  0  0  0  0  0  0  0  0  0
  1  2  1  0
  2  3  1  0
  2  4  1  0
  4  5  2  0
  5  6  1  0
  6  7  1  0
  7  8  1  0
  8  9  1  0
  9 10  1  0
 10 11  1  6
 10 12  1  0
 12 13  1  1
 13 14  1  0
 14 15  1  0
 15 16  2  0
 16 17  1  0
 17 18  2  0
 18 19  1  0
 16 20  1  0
 20 21  1  0
 21 22  1  0
 22 23  1  0
 23 24  1  0
 24 25  1  0
 25 26  1  0
 26 27  1  1
 27 28  1  0
 28 29  1  0
 29 30  1  0
 30 31  1  0
 31 32  2  0
 31 33  1  0
 29 34  1  0
 34 35  2  0
  6 36  2  0
 36 37  1  0
 37 38  2  0
 19 14  2  0
 33 12  1  0
 34 26  1  0
 38  4  1  0
M  END
$$$$
