
     RDKit          3D

 38 41  0  0  0  0  0  0  0  0999 V2000
  -11.4457  -34.9921  -13.0730 C   0  0  0  0  0  0  0  0  0  0  0  0
  -12.9503  -35.2332  -12.9410 C   0  0  0  0  0  0  0  0  0  0  0  0
  -13.5456  -34.9960  -14.3083 C   0  0  0  0  0  0  0  0  0  0  0  0
  -13.2227  -36.6334  -12.5485 C   0  0  0  0  0  0  0  0  0  0  0  0
  -13.2228  -37.0589  -11.2219 C   0  0  0  0  0  0  0  0  0  0  0  0
  -13.4902  -38.3718  -10.8939 C   0  0  0  0  0  0  0  0  0  0  0  0
  -13.4899  -38.8349   -9.4860 C   0  0  0  0  0  0  0  0  0  0  0  0
  -14.6788  -39.5346   -9.1299 N   0  0  0  0  0  0  0  0  0  0  0  0
  -15.5550  -38.8073   -8.2815 C   0  0  0  0  0  0  0  0  0  0  0  0
  -16.2893  -39.6267   -7.2479 C   0  0  1  0  0  0  0  0  0  0  0  0
  -16.1208  -39.1189   -5.9740 O   0  0  0  0  0  0  0  0  0  0  0  0
  -17.6936  -39.9690   -7.6191 C   0  0  2  0  0  0  0  0  0  0  0  0
  -18.6287  -40.1438   -6.4429 C   0  0  0  0  0  0  0  0  0  0  0  0
  -20.0157  -39.6074   -6.6851 C   0  0  0  0  0  0  0  0  0  0  0  0
  -20.9971  -40.0680   -7.5080 C   0  0  0  0  0  0  0  0  0  0  0  0
  -22.2103  -39.3775   -7.5352 C   0  0  0  0  0  0  0  0  0  0  0  0
  -22.3821  -38.2447   -6.7292 C   0  0  0  0  0  0  0  0  0  0  0  0
  -21.4109  -37.7518   -5.8866 C   0  0  0  0  0  0  0  0  0  0  0  0
  -20.2410  -38.4583   -5.8901 C   0  0  0  0  0  0  0  0  0  0  0  0
  -23.3390  -39.6398   -8.2687 O   0  0  0  0  0  0  0  0  0  0  0  0
  -24.2814  -40.5692   -8.5340 C   0  0  0  0  0  0  0  0  0  0  0  0
  -23.8103  -41.9613   -8.1913 C   0  0  0  0  0  0  0  0  0  0  0  0
  -23.7090  -42.0448   -6.6775 C   0  0  0  0  0  0  0  0  0  0  0  0
  -22.8187  -43.1466   -6.1961 C   0  0  0  0  0  0  0  0  0  0  0  0
  -22.0611  -43.7449   -7.2022 O   0  0  0  0  0  0  0  0  0  0  0  0
  -20.7513  -43.6449   -6.8434 C   0  0  1  0  0  0  0  0  0  0  0  0
  -20.2701  -44.7063   -5.8726 C   0  0  0  0  0  0  0  0  0  0  0  0
  -18.8165  -45.0167   -6.2646 C   0  0  0  0  0  0  0  0  0  0  0  0
  -18.5826  -44.0053   -7.3436 N   0  0  0  0  0  0  0  0  0  0  0  0
  -17.3416  -43.3251   -7.5106 C   0  0  0  0  0  0  0  0  0  0  0  0
  -17.2424  -42.3053   -8.5646 C   0  0  0  0  0  0  0  0  0  0  0  0
  -16.5398  -42.6576   -9.5907 O   0  0  0  0  0  0  0  0  0  0  0  0
  -17.8145  -41.0149   -8.5848 N   0  0  0  0  0  0  0  0  0  0  0  0
  -19.7933  -43.9512   -8.0000 C   0  0  0  0  0  0  0  0  0  0  0  0
  -20.3057  -44.0717   -9.1706 O   0  0  0  0  0  0  0  0  0  0  0  0
  -13.7589  -39.2651  -11.8977 C   0  0  0  0  0  0  0  0  0  0  0  0
  -13.7660  -38.8683  -13.2380 C   0  0  0  0  0  0  0  0  0  0  0  0
  -13.4958  -37.5542  -13.5281 C   0  0  0  0  0  0  0  0  0  0  0  0
  1  2  1  0
  2  3  1  0
  2  4  1  0
  4  5  2  0
  5  6  1  0
  6  7  1  0
  7  8  1  0
  8  9  1  0
  9 10  1  0
 10 11  1  1
 10 12  1  0
 12 13  1  1
 13 14  1  0
 14 15  1  0
 15 16  2  0
 16 17  1  0
 17 18  2  0
 18 19  1  0
 16 20  1  0
 20 21  1  0
 21 22  1  0
 22 23  1  0
 23 24  1  0
 24 25  1  0
 25 26  1  0
 26 27  1  1
 27 28  1  0
 28 29  1  0
 29 30  1  0
 30 31  1  0
 31 32  2  0
 31 33  1  0
 29 34  1  0
 34 35  2  0
  6 36  2  0
 36 37  1  0
 37 38  2  0
 19 14  2  0
 33 12  1  0
 34 26  1  0
 38  4  1  0
M  END
$$$$
