
     RDKit          3D

 38 41  0  0  0  0  0  0  0  0999 V2000
  -15.0347  -34.8315  -12.1055 C   0  0  0  0  0  0  0  0  0  0  0  0
  -13.6280  -35.3002  -12.4808 C   0  0  0  0  0  0  0  0  0  0  0  0
  -12.6895  -34.7066  -11.4576 C   0  0  0  0  0  0  0  0  0  0  0  0
  -13.5310  -36.7746  -12.4052 C   0  0  0  0  0  0  0  0  0  0  0  0
  -13.5533  -37.4716  -11.1992 C   0  0  0  0  0  0  0  0  0  0  0  0
  -13.4694  -38.8481  -11.1692 C   0  0  0  0  0  0  0  0  0  0  0  0
  -13.4896  -39.5986   -9.8913 C   0  0  0  0  0  0  0  0  0  0  0  0
  -14.7901  -40.0605   -9.5375 N   0  0  0  0  0  0  0  0  0  0  0  0
  -15.6912  -39.0340   -9.1498 C   0  0  0  0  0  0  0  0  0  0  0  0
  -16.4940  -39.3096   -7.9014 C   0  0  1  0  0  0  0  0  0  0  0  0
  -16.3252  -38.3200   -6.9520 O   0  0  0  0  0  0  0  0  0  0  0  0
  -17.9069  -39.7166   -8.1564 C   0  0  2  0  0  0  0  0  0  0  0  0
  -18.7561  -39.8497   -6.9115 C   0  0  0  0  0  0  0  0  0  0  0  0
  -20.1738  -39.3717   -7.0899 C   0  0  0  0  0  0  0  0  0  0  0  0
  -21.1905  -39.9106   -7.8166 C   0  0  0  0  0  0  0  0  0  0  0  0
  -22.4261  -39.2608   -7.8013 C   0  0  0  0  0  0  0  0  0  0  0  0
  -22.5839  -38.0876   -7.0520 C   0  0  0  0  0  0  0  0  0  0  0  0
  -21.5772  -37.5157   -6.3068 C   0  0  0  0  0  0  0  0  0  0  0  0
  -20.3861  -38.1847   -6.3489 C   0  0  0  0  0  0  0  0  0  0  0  0
  -23.5908  -39.6010   -8.4405 O   0  0  0  0  0  0  0  0  0  0  0  0
  -24.5158  -40.5732   -8.5877 C   0  0  0  0  0  0  0  0  0  0  0  0
  -23.9751  -41.9272   -8.1981 C   0  0  0  0  0  0  0  0  0  0  0  0
  -23.7716  -41.9170   -6.6923 C   0  0  0  0  0  0  0  0  0  0  0  0
  -22.8139  -42.9602   -6.2096 C   0  0  0  0  0  0  0  0  0  0  0  0
  -22.1037  -43.5938   -7.2287 O   0  0  0  0  0  0  0  0  0  0  0  0
  -20.7774  -43.4322   -6.9656 C   0  0  1  0  0  0  0  0  0  0  0  0
  -20.1969  -44.4184   -5.9701 C   0  0  0  0  0  0  0  0  0  0  0  0
  -18.7623  -44.7067   -6.4411 C   0  0  0  0  0  0  0  0  0  0  0  0
  -18.6350  -43.7548   -7.5898 N   0  0  0  0  0  0  0  0  0  0  0  0
  -17.4321  -43.0478   -7.8792 C   0  0  0  0  0  0  0  0  0  0  0  0
  -17.4378  -42.0901   -8.9944 C   0  0  0  0  0  0  0  0  0  0  0  0
  -16.7924  -42.4813  -10.0437 O   0  0  0  0  0  0  0  0  0  0  0  0
  -18.0545  -40.8215   -9.0500 N   0  0  0  0  0  0  0  0  0  0  0  0
  -19.8874  -43.7773   -8.1648 C   0  0  0  0  0  0  0  0  0  0  0  0
  -20.4711  -43.9832   -9.2892 O   0  0  0  0  0  0  0  0  0  0  0  0
  -13.3622  -39.5324  -12.3515 C   0  0  0  0  0  0  0  0  0  0  0  0
  -13.3370  -38.8612  -13.5774 C   0  0  0  0  0  0  0  0  0  0  0  0
  -13.4227  -37.4912  -13.5701 C   0  0  0  0  0  0  0  0  0  0  0  0
  1  2  1  0
  2  3  1  0
  2  4  1  0
  4  5  2  0
  5  6  1  0
  6  7  1  0
  7  8  1  0
  8  9  1  0
  9 10  1  0
 10 11  1  1
 10 12  1  0
 12 13  1  1
 13 14  1  0
 14 15  1  0
 15 16  2  0
 16 17  1  0
 17 18  2  0
 18 19  1  0
 16 20  1  0
 20 21  1  0
 21 22  1  0
 22 23  1  0
 23 24  1  0
 24 25  1  0
 25 26  1  0
 26 27  1  1
 27 28  1  0
 28 29  1  0
 29 30  1  0
 30 31  1  0
 31 32  2  0
 31 33  1  0
 29 34  1  0
 34 35  2  0
  6 36  2  0
 36 37  1  0
 37 38  2  0
 19 14  2  0
 33 12  1  0
 34 26  1  0
 38  4  1  0
M  END
$$$$
