
     RDKit          3D

 38 41  0  0  0  0  0  0  0  0999 V2000
  -21.3619  -40.6444   -3.8267 C   0  0  0  0  0  0  0  0  0  0  0  0
  -22.3635  -40.7811   -4.9744 C   0  0  0  0  0  0  0  0  0  0  0  0
  -23.6910  -40.2907   -4.4478 C   0  0  0  0  0  0  0  0  0  0  0  0
  -21.9691  -39.9277   -6.1168 C   0  0  0  0  0  0  0  0  0  0  0  0
  -20.7896  -39.1864   -6.1331 C   0  0  0  0  0  0  0  0  0  0  0  0
  -20.4511  -38.4085   -7.2208 C   0  0  0  0  0  0  0  0  0  0  0  0
  -19.2001  -37.6142   -7.2468 C   0  0  0  0  0  0  0  0  0  0  0  0
  -18.1437  -38.2150   -6.5032 N   0  0  0  0  0  0  0  0  0  0  0  0
  -17.2344  -38.9744   -7.2859 C   0  0  0  0  0  0  0  0  0  0  0  0
  -16.7400  -38.3029   -8.5444 C   0  0  1  0  0  0  0  0  0  0  0  0
  -16.5632  -36.9440   -8.3672 O   0  0  0  0  0  0  0  0  0  0  0  0
  -15.6125  -39.0119   -9.2172 C   0  0  2  0  0  0  0  0  0  0  0  0
  -15.8692  -39.3670  -10.6651 C   0  0  0  0  0  0  0  0  0  0  0  0
  -14.6594  -39.2175  -11.5506 C   0  0  0  0  0  0  0  0  0  0  0  0
  -13.5149  -39.9528  -11.5943 C   0  0  0  0  0  0  0  0  0  0  0  0
  -12.5420  -39.5999  -12.5314 C   0  0  0  0  0  0  0  0  0  0  0  0
  -12.7648  -38.5134  -13.3873 C   0  0  0  0  0  0  0  0  0  0  0  0
  -13.9098  -37.7488  -13.3695 C   0  0  0  0  0  0  0  0  0  0  0  0
  -14.8353  -38.1297  -12.4387 C   0  0  0  0  0  0  0  0  0  0  0  0
  -11.3214  -40.1775  -12.7710 O   0  0  0  0  0  0  0  0  0  0  0  0
  -10.7012  -41.3294  -13.1038 C   0  0  0  0  0  0  0  0  0  0  0  0
  -11.5548  -42.5360  -12.7988 C   0  0  0  0  0  0  0  0  0  0  0  0
  -12.7235  -42.5205  -13.7697 C   0  0  0  0  0  0  0  0  0  0  0  0
  -13.8939  -43.3325  -13.3121 C   0  0  0  0  0  0  0  0  0  0  0  0
  -13.8043  -43.7614  -11.9883 O   0  0  0  0  0  0  0  0  0  0  0  0
  -14.9116  -43.3111  -11.3359 C   0  0  1  0  0  0  0  0  0  0  0  0
  -16.1514  -44.1669  -11.5122 C   0  0  0  0  0  0  0  0  0  0  0  0
  -16.9037  -44.1104  -10.1728 C   0  0  0  0  0  0  0  0  0  0  0  0
  -16.0728  -43.1239   -9.4124 N   0  0  0  0  0  0  0  0  0  0  0  0
  -16.6349  -42.1556   -8.5309 C   0  0  0  0  0  0  0  0  0  0  0  0
  -15.7305  -41.1945   -7.8836 C   0  0  0  0  0  0  0  0  0  0  0  0
  -15.5380  -41.4011   -6.6223 O   0  0  0  0  0  0  0  0  0  0  0  0
  -15.0622  -40.0972   -8.4685 N   0  0  0  0  0  0  0  0  0  0  0  0
  -14.7859  -43.4136   -9.8118 C   0  0  0  0  0  0  0  0  0  0  0  0
  -13.6324  -43.7159   -9.3367 O   0  0  0  0  0  0  0  0  0  0  0  0
  -21.2964  -38.3708   -8.2986 C   0  0  0  0  0  0  0  0  0  0  0  0
  -22.4868  -39.1034   -8.3117 C   0  0  0  0  0  0  0  0  0  0  0  0
  -22.7922  -39.8668   -7.2127 C   0  0  0  0  0  0  0  0  0  0  0  0
  1  2  1  0
  2  3  1  0
  2  4  1  0
  4  5  2  0
  5  6  1  0
  6  7  1  0
  7  8  1  0
  8  9  1  0
  9 10  1  0
 10 11  1  1
 10 12  1  0
 12 13  1  6
 13 14  1  0
 14 15  1  0
 15 16  2  0
 16 17  1  0
 17 18  2  0
 18 19  1  0
 16 20  1  0
 20 21  1  0
 21 22  1  0
 22 23  1  0
 23 24  1  0
 24 25  1  0
 25 26  1  0
 26 27  1  6
 27 28  1  0
 28 29  1  0
 29 30  1  0
 30 31  1  0
 31 32  2  0
 31 33  1  0
 29 34  1  0
 34 35  2  0
  6 36  2  0
 36 37  1  0
 37 38  2  0
 19 14  2  0
 33 12  1  0
 34 26  1  0
 38  4  1  0
M  END
$$$$
