
     RDKit          3D

 38 41  0  0  0  0  0  0  0  0999 V2000
  -19.2562  -36.9062  -13.6840 C   0  0  0  0  0  0  0  0  0  0  0  0
  -17.7994  -37.2722  -13.9727 C   0  0  0  0  0  0  0  0  0  0  0  0
  -17.3763  -36.4462  -15.1639 C   0  0  0  0  0  0  0  0  0  0  0  0
  -16.9344  -36.9174  -12.8261 C   0  0  0  0  0  0  0  0  0  0  0  0
  -16.0860  -37.8340  -12.2088 C   0  0  0  0  0  0  0  0  0  0  0  0
  -15.2871  -37.4637  -11.1471 C   0  0  0  0  0  0  0  0  0  0  0  0
  -14.3834  -38.4319  -10.4819 C   0  0  0  0  0  0  0  0  0  0  0  0
  -14.7785  -38.7358   -9.1472 N   0  0  0  0  0  0  0  0  0  0  0  0
  -16.0254  -39.4071   -9.0436 C   0  0  0  0  0  0  0  0  0  0  0  0
  -16.5436  -39.6050   -7.6395 C   0  0  1  0  0  0  0  0  0  0  0  0
  -16.1452  -38.5862   -6.7955 O   0  0  0  0  0  0  0  0  0  0  0  0
  -17.9885  -39.9701   -7.5634 C   0  0  2  0  0  0  0  0  0  0  0  0
  -18.4904  -40.2572   -6.1654 C   0  0  0  0  0  0  0  0  0  0  0  0
  -19.8869  -39.7543   -5.9066 C   0  0  0  0  0  0  0  0  0  0  0  0
  -21.0767  -40.1919   -6.4019 C   0  0  0  0  0  0  0  0  0  0  0  0
  -22.2409  -39.5440   -5.9845 C   0  0  0  0  0  0  0  0  0  0  0  0
  -22.1550  -38.4753   -5.0828 C   0  0  0  0  0  0  0  0  0  0  0  0
  -20.9689  -38.0073   -4.5633 C   0  0  0  0  0  0  0  0  0  0  0  0
  -19.8553  -38.6706   -4.9969 C   0  0  0  0  0  0  0  0  0  0  0  0
  -23.5434  -39.7950   -6.3330 O   0  0  0  0  0  0  0  0  0  0  0  0
  -24.5106  -40.7366   -6.3501 C   0  0  0  0  0  0  0  0  0  0  0  0
  -23.9385  -42.1315   -6.2838 C   0  0  0  0  0  0  0  0  0  0  0  0
  -23.3515  -42.3142   -4.8943 C   0  0  0  0  0  0  0  0  0  0  0  0
  -22.3411  -43.4144   -4.8101 C   0  0  0  0  0  0  0  0  0  0  0  0
  -21.9436  -43.9160   -6.0489 O   0  0  0  0  0  0  0  0  0  0  0  0
  -20.5894  -43.7949   -6.1246 C   0  0  1  0  0  0  0  0  0  0  0  0
  -19.8080  -44.9024   -5.4438 C   0  0  0  0  0  0  0  0  0  0  0  0
  -18.5564  -45.1345   -6.3055 C   0  0  0  0  0  0  0  0  0  0  0  0
  -18.6957  -44.0444   -7.3226 N   0  0  0  0  0  0  0  0  0  0  0  0
  -17.5833  -43.3115   -7.8284 C   0  0  0  0  0  0  0  0  0  0  0  0
  -17.8420  -42.2195   -8.7778 C   0  0  0  0  0  0  0  0  0  0  0  0
  -17.5057  -42.4764   -9.9991 O   0  0  0  0  0  0  0  0  0  0  0  0
  -18.4040  -40.9515   -8.5149 N   0  0  0  0  0  0  0  0  0  0  0  0
  -20.0542  -43.9882   -7.5478 C   0  0  0  0  0  0  0  0  0  0  0  0
  -20.9167  -44.0465   -8.4966 O   0  0  0  0  0  0  0  0  0  0  0  0
  -15.3363  -36.1696  -10.6992 C   0  0  0  0  0  0  0  0  0  0  0  0
  -16.1774  -35.2272  -11.2979 C   0  0  0  0  0  0  0  0  0  0  0  0
  -16.9585  -35.6302  -12.3521 C   0  0  0  0  0  0  0  0  0  0  0  0
  1  2  1  0
  2  3  1  0
  2  4  1  0
  4  5  2  0
  5  6  1  0
  6  7  1  0
  7  8  1  0
  8  9  1  0
  9 10  1  0
 10 11  1  1
 10 12  1  0
 12 13  1  1
 13 14  1  0
 14 15  1  0
 15 16  2  0
 16 17  1  0
 17 18  2  0
 18 19  1  0
 16 20  1  0
 20 21  1  0
 21 22  1  0
 22 23  1  0
 23 24  1  0
 24 25  1  0
 25 26  1  0
 26 27  1  1
 27 28  1  0
 28 29  1  0
 29 30  1  0
 30 31  1  0
 31 32  2  0
 31 33  1  0
 29 34  1  0
 34 35  2  0
  6 36  2  0
 36 37  1  0
 37 38  2  0
 19 14  2  0
 33 12  1  0
 34 26  1  0
 38  4  1  0
M  END
$$$$
