
     RDKit          3D

 38 41  0  0  0  0  0  0  0  0999 V2000
  -14.0119  -33.9948  -11.9092 C   0  0  0  0  0  0  0  0  0  0  0  0
  -12.6723  -34.6556  -12.2381 C   0  0  0  0  0  0  0  0  0  0  0  0
  -11.7254  -34.2880  -11.1207 C   0  0  0  0  0  0  0  0  0  0  0  0
  -12.8097  -36.1283  -12.2696 C   0  0  0  0  0  0  0  0  0  0  0  0
  -13.0564  -36.8879  -11.1281 C   0  0  0  0  0  0  0  0  0  0  0  0
  -13.1875  -38.2593  -11.1984 C   0  0  0  0  0  0  0  0  0  0  0  0
  -13.4472  -39.0764   -9.9896 C   0  0  0  0  0  0  0  0  0  0  0  0
  -14.8052  -39.4932   -9.8806 N   0  0  0  0  0  0  0  0  0  0  0  0
  -15.6135  -38.6514   -9.0717 C   0  0  0  0  0  0  0  0  0  0  0  0
  -16.3011  -39.3288   -7.9110 C   0  0  1  0  0  0  0  0  0  0  0  0
  -16.1132  -38.6398   -6.7281 O   0  0  0  0  0  0  0  0  0  0  0  0
  -17.7054  -39.7500   -8.1893 C   0  0  2  0  0  0  0  0  0  0  0  0
  -18.6159  -39.7360   -6.9813 C   0  0  0  0  0  0  0  0  0  0  0  0
  -20.0165  -39.2692   -7.2823 C   0  0  0  0  0  0  0  0  0  0  0  0
  -21.0040  -39.8777   -7.9943 C   0  0  0  0  0  0  0  0  0  0  0  0
  -22.2298  -39.2200   -8.1132 C   0  0  0  0  0  0  0  0  0  0  0  0
  -22.4077  -37.9691   -7.5080 C   0  0  0  0  0  0  0  0  0  0  0  0
  -21.4306  -37.3257   -6.7818 C   0  0  0  0  0  0  0  0  0  0  0  0
  -20.2483  -38.0051   -6.6896 C   0  0  0  0  0  0  0  0  0  0  0  0
  -23.3666  -39.6200   -8.7678 O   0  0  0  0  0  0  0  0  0  0  0  0
  -24.2966  -40.5949   -8.8518 C   0  0  0  0  0  0  0  0  0  0  0  0
  -23.7943  -41.9012   -8.2874 C   0  0  0  0  0  0  0  0  0  0  0  0
  -23.6642  -41.7243   -6.7839 C   0  0  0  0  0  0  0  0  0  0  0  0
  -22.7456  -42.7148   -6.1408 C   0  0  0  0  0  0  0  0  0  0  0  0
  -21.9955  -43.4643   -7.0463 O   0  0  0  0  0  0  0  0  0  0  0  0
  -20.6814  -43.2852   -6.7369 C   0  0  1  0  0  0  0  0  0  0  0  0
  -20.1637  -44.1586   -5.6101 C   0  0  0  0  0  0  0  0  0  0  0  0
  -18.7120  -44.5097   -5.9738 C   0  0  0  0  0  0  0  0  0  0  0  0
  -18.5159  -43.6933   -7.2137 N   0  0  0  0  0  0  0  0  0  0  0  0
  -17.2907  -43.0332   -7.5196 C   0  0  0  0  0  0  0  0  0  0  0  0
  -17.2289  -42.2063   -8.7333 C   0  0  0  0  0  0  0  0  0  0  0  0
  -16.5386  -42.7176   -9.6991 O   0  0  0  0  0  0  0  0  0  0  0  0
  -17.8246  -40.9467   -8.9606 N   0  0  0  0  0  0  0  0  0  0  0  0
  -19.7390  -43.7697   -7.8444 C   0  0  0  0  0  0  0  0  0  0  0  0
  -20.2701  -44.0952   -8.9666 O   0  0  0  0  0  0  0  0  0  0  0  0
  -13.0709  -38.8755  -12.4168 C   0  0  0  0  0  0  0  0  0  0  0  0
  -12.8234  -38.1405  -13.5798 C   0  0  0  0  0  0  0  0  0  0  0  0
  -12.6988  -36.7777  -13.4731 C   0  0  0  0  0  0  0  0  0  0  0  0
  1  2  1  0
  2  3  1  0
  2  4  1  0
  4  5  2  0
  5  6  1  0
  6  7  1  0
  7  8  1  0
  8  9  1  0
  9 10  1  0
 10 11  1  1
 10 12  1  0
 12 13  1  1
 13 14  1  0
 14 15  1  0
 15 16  2  0
 16 17  1  0
 17 18  2  0
 18 19  1  0
 16 20  1  0
 20 21  1  0
 21 22  1  0
 22 23  1  0
 23 24  1  0
 24 25  1  0
 25 26  1  0
 26 27  1  1
 27 28  1  0
 28 29  1  0
 29 30  1  0
 30 31  1  0
 31 32  2  0
 31 33  1  0
 29 34  1  0
 34 35  2  0
  6 36  2  0
 36 37  1  0
 37 38  2  0
 19 14  2  0
 33 12  1  0
 34 26  1  0
 38  4  1  0
M  END
$$$$
