
     RDKit          3D

 38 41  0  0  0  0  0  0  0  0999 V2000
  -22.5066  -41.9517   -5.1496 C   0  0  0  0  0  0  0  0  0  0  0  0
  -22.9029  -40.4779   -5.0484 C   0  0  0  0  0  0  0  0  0  0  0  0
  -22.1575  -39.9124   -3.8632 C   0  0  0  0  0  0  0  0  0  0  0  0
  -22.4842  -39.7398   -6.2602 C   0  0  0  0  0  0  0  0  0  0  0  0
  -21.3362  -38.9515   -6.3049 C   0  0  0  0  0  0  0  0  0  0  0  0
  -20.9731  -38.2849   -7.4566 C   0  0  0  0  0  0  0  0  0  0  0  0
  -19.7555  -37.4418   -7.5134 C   0  0  0  0  0  0  0  0  0  0  0  0
  -18.6418  -38.1112   -8.0977 N   0  0  0  0  0  0  0  0  0  0  0  0
  -17.8060  -38.7815   -7.1658 C   0  0  0  0  0  0  0  0  0  0  0  0
  -16.3487  -38.3888   -7.1982 C   0  0  1  0  0  0  0  0  0  0  0  0
  -15.8230  -38.2559   -5.9273 O   0  0  0  0  0  0  0  0  0  0  0  0
  -15.5198  -39.1809   -8.1534 C   0  0  2  0  0  0  0  0  0  0  0  0
  -15.8734  -38.9768   -9.6100 C   0  0  0  0  0  0  0  0  0  0  0  0
  -14.6788  -38.9602  -10.5281 C   0  0  0  0  0  0  0  0  0  0  0  0
  -13.8458  -39.9727  -10.8931 C   0  0  0  0  0  0  0  0  0  0  0  0
  -12.8063  -39.6822  -11.7787 C   0  0  0  0  0  0  0  0  0  0  0  0
  -12.6488  -38.3756  -12.2590 C   0  0  0  0  0  0  0  0  0  0  0  0
  -13.4723  -37.3287  -11.9101 C   0  0  0  0  0  0  0  0  0  0  0  0
  -14.4765  -37.6576  -11.0433 C   0  0  0  0  0  0  0  0  0  0  0  0
  -11.8479  -40.5180  -12.2923 O   0  0  0  0  0  0  0  0  0  0  0  0
  -11.6469  -41.6486  -13.0019 C   0  0  0  0  0  0  0  0  0  0  0  0
  -12.8562  -42.5510  -12.9762 C   0  0  0  0  0  0  0  0  0  0  0  0
  -13.9477  -41.8678  -13.7828 C   0  0  0  0  0  0  0  0  0  0  0  0
  -15.3244  -42.3612  -13.4672 C   0  0  0  0  0  0  0  0  0  0  0  0
  -15.3900  -43.1776  -12.3387 O   0  0  0  0  0  0  0  0  0  0  0  0
  -16.2862  -42.6179  -11.4796 C   0  0  1  0  0  0  0  0  0  0  0  0
  -17.7399  -42.9354  -11.7736 C   0  0  0  0  0  0  0  0  0  0  0  0
  -18.4366  -43.0517  -10.4083 C   0  0  0  0  0  0  0  0  0  0  0  0
  -17.3274  -42.6637   -9.4803 N   0  0  0  0  0  0  0  0  0  0  0  0
  -17.5378  -41.8834   -8.3067 C   0  0  0  0  0  0  0  0  0  0  0  0
  -16.3673  -41.5073   -7.5009 C   0  0  0  0  0  0  0  0  0  0  0  0
  -16.2612  -42.1381   -6.3778 O   0  0  0  0  0  0  0  0  0  0  0  0
  -15.3677  -40.5586   -7.8067 N   0  0  0  0  0  0  0  0  0  0  0  0
  -16.2095  -43.2139  -10.0695 C   0  0  0  0  0  0  0  0  0  0  0  0
  -15.2259  -43.9986   -9.8164 O   0  0  0  0  0  0  0  0  0  0  0  0
  -21.7621  -38.4061   -8.5704 C   0  0  0  0  0  0  0  0  0  0  0  0
  -22.9197  -39.1894   -8.5565 C   0  0  0  0  0  0  0  0  0  0  0  0
  -23.2509  -39.8390   -7.3936 C   0  0  0  0  0  0  0  0  0  0  0  0
  1  2  1  0
  2  3  1  0
  2  4  1  0
  4  5  2  0
  5  6  1  0
  6  7  1  0
  7  8  1  0
  8  9  1  0
  9 10  1  0
 10 11  1  1
 10 12  1  0
 12 13  1  6
 13 14  1  0
 14 15  1  0
 15 16  2  0
 16 17  1  0
 17 18  2  0
 18 19  1  0
 16 20  1  0
 20 21  1  0
 21 22  1  0
 22 23  1  0
 23 24  1  0
 24 25  1  0
 25 26  1  0
 26 27  1  6
 27 28  1  0
 28 29  1  0
 29 30  1  0
 30 31  1  0
 31 32  2  0
 31 33  1  0
 29 34  1  0
 34 35  2  0
  6 36  2  0
 36 37  1  0
 37 38  2  0
 19 14  2  0
 33 12  1  0
 34 26  1  0
 38  4  1  0
M  END
$$$$
