
     RDKit          3D

 36 39  0  0  0  0  0  0  0  0999 V2000
  -15.9237  -42.8819  -11.7085 C   0  0  0  0  0  0  0  0  0  0  0  0
  -15.5282  -42.1110  -10.4528 C   0  0  2  0  0  0  0  0  0  0  0  0
  -15.9370  -42.8227   -9.2054 C   0  0  0  0  0  0  0  0  0  0  0  0
  -16.1148  -44.5375   -9.2769 S   0  0  0  0  0  6  0  0  0  0  0  0
  -17.4820  -44.8486   -9.8794 O   0  0  0  0  0  0  0  0  0  0  0  0
  -16.2314  -45.0385   -7.8380 O   0  0  0  0  0  0  0  0  0  0  0  0
  -14.9327  -45.4841  -10.0917 C   0  0  0  0  0  0  0  0  0  0  0  0
  -13.5173  -45.0339  -10.0754 C   0  0  0  0  0  0  0  0  0  0  0  0
  -12.9408  -44.8685   -8.6855 C   0  0  0  0  0  0  0  0  0  0  0  0
  -11.4334  -44.7441   -8.7429 C   0  0  0  0  0  0  0  0  0  0  0  0
  -11.0529  -43.5016   -9.1528 O   0  0  0  0  0  0  0  0  0  0  0  0
  -11.5774  -42.2457   -9.3849 C   0  0  0  0  0  0  0  0  0  0  0  0
  -11.2211  -41.8048  -10.6772 C   0  0  0  0  0  0  0  0  0  0  0  0
  -11.6019  -40.5912  -11.1860 C   0  0  0  0  0  0  0  0  0  0  0  0
  -12.3632  -39.8247  -10.3386 C   0  0  0  0  0  0  0  0  0  0  0  0
  -12.7427  -40.2221   -9.0396 C   0  0  0  0  0  0  0  0  0  0  0  0
  -13.5773  -39.1558   -8.4231 C   0  0  0  0  0  0  0  0  0  0  0  0
  -15.0377  -39.3136   -8.6779 C   0  0  2  0  0  0  0  0  0  0  0  0
  -15.4532  -39.5587  -10.0108 N   0  0  0  0  0  0  0  0  0  0  0  0
  -16.0324  -40.7207  -10.5583 C   0  0  0  0  0  0  0  0  0  0  0  0
  -17.1277  -40.6235  -11.2398 O   0  0  0  0  0  0  0  0  0  0  0  0
  -15.8144  -38.1776   -8.0249 C   0  0  2  0  0  0  0  0  0  0  0  0
  -15.8899  -38.5984   -6.6436 O   0  0  0  0  0  0  0  0  0  0  0  0
  -17.2190  -38.0907   -8.4599 C   0  0  0  0  0  0  0  0  0  0  0  0
  -18.1896  -38.9918   -8.0849 N   0  0  0  0  0  0  0  0  0  0  0  0
  -19.5591  -38.8380   -8.2377 C   0  0  0  0  0  0  0  0  0  0  0  0
  -20.3560  -37.9940   -7.2565 C   0  0  0  0  0  0  0  0  0  0  0  0
  -20.5829  -39.4658   -7.3769 C   0  0  0  0  0  0  0  0  0  0  0  0
  -19.9710  -38.7086   -9.6956 C   0  0  0  0  0  0  0  0  0  0  0  0
  -19.1084  -39.2226  -10.6359 C   0  0  0  0  0  0  0  0  0  0  0  0
  -19.4564  -39.1297  -11.9780 C   0  0  0  0  0  0  0  0  0  0  0  0
  -20.6328  -38.5412  -12.3856 C   0  0  0  0  0  0  0  0  0  0  0  0
  -21.4698  -38.0382  -11.4084 C   0  0  0  0  0  0  0  0  0  0  0  0
  -23.1095  -37.2145  -11.9250 Br  0  0  0  0  0  0  0  0  0  0  0  0
  -21.1545  -38.1126  -10.0417 C   0  0  0  0  0  0  0  0  0  0  0  0
  -12.3441  -41.4499   -8.5561 C   0  0  0  0  0  0  0  0  0  0  0  0
  2  1  1  6
  2  3  1  0
  3  4  1  0
  4  5  2  0
  4  6  2  0
  4  7  1  0
  7  8  1  0
  8  9  1  0
  9 10  1  0
 10 11  1  0
 11 12  1  0
 12 13  2  0
 13 14  1  0
 14 15  2  0
 15 16  1  0
 16 17  1  0
 18 17  1  6
 18 19  1  0
 19 20  1  0
 20 21  2  0
 18 22  1  0
 22 23  1  1
 22 24  1  0
 24 25  1  0
 25 26  1  0
 26 27  1  0
 27 28  1  0
 26 29  1  0
 29 30  2  0
 30 31  1  0
 31 32  2  0
 32 33  1  0
 33 34  1  0
 33 35  2  0
 16 36  2  0
 20  2  1  0
 28 26  1  0
 35 29  1  0
 36 12  1  0
M  END
$$$$
