
     RDKit          3D

 36 39  0  0  0  0  0  0  0  0999 V2000
  -19.7569  -43.5012   -8.2157 C   0  0  0  0  0  0  0  0  0  0  0  0
  -19.0540  -42.1654   -8.4377 C   0  0  2  0  0  0  0  0  0  0  0  0
  -18.5751  -42.0102   -9.8435 C   0  0  0  0  0  0  0  0  0  0  0  0
  -19.3978  -42.8918  -11.0775 S   0  0  0  0  0  6  0  0  0  0  0  0
  -18.8657  -44.3222  -11.0747 O   0  0  0  0  0  0  0  0  0  0  0  0
  -18.9270  -42.3336  -12.4198 O   0  0  0  0  0  0  0  0  0  0  0  0
  -21.1165  -42.9505  -11.0820 C   0  0  0  0  0  0  0  0  0  0  0  0
  -21.8758  -41.7742  -10.5857 C   0  0  0  0  0  0  0  0  0  0  0  0
  -21.5643  -40.4872  -11.3194 C   0  0  0  0  0  0  0  0  0  0  0  0
  -22.5968  -39.4270  -11.0017 C   0  0  0  0  0  0  0  0  0  0  0  0
  -22.3901  -38.8864   -9.7681 O   0  0  0  0  0  0  0  0  0  0  0  0
  -21.4512  -38.8610   -8.7563 C   0  0  0  0  0  0  0  0  0  0  0  0
  -22.0579  -39.1922   -7.5260 C   0  0  0  0  0  0  0  0  0  0  0  0
  -21.3699  -39.2482   -6.3426 C   0  0  0  0  0  0  0  0  0  0  0  0
  -20.0322  -38.9548   -6.4397 C   0  0  0  0  0  0  0  0  0  0  0  0
  -19.3826  -38.6174   -7.6454 C   0  0  0  0  0  0  0  0  0  0  0  0
  -17.9376  -38.3854   -7.3775 C   0  0  0  0  0  0  0  0  0  0  0  0
  -17.0987  -39.6112   -7.5055 C   0  0  2  0  0  0  0  0  0  0  0  0
  -17.5414  -40.7865   -6.8484 N   0  0  0  0  0  0  0  0  0  0  0  0
  -17.9999  -41.9952   -7.4089 C   0  0  0  0  0  0  0  0  0  0  0  0
  -17.4790  -43.1135   -7.0196 O   0  0  0  0  0  0  0  0  0  0  0  0
  -15.6410  -39.2885   -7.2035 C   0  0  2  0  0  0  0  0  0  0  0  0
  -15.4864  -37.9652   -7.7653 O   0  0  0  0  0  0  0  0  0  0  0  0
  -14.6811  -40.1194   -7.9503 C   0  0  0  0  0  0  0  0  0  0  0  0
  -13.8131  -41.0045   -7.3523 N   0  0  0  0  0  0  0  0  0  0  0  0
  -12.7876  -41.6999   -7.9747 C   0  0  0  0  0  0  0  0  0  0  0  0
  -12.0035  -42.7604   -7.2193 C   0  0  0  0  0  0  0  0  0  0  0  0
  -11.3478  -41.5082   -7.7032 C   0  0  0  0  0  0  0  0  0  0  0  0
  -13.1053  -42.0310   -9.4243 C   0  0  0  0  0  0  0  0  0  0  0  0
  -12.6650  -43.2451   -9.8982 C   0  0  0  0  0  0  0  0  0  0  0  0
  -12.9446  -43.5850  -11.2162 C   0  0  0  0  0  0  0  0  0  0  0  0
  -13.6453  -42.7438  -12.0516 C   0  0  0  0  0  0  0  0  0  0  0  0
  -14.0688  -41.5345  -11.5349 C   0  0  0  0  0  0  0  0  0  0  0  0
  -15.0423  -40.3372  -12.6540 Br  0  0  0  0  0  0  0  0  0  0  0  0
  -13.8066  -41.1541  -10.2085 C   0  0  0  0  0  0  0  0  0  0  0  0
  -20.1023  -38.5700   -8.8201 C   0  0  0  0  0  0  0  0  0  0  0  0
  2  1  1  6
  2  3  1  0
  3  4  1  0
  4  5  2  0
  4  6  2  0
  4  7  1  0
  7  8  1  0
  8  9  1  0
  9 10  1  0
 10 11  1  0
 11 12  1  0
 12 13  2  0
 13 14  1  0
 14 15  2  0
 15 16  1  0
 16 17  1  0
 18 17  1  1
 18 19  1  0
 19 20  1  0
 20 21  2  0
 18 22  1  0
 22 23  1  6
 22 24  1  0
 24 25  1  0
 25 26  1  0
 26 27  1  0
 27 28  1  0
 26 29  1  0
 29 30  2  0
 30 31  1  0
 31 32  2  0
 32 33  1  0
 33 34  1  0
 33 35  2  0
 16 36  2  0
 20  2  1  0
 28 26  1  0
 35 29  1  0
 36 12  1  0
M  END
$$$$
