
     RDKit          3D

 36 39  0  0  0  0  0  0  0  0999 V2000
  -19.4110  -43.6589   -6.5830 C   0  0  0  0  0  0  0  0  0  0  0  0
  -19.1176  -42.3565   -7.3213 C   0  0  2  0  0  0  0  0  0  0  0  0
  -19.2820  -42.4996   -8.7985 C   0  0  0  0  0  0  0  0  0  0  0  0
  -20.3524  -43.7236   -9.3758 S   0  0  0  0  0  6  0  0  0  0  0  0
  -19.6089  -45.0562   -9.3489 O   0  0  0  0  0  0  0  0  0  0  0  0
  -20.5733  -43.4629  -10.8651 O   0  0  0  0  0  0  0  0  0  0  0  0
  -21.8844  -43.9400   -8.6252 C   0  0  0  0  0  0  0  0  0  0  0  0
  -22.5838  -42.7542   -8.0674 C   0  0  0  0  0  0  0  0  0  0  0  0
  -22.8380  -41.6578   -9.0798 C   0  0  0  0  0  0  0  0  0  0  0  0
  -23.8328  -40.6523   -8.5409 C   0  0  0  0  0  0  0  0  0  0  0  0
  -23.2518  -39.8147   -7.6366 O   0  0  0  0  0  0  0  0  0  0  0  0
  -22.0079  -39.4607   -7.1535 C   0  0  0  0  0  0  0  0  0  0  0  0
  -21.9960  -39.5415   -5.7448 C   0  0  0  0  0  0  0  0  0  0  0  0
  -20.8930  -39.2482   -4.9869 C   0  0  0  0  0  0  0  0  0  0  0  0
  -19.7869  -38.8645   -5.7042 C   0  0  0  0  0  0  0  0  0  0  0  0
  -19.7516  -38.7680   -7.1109 C   0  0  0  0  0  0  0  0  0  0  0  0
  -18.3912  -38.3462   -7.5410 C   0  0  0  0  0  0  0  0  0  0  0  0
  -17.4632  -39.4840   -7.7991 C   0  0  2  0  0  0  0  0  0  0  0  0
  -17.3781  -40.5030   -6.8174 N   0  0  0  0  0  0  0  0  0  0  0  0
  -17.7905  -41.8479   -6.8989 C   0  0  0  0  0  0  0  0  0  0  0  0
  -16.9595  -42.7871   -6.5813 O   0  0  0  0  0  0  0  0  0  0  0  0
  -16.0945  -38.9653   -8.2207 C   0  0  2  0  0  0  0  0  0  0  0  0
  -16.4288  -37.8515   -9.0802 O   0  0  0  0  0  0  0  0  0  0  0  0
  -15.3503  -39.8911   -9.0916 C   0  0  0  0  0  0  0  0  0  0  0  0
  -14.0302  -40.2273   -8.8944 N   0  0  0  0  0  0  0  0  0  0  0  0
  -12.9881  -40.0311   -9.7877 C   0  0  0  0  0  0  0  0  0  0  0  0
  -12.3964  -41.2027  -10.5540 C   0  0  0  0  0  0  0  0  0  0  0  0
  -11.5868  -40.4392   -9.5571 C   0  0  0  0  0  0  0  0  0  0  0  0
  -13.1347  -38.7405  -10.5782 C   0  0  0  0  0  0  0  0  0  0  0  0
  -12.1157  -37.8228  -10.4697 C   0  0  0  0  0  0  0  0  0  0  0  0
  -12.2117  -36.6354  -11.1849 C   0  0  0  0  0  0  0  0  0  0  0  0
  -13.2923  -36.3576  -11.9921 C   0  0  0  0  0  0  0  0  0  0  0  0
  -14.2930  -37.3067  -12.0723 C   0  0  0  0  0  0  0  0  0  0  0  0
  -15.8085  -36.9662  -13.1773 Br  0  0  0  0  0  0  0  0  0  0  0  0
  -14.2333  -38.5191  -11.3655 C   0  0  0  0  0  0  0  0  0  0  0  0
  -20.8780  -39.0704   -7.8457 C   0  0  0  0  0  0  0  0  0  0  0  0
  2  1  1  1
  2  3  1  0
  3  4  1  0
  4  5  2  0
  4  6  2  0
  4  7  1  0
  7  8  1  0
  8  9  1  0
  9 10  1  0
 10 11  1  0
 11 12  1  0
 12 13  2  0
 13 14  1  0
 14 15  2  0
 15 16  1  0
 16 17  1  0
 18 17  1  1
 18 19  1  0
 19 20  1  0
 20 21  2  0
 18 22  1  0
 22 23  1  6
 22 24  1  0
 24 25  1  0
 25 26  1  0
 26 27  1  0
 27 28  1  0
 26 29  1  0
 29 30  2  0
 30 31  1  0
 31 32  2  0
 32 33  1  0
 33 34  1  0
 33 35  2  0
 16 36  2  0
 20  2  1  0
 28 26  1  0
 35 29  1  0
 36 12  1  0
M  END
$$$$
