
     RDKit          3D

 36 39  0  0  0  0  0  0  0  0999 V2000
  -19.6860  -43.5406   -6.2468 C   0  0  0  0  0  0  0  0  0  0  0  0
  -19.5004  -42.2094   -6.9686 C   0  0  2  0  0  0  0  0  0  0  0  0
  -19.5935  -42.3574   -8.4515 C   0  0  0  0  0  0  0  0  0  0  0  0
  -20.5100  -43.6802   -9.0738 S   0  0  0  0  0  6  0  0  0  0  0  0
  -19.6351  -44.9297   -9.0234 O   0  0  0  0  0  0  0  0  0  0  0  0
  -20.7002  -43.4322  -10.5695 O   0  0  0  0  0  0  0  0  0  0  0  0
  -22.0388  -44.0582   -8.3831 C   0  0  0  0  0  0  0  0  0  0  0  0
  -22.8769  -42.9546   -7.8481 C   0  0  0  0  0  0  0  0  0  0  0  0
  -23.2040  -41.8824   -8.8654 C   0  0  0  0  0  0  0  0  0  0  0  0
  -24.3163  -40.9882   -8.3612 C   0  0  0  0  0  0  0  0  0  0  0  0
  -23.8589  -40.1024   -7.4323 O   0  0  0  0  0  0  0  0  0  0  0  0
  -22.6771  -39.6264   -6.9007 C   0  0  0  0  0  0  0  0  0  0  0  0
  -22.7100  -39.7163   -5.4928 C   0  0  0  0  0  0  0  0  0  0  0  0
  -21.6723  -39.3173   -4.6923 C   0  0  0  0  0  0  0  0  0  0  0  0
  -20.5852  -38.8168   -5.3653 C   0  0  0  0  0  0  0  0  0  0  0  0
  -20.5071  -38.7064   -6.7692 C   0  0  0  0  0  0  0  0  0  0  0  0
  -19.1820  -38.1442   -7.1455 C   0  0  0  0  0  0  0  0  0  0  0  0
  -18.1330  -39.1789   -7.3721 C   0  0  2  0  0  0  0  0  0  0  0  0
  -17.9807  -40.1912   -6.3916 N   0  0  0  0  0  0  0  0  0  0  0  0
  -18.2494  -41.5706   -6.4938 C   0  0  0  0  0  0  0  0  0  0  0  0
  -17.3389  -42.4222   -6.1481 O   0  0  0  0  0  0  0  0  0  0  0  0
  -16.8099  -38.5194   -7.7392 C   0  0  2  0  0  0  0  0  0  0  0  0
  -17.2059  -37.1622   -8.0427 O   0  0  0  0  0  0  0  0  0  0  0  0
  -16.2238  -39.0206   -8.9941 C   0  0  0  0  0  0  0  0  0  0  0  0
  -15.0273  -39.6980   -9.0588 N   0  0  0  0  0  0  0  0  0  0  0  0
  -13.8055  -39.1754   -9.4545 C   0  0  0  0  0  0  0  0  0  0  0  0
  -12.5606  -40.0472   -9.4695 C   0  0  0  0  0  0  0  0  0  0  0  0
  -12.6779  -38.8778   -8.5471 C   0  0  0  0  0  0  0  0  0  0  0  0
  -13.9372  -38.2043  -10.6170 C   0  0  0  0  0  0  0  0  0  0  0  0
  -12.7700  -37.7433  -11.1805 C   0  0  0  0  0  0  0  0  0  0  0  0
  -12.8519  -36.8608  -12.2507 C   0  0  0  0  0  0  0  0  0  0  0  0
  -14.0620  -36.4405  -12.7561 C   0  0  0  0  0  0  0  0  0  0  0  0
  -15.2093  -36.9281  -12.1606 C   0  0  0  0  0  0  0  0  0  0  0  0
  -16.9075  -36.3743  -12.8261 Br  0  0  0  0  0  0  0  0  0  0  0  0
  -15.1689  -37.8214  -11.0774 C   0  0  0  0  0  0  0  0  0  0  0  0
  -21.5680  -39.1171   -7.5477 C   0  0  0  0  0  0  0  0  0  0  0  0
  2  1  1  1
  2  3  1  0
  3  4  1  0
  4  5  2  0
  4  6  2  0
  4  7  1  0
  7  8  1  0
  8  9  1  0
  9 10  1  0
 10 11  1  0
 11 12  1  0
 12 13  2  0
 13 14  1  0
 14 15  2  0
 15 16  1  0
 16 17  1  0
 18 17  1  1
 18 19  1  0
 19 20  1  0
 20 21  2  0
 18 22  1  0
 22 23  1  6
 22 24  1  0
 24 25  1  0
 25 26  1  0
 26 27  1  0
 27 28  1  0
 26 29  1  0
 29 30  2  0
 30 31  1  0
 31 32  2  0
 32 33  1  0
 33 34  1  0
 33 35  2  0
 16 36  2  0
 20  2  1  0
 28 26  1  0
 35 29  1  0
 36 12  1  0
M  END
$$$$
