
     RDKit          3D

 36 39  0  0  0  0  0  0  0  0999 V2000
  -16.8553  -43.4034  -10.2924 C   0  0  0  0  0  0  0  0  0  0  0  0
  -16.2117  -42.2384   -9.5466 C   0  0  2  0  0  0  0  0  0  0  0  0
  -15.1911  -42.6996   -8.5590 C   0  0  0  0  0  0  0  0  0  0  0  0
  -14.4174  -44.2147   -8.8471 S   0  0  0  0  0  6  0  0  0  0  0  0
  -15.3515  -45.3235   -8.3704 O   0  0  0  0  0  0  0  0  0  0  0  0
  -13.2312  -44.3042   -7.8881 O   0  0  0  0  0  0  0  0  0  0  0  0
  -13.8717  -44.6062  -10.4303 C   0  0  0  0  0  0  0  0  0  0  0  0
  -13.3859  -43.5140  -11.3121 C   0  0  0  0  0  0  0  0  0  0  0  0
  -12.2376  -42.7181  -10.7292 C   0  0  0  0  0  0  0  0  0  0  0  0
  -11.5823  -41.8659  -11.7947 C   0  0  0  0  0  0  0  0  0  0  0  0
  -12.3300  -40.7624  -12.0774 O   0  0  0  0  0  0  0  0  0  0  0  0
  -13.4203  -40.0603  -11.6037 C   0  0  0  0  0  0  0  0  0  0  0  0
  -14.3540  -39.8597  -12.6426 C   0  0  0  0  0  0  0  0  0  0  0  0
  -15.5377  -39.1926  -12.4675 C   0  0  0  0  0  0  0  0  0  0  0  0
  -15.7532  -38.7266  -11.1940 C   0  0  0  0  0  0  0  0  0  0  0  0
  -14.8498  -38.9016  -10.1251 C   0  0  0  0  0  0  0  0  0  0  0  0
  -15.4187  -38.2881   -8.8948 C   0  0  0  0  0  0  0  0  0  0  0  0
  -16.2449  -39.2264   -8.0827 C   0  0  2  0  0  0  0  0  0  0  0  0
  -17.2307  -39.9909   -8.7558 N   0  0  0  0  0  0  0  0  0  0  0  0
  -17.2773  -41.3824   -8.9721 C   0  0  0  0  0  0  0  0  0  0  0  0
  -18.3451  -42.0392   -8.6526 O   0  0  0  0  0  0  0  0  0  0  0  0
  -16.7969  -38.5167   -6.8531 C   0  0  2  0  0  0  0  0  0  0  0  0
  -16.1188  -39.1897   -5.7677 O   0  0  0  0  0  0  0  0  0  0  0  0
  -18.2265  -38.7747   -6.6096 C   0  0  0  0  0  0  0  0  0  0  0  0
  -19.2403  -38.0184   -7.1526 N   0  0  0  0  0  0  0  0  0  0  0  0
  -20.5813  -38.0666   -6.8034 C   0  0  0  0  0  0  0  0  0  0  0  0
  -21.6132  -37.2741   -7.5890 C   0  0  0  0  0  0  0  0  0  0  0  0
  -21.3274  -36.9684   -6.1547 C   0  0  0  0  0  0  0  0  0  0  0  0
  -21.0189  -39.4553   -6.3654 C   0  0  0  0  0  0  0  0  0  0  0  0
  -20.1392  -40.1701   -5.5859 C   0  0  0  0  0  0  0  0  0  0  0  0
  -20.5093  -41.4399   -5.1599 C   0  0  0  0  0  0  0  0  0  0  0  0
  -21.7240  -41.9949   -5.4961 C   0  0  0  0  0  0  0  0  0  0  0  0
  -22.5770  -41.2426   -6.2803 C   0  0  0  0  0  0  0  0  0  0  0  0
  -24.2696  -41.9694   -6.7710 Br  0  0  0  0  0  0  0  0  0  0  0  0
  -22.2403  -39.9556   -6.7309 C   0  0  0  0  0  0  0  0  0  0  0  0
  -13.6668  -39.5780  -10.3330 C   0  0  0  0  0  0  0  0  0  0  0  0
  2  1  1  1
  2  3  1  0
  3  4  1  0
  4  5  2  0
  4  6  2  0
  4  7  1  0
  7  8  1  0
  8  9  1  0
  9 10  1  0
 10 11  1  0
 11 12  1  0
 12 13  2  0
 13 14  1  0
 14 15  2  0
 15 16  1  0
 16 17  1  0
 18 17  1  6
 18 19  1  0
 19 20  1  0
 20 21  2  0
 18 22  1  0
 22 23  1  1
 22 24  1  0
 24 25  1  0
 25 26  1  0
 26 27  1  0
 27 28  1  0
 26 29  1  0
 29 30  2  0
 30 31  1  0
 31 32  2  0
 32 33  1  0
 33 34  1  0
 33 35  2  0
 16 36  2  0
 20  2  1  0
 28 26  1  0
 35 29  1  0
 36 12  1  0
M  END
$$$$
