
     RDKit          3D

 36 39  0  0  0  0  0  0  0  0999 V2000
  -17.1041  -42.3693  -11.3887 C   0  0  0  0  0  0  0  0  0  0  0  0
  -16.4619  -41.3764  -10.4247 C   0  0  2  0  0  0  0  0  0  0  0  0
  -15.3604  -41.9975   -9.6306 C   0  0  0  0  0  0  0  0  0  0  0  0
  -14.5450  -43.3580  -10.3097 S   0  0  0  0  0  6  0  0  0  0  0  0
  -15.3990  -44.5977  -10.0586 O   0  0  0  0  0  0  0  0  0  0  0  0
  -13.2958  -43.6024   -9.4644 O   0  0  0  0  0  0  0  0  0  0  0  0
  -14.0886  -43.3384  -11.9676 C   0  0  0  0  0  0  0  0  0  0  0  0
  -13.7074  -42.0453  -12.5915 C   0  0  0  0  0  0  0  0  0  0  0  0
  -12.5575  -41.3445  -11.9000 C   0  0  0  0  0  0  0  0  0  0  0  0
  -12.0094  -40.2321  -12.7679 C   0  0  0  0  0  0  0  0  0  0  0  0
  -12.8192  -39.1366  -12.7411 O   0  0  0  0  0  0  0  0  0  0  0  0
  -13.9044  -38.6263  -12.0569 C   0  0  0  0  0  0  0  0  0  0  0  0
  -14.9117  -38.2414  -12.9670 C   0  0  0  0  0  0  0  0  0  0  0  0
  -16.1081  -37.7006  -12.5756 C   0  0  0  0  0  0  0  0  0  0  0  0
  -16.2587  -37.5572  -11.2184 C   0  0  0  0  0  0  0  0  0  0  0  0
  -15.2807  -37.9260  -10.2714 C   0  0  0  0  0  0  0  0  0  0  0  0
  -15.7926  -37.6491   -8.9022 C   0  0  0  0  0  0  0  0  0  0  0  0
  -16.5241  -38.7955   -8.2913 C   0  0  2  0  0  0  0  0  0  0  0  0
  -17.5194  -39.4357   -9.0717 N   0  0  0  0  0  0  0  0  0  0  0  0
  -17.5222  -40.7388   -9.6076 C   0  0  0  0  0  0  0  0  0  0  0  0
  -18.5385  -41.5105   -9.3951 O   0  0  0  0  0  0  0  0  0  0  0  0
  -17.0233  -38.4240   -6.9009 C   0  0  2  0  0  0  0  0  0  0  0  0
  -15.8639  -38.6688   -6.0722 O   0  0  0  0  0  0  0  0  0  0  0  0
  -18.0511  -39.3383   -6.3743 C   0  0  0  0  0  0  0  0  0  0  0  0
  -19.1706  -39.7142   -7.0815 N   0  0  0  0  0  0  0  0  0  0  0  0
  -20.4292  -39.1384   -6.9978 C   0  0  0  0  0  0  0  0  0  0  0  0
  -20.9875  -38.3297   -8.1572 C   0  0  0  0  0  0  0  0  0  0  0  0
  -20.6901  -37.6927   -6.8389 C   0  0  0  0  0  0  0  0  0  0  0  0
  -21.4305  -40.0304   -6.2812 C   0  0  0  0  0  0  0  0  0  0  0  0
  -22.4971  -39.4091   -5.6737 C   0  0  0  0  0  0  0  0  0  0  0  0
  -23.4370  -40.1936   -5.0165 C   0  0  0  0  0  0  0  0  0  0  0  0
  -23.3276  -41.5652   -4.9591 C   0  0  0  0  0  0  0  0  0  0  0  0
  -22.2412  -42.1480   -5.5826 C   0  0  0  0  0  0  0  0  0  0  0  0
  -22.0478  -44.0437   -5.5296 Br  0  0  0  0  0  0  0  0  0  0  0  0
  -21.2698  -41.3903   -6.2572 C   0  0  0  0  0  0  0  0  0  0  0  0
  -14.0868  -38.4682  -10.6968 C   0  0  0  0  0  0  0  0  0  0  0  0
  2  1  1  1
  2  3  1  0
  3  4  1  0
  4  5  2  0
  4  6  2  0
  4  7  1  0
  7  8  1  0
  8  9  1  0
  9 10  1  0
 10 11  1  0
 11 12  1  0
 12 13  2  0
 13 14  1  0
 14 15  2  0
 15 16  1  0
 16 17  1  0
 18 17  1  6
 18 19  1  0
 19 20  1  0
 20 21  2  0
 18 22  1  0
 22 23  1  1
 22 24  1  0
 24 25  1  0
 25 26  1  0
 26 27  1  0
 27 28  1  0
 26 29  1  0
 29 30  2  0
 30 31  1  0
 31 32  2  0
 32 33  1  0
 33 34  1  0
 33 35  2  0
 16 36  2  0
 20  2  1  0
 28 26  1  0
 35 29  1  0
 36 12  1  0
M  END
$$$$
