
     RDKit          3D

 36 39  0  0  0  0  0  0  0  0999 V2000
  -16.4028  -41.6740  -12.1709 C   0  0  0  0  0  0  0  0  0  0  0  0
  -15.8985  -40.8472  -10.9921 C   0  0  2  0  0  0  0  0  0  0  0  0
  -14.6817  -41.4455  -10.3668 C   0  0  0  0  0  0  0  0  0  0  0  0
  -13.6785  -42.4463  -11.3512 S   0  0  0  0  0  6  0  0  0  0  0  0
  -14.3069  -43.8358  -11.4118 O   0  0  0  0  0  0  0  0  0  0  0  0
  -12.3762  -42.6717  -10.5843 O   0  0  0  0  0  0  0  0  0  0  0  0
  -13.2919  -41.9535  -12.9528 C   0  0  0  0  0  0  0  0  0  0  0  0
  -13.1518  -40.5036  -13.2432 C   0  0  0  0  0  0  0  0  0  0  0  0
  -12.1087  -39.8051  -12.3971 C   0  0  0  0  0  0  0  0  0  0  0  0
  -11.7833  -38.4413  -12.9672 C   0  0  0  0  0  0  0  0  0  0  0  0
  -12.7609  -37.5367  -12.6798 O   0  0  0  0  0  0  0  0  0  0  0  0
  -13.8898  -37.3957  -11.8976 C   0  0  0  0  0  0  0  0  0  0  0  0
  -14.9791  -36.9795  -12.6923 C   0  0  0  0  0  0  0  0  0  0  0  0
  -16.2332  -36.7578  -12.1873 C   0  0  0  0  0  0  0  0  0  0  0  0
  -16.3561  -36.9711  -10.8365 C   0  0  0  0  0  0  0  0  0  0  0  0
  -15.2969  -37.3856  -10.0023 C   0  0  0  0  0  0  0  0  0  0  0  0
  -15.7975  -37.5350   -8.6092 C   0  0  0  0  0  0  0  0  0  0  0  0
  -16.3076  -38.9008   -8.2976 C   0  0  2  0  0  0  0  0  0  0  0  0
  -17.2114  -39.4938   -9.2145 N   0  0  0  0  0  0  0  0  0  0  0  0
  -17.0189  -40.6120  -10.0500 C   0  0  0  0  0  0  0  0  0  0  0  0
  -17.8859  -41.5721  -10.0355 O   0  0  0  0  0  0  0  0  0  0  0  0
  -16.8103  -38.9627   -6.8610 C   0  0  2  0  0  0  0  0  0  0  0  0
  -15.5906  -39.1447   -6.1061 O   0  0  0  0  0  0  0  0  0  0  0  0
  -17.6100  -40.1630   -6.5623 C   0  0  0  0  0  0  0  0  0  0  0  0
  -18.7975  -40.4630   -7.1905 N   0  0  0  0  0  0  0  0  0  0  0  0
  -19.9954  -40.7905   -6.5740 C   0  0  0  0  0  0  0  0  0  0  0  0
  -20.0262  -41.1872   -5.1070 C   0  0  0  0  0  0  0  0  0  0  0  0
  -20.3997  -42.1564   -6.1809 C   0  0  0  0  0  0  0  0  0  0  0  0
  -21.1475  -39.9135   -7.0380 C   0  0  0  0  0  0  0  0  0  0  0  0
  -22.3505  -40.0681   -6.3888 C   0  0  0  0  0  0  0  0  0  0  0  0
  -23.4236  -39.2771   -6.7806 C   0  0  0  0  0  0  0  0  0  0  0  0
  -23.3130  -38.3509   -7.7937 C   0  0  0  0  0  0  0  0  0  0  0  0
  -22.0871  -38.2282   -8.4187 C   0  0  0  0  0  0  0  0  0  0  0  0
  -21.8863  -36.9590   -9.8268 Br  0  0  0  0  0  0  0  0  0  0  0  0
  -20.9783  -39.0087   -8.0520 C   0  0  0  0  0  0  0  0  0  0  0  0
  -14.0463  -37.6009  -10.5406 C   0  0  0  0  0  0  0  0  0  0  0  0
  2  1  1  6
  2  3  1  0
  3  4  1  0
  4  5  2  0
  4  6  2  0
  4  7  1  0
  7  8  1  0
  8  9  1  0
  9 10  1  0
 10 11  1  0
 11 12  1  0
 12 13  2  0
 13 14  1  0
 14 15  2  0
 15 16  1  0
 16 17  1  0
 18 17  1  6
 18 19  1  0
 19 20  1  0
 20 21  2  0
 18 22  1  0
 22 23  1  1
 22 24  1  0
 24 25  1  0
 25 26  1  0
 26 27  1  0
 27 28  1  0
 26 29  1  0
 29 30  2  0
 30 31  1  0
 31 32  2  0
 32 33  1  0
 33 34  1  0
 33 35  2  0
 16 36  2  0
 20  2  1  0
 28 26  1  0
 35 29  1  0
 36 12  1  0
M  END
$$$$
