
     RDKit          3D

 36 39  0  0  0  0  0  0  0  0999 V2000
  -19.1565  -43.2390   -5.7676 C   0  0  0  0  0  0  0  0  0  0  0  0
  -19.0154  -42.0768   -6.7458 C   0  0  2  0  0  0  0  0  0  0  0  0
  -19.1680  -42.5160   -8.1647 C   0  0  0  0  0  0  0  0  0  0  0  0
  -20.0947  -43.9384   -8.4732 S   0  0  0  0  0  6  0  0  0  0  0  0
  -19.2048  -45.1508   -8.2139 O   0  0  0  0  0  0  0  0  0  0  0  0
  -20.3492  -43.9923   -9.9790 O   0  0  0  0  0  0  0  0  0  0  0  0
  -21.5895  -44.1760   -7.6569 C   0  0  0  0  0  0  0  0  0  0  0  0
  -22.4169  -42.9905   -7.3156 C   0  0  0  0  0  0  0  0  0  0  0  0
  -22.7976  -42.1421   -8.5102 C   0  0  0  0  0  0  0  0  0  0  0  0
  -23.8979  -41.1687   -8.1460 C   0  0  0  0  0  0  0  0  0  0  0  0
  -23.4124  -40.1151   -7.4311 O   0  0  0  0  0  0  0  0  0  0  0  0
  -22.2149  -39.5401   -7.0551 C   0  0  0  0  0  0  0  0  0  0  0  0
  -22.1887  -39.3492   -5.6572 C   0  0  0  0  0  0  0  0  0  0  0  0
  -21.1234  -38.7967   -4.9964 C   0  0  0  0  0  0  0  0  0  0  0  0
  -20.0706  -38.4366   -5.8009 C   0  0  0  0  0  0  0  0  0  0  0  0
  -20.0517  -38.6065   -7.2010 C   0  0  0  0  0  0  0  0  0  0  0  0
  -18.7496  -38.1265   -7.7372 C   0  0  0  0  0  0  0  0  0  0  0  0
  -17.6994  -39.1828   -7.7990 C   0  0  2  0  0  0  0  0  0  0  0  0
  -17.4956  -39.9803   -6.6450 N   0  0  0  0  0  0  0  0  0  0  0  0
  -17.7530  -41.3533   -6.4606 C   0  0  0  0  0  0  0  0  0  0  0  0
  -16.8197  -42.1170   -5.9924 O   0  0  0  0  0  0  0  0  0  0  0  0
  -16.3999  -38.6057   -8.3455 C   0  0  2  0  0  0  0  0  0  0  0  0
  -16.7073  -38.4012   -9.7435 O   0  0  0  0  0  0  0  0  0  0  0  0
  -15.2804  -39.5628   -8.3514 C   0  0  0  0  0  0  0  0  0  0  0  0
  -13.9643  -39.1947   -8.5158 N   0  0  0  0  0  0  0  0  0  0  0  0
  -13.1607  -39.4774   -9.6097 C   0  0  0  0  0  0  0  0  0  0  0  0
  -13.2505  -40.8251  -10.3067 C   0  0  0  0  0  0  0  0  0  0  0  0
  -12.0066  -40.4000   -9.5967 C   0  0  0  0  0  0  0  0  0  0  0  0
  -12.9837  -38.2779  -10.5271 C   0  0  0  0  0  0  0  0  0  0  0  0
  -11.7811  -37.6132  -10.4606 C   0  0  0  0  0  0  0  0  0  0  0  0
  -11.5807  -36.5171  -11.2908 C   0  0  0  0  0  0  0  0  0  0  0  0
  -12.5479  -36.0842  -12.1703 C   0  0  0  0  0  0  0  0  0  0  0  0
  -13.7406  -36.7805  -12.2047 C   0  0  0  0  0  0  0  0  0  0  0  0
  -15.1092  -36.2179  -13.4065 Br  0  0  0  0  0  0  0  0  0  0  0  0
  -13.9820  -37.8932  -11.3822 C   0  0  0  0  0  0  0  0  0  0  0  0
  -21.1392  -39.1662   -7.8368 C   0  0  0  0  0  0  0  0  0  0  0  0
  2  1  1  1
  2  3  1  0
  3  4  1  0
  4  5  2  0
  4  6  2  0
  4  7  1  0
  7  8  1  0
  8  9  1  0
  9 10  1  0
 10 11  1  0
 11 12  1  0
 12 13  2  0
 13 14  1  0
 14 15  2  0
 15 16  1  0
 16 17  1  0
 18 17  1  1
 18 19  1  0
 19 20  1  0
 20 21  2  0
 18 22  1  0
 22 23  1  6
 22 24  1  0
 24 25  1  0
 25 26  1  0
 26 27  1  0
 27 28  1  0
 26 29  1  0
 29 30  2  0
 30 31  1  0
 31 32  2  0
 32 33  1  0
 33 34  1  0
 33 35  2  0
 16 36  2  0
 20  2  1  0
 28 26  1  0
 35 29  1  0
 36 12  1  0
M  END
$$$$
