
     RDKit          3D

 36 39  0  0  0  0  0  0  0  0999 V2000
  -17.5605  -43.5334  -10.8389 C   0  0  0  0  0  0  0  0  0  0  0  0
  -16.8135  -42.6739   -9.8236 C   0  0  2  0  0  0  0  0  0  0  0  0
  -16.2963  -43.4803   -8.6783 C   0  0  0  0  0  0  0  0  0  0  0  0
  -15.9865  -45.1563   -8.9471 S   0  0  0  0  0  6  0  0  0  0  0  0
  -17.3124  -45.9059   -8.8510 O   0  0  0  0  0  0  0  0  0  0  0  0
  -15.1947  -45.6666   -7.7439 O   0  0  0  0  0  0  0  0  0  0  0  0
  -15.1821  -45.6553  -10.3828 C   0  0  0  0  0  0  0  0  0  0  0  0
  -14.1595  -44.7590  -10.9807 C   0  0  0  0  0  0  0  0  0  0  0  0
  -13.0239  -44.4099  -10.0425 C   0  0  0  0  0  0  0  0  0  0  0  0
  -11.8721  -43.7901  -10.8042 C   0  0  0  0  0  0  0  0  0  0  0  0
  -12.1317  -42.4921  -11.1273 O   0  0  0  0  0  0  0  0  0  0  0  0
  -13.0339  -41.4831  -10.8554 C   0  0  0  0  0  0  0  0  0  0  0  0
  -13.5394  -40.9495  -12.0600 C   0  0  0  0  0  0  0  0  0  0  0  0
  -14.4564  -39.9326  -12.1023 C   0  0  0  0  0  0  0  0  0  0  0  0
  -14.8528  -39.4632  -10.8744 C   0  0  0  0  0  0  0  0  0  0  0  0
  -14.3751  -39.9635   -9.6453 C   0  0  0  0  0  0  0  0  0  0  0  0
  -15.0355  -39.2360   -8.5280 C   0  0  0  0  0  0  0  0  0  0  0  0
  -16.3011  -39.8718   -8.0624 C   0  0  2  0  0  0  0  0  0  0  0  0
  -17.2545  -40.2423   -9.0438 N   0  0  0  0  0  0  0  0  0  0  0  0
  -17.6725  -41.5313   -9.4301 C   0  0  0  0  0  0  0  0  0  0  0  0
  -18.9364  -41.8053   -9.4639 O   0  0  0  0  0  0  0  0  0  0  0  0
  -16.9159  -39.0593   -6.9301 C   0  0  2  0  0  0  0  0  0  0  0  0
  -16.3761  -39.6995   -5.7513 O   0  0  0  0  0  0  0  0  0  0  0  0
  -18.3740  -39.2249   -6.8032 C   0  0  0  0  0  0  0  0  0  0  0  0
  -19.2872  -38.5656   -7.5944 N   0  0  0  0  0  0  0  0  0  0  0  0
  -20.5605  -38.1628   -7.2215 C   0  0  0  0  0  0  0  0  0  0  0  0
  -21.3166  -37.1321   -8.0438 C   0  0  0  0  0  0  0  0  0  0  0  0
  -20.8957  -36.8468   -6.6390 C   0  0  0  0  0  0  0  0  0  0  0  0
  -21.3989  -39.3103   -6.6813 C   0  0  0  0  0  0  0  0  0  0  0  0
  -22.4015  -38.9881   -5.7961 C   0  0  0  0  0  0  0  0  0  0  0  0
  -23.1936  -40.0106   -5.2883 C   0  0  0  0  0  0  0  0  0  0  0  0
  -23.0010  -41.3264   -5.6462 C   0  0  0  0  0  0  0  0  0  0  0  0
  -21.9831  -41.6055   -6.5377 C   0  0  0  0  0  0  0  0  0  0  0  0
  -21.6788  -43.4126   -7.0626 Br  0  0  0  0  0  0  0  0  0  0  0  0
  -21.1609  -40.6007   -7.0737 C   0  0  0  0  0  0  0  0  0  0  0  0
  -13.4527  -40.9878   -9.6358 C   0  0  0  0  0  0  0  0  0  0  0  0
  2  1  1  6
  2  3  1  0
  3  4  1  0
  4  5  2  0
  4  6  2  0
  4  7  1  0
  7  8  1  0
  8  9  1  0
  9 10  1  0
 10 11  1  0
 11 12  1  0
 12 13  2  0
 13 14  1  0
 14 15  2  0
 15 16  1  0
 16 17  1  0
 18 17  1  6
 18 19  1  0
 19 20  1  0
 20 21  2  0
 18 22  1  0
 22 23  1  1
 22 24  1  0
 24 25  1  0
 25 26  1  0
 26 27  1  0
 27 28  1  0
 26 29  1  0
 29 30  2  0
 30 31  1  0
 31 32  2  0
 32 33  1  0
 33 34  1  0
 33 35  2  0
 16 36  2  0
 20  2  1  0
 28 26  1  0
 35 29  1  0
 36 12  1  0
M  END
$$$$
