
     RDKit          3D

 36 39  0  0  0  0  0  0  0  0999 V2000
  -18.8820  -41.6643   -4.9073 C   0  0  0  0  0  0  0  0  0  0  0  0
  -18.9277  -41.3147   -6.3916 C   0  0  2  0  0  0  0  0  0  0  0  0
  -19.1160  -42.5238   -7.2473 C   0  0  0  0  0  0  0  0  0  0  0  0
  -19.8986  -43.8930   -6.5473 S   0  0  0  0  0  6  0  0  0  0  0  0
  -18.8676  -44.6601   -5.7240 O   0  0  0  0  0  0  0  0  0  0  0  0
  -20.2354  -44.8515   -7.6887 O   0  0  0  0  0  0  0  0  0  0  0  0
  -21.3069  -43.6710   -5.5857 C   0  0  0  0  0  0  0  0  0  0  0  0
  -22.2369  -42.5623   -5.9207 C   0  0  0  0  0  0  0  0  0  0  0  0
  -22.7789  -42.6200   -7.3331 C   0  0  0  0  0  0  0  0  0  0  0  0
  -23.9552  -41.6811   -7.4934 C   0  0  0  0  0  0  0  0  0  0  0  0
  -23.5457  -40.3860   -7.6008 O   0  0  0  0  0  0  0  0  0  0  0  0
  -22.3979  -39.6392   -7.7764 C   0  0  0  0  0  0  0  0  0  0  0  0
  -22.3090  -38.6477   -6.7763 C   0  0  0  0  0  0  0  0  0  0  0  0
  -21.2728  -37.7551   -6.6963 C   0  0  0  0  0  0  0  0  0  0  0  0
  -20.3157  -37.8950   -7.6708 C   0  0  0  0  0  0  0  0  0  0  0  0
  -20.3623  -38.8688   -8.6901 C   0  0  0  0  0  0  0  0  0  0  0  0
  -19.1548  -38.7392   -9.5497 C   0  0  0  0  0  0  0  0  0  0  0  0
  -18.0011  -39.5657   -9.0932 C   0  0  2  0  0  0  0  0  0  0  0  0
  -17.6427  -39.5007   -7.7233 N   0  0  0  0  0  0  0  0  0  0  0  0
  -17.7371  -40.5005   -6.7349 C   0  0  0  0  0  0  0  0  0  0  0  0
  -16.6995  -40.7816   -6.0151 O   0  0  0  0  0  0  0  0  0  0  0  0
  -16.8075  -39.3647  -10.0181 C   0  0  2  0  0  0  0  0  0  0  0  0
  -16.9325  -40.4705  -10.9414 O   0  0  0  0  0  0  0  0  0  0  0  0
  -15.5055  -39.5780   -9.3632 C   0  0  0  0  0  0  0  0  0  0  0  0
  -14.5887  -38.5746   -9.1461 N   0  0  0  0  0  0  0  0  0  0  0  0
  -13.5416  -38.2207   -9.9832 C   0  0  0  0  0  0  0  0  0  0  0  0
  -12.6203  -39.2831  -10.5598 C   0  0  0  0  0  0  0  0  0  0  0  0
  -12.1122  -38.2482   -9.6096 C   0  0  0  0  0  0  0  0  0  0  0  0
  -13.9115  -37.0918  -10.9322 C   0  0  0  0  0  0  0  0  0  0  0  0
  -12.8955  -36.5523  -11.6866 C   0  0  0  0  0  0  0  0  0  0  0  0
  -13.1983  -35.5244  -12.5712 C   0  0  0  0  0  0  0  0  0  0  0  0
  -14.4789  -35.0372  -12.7096 C   0  0  0  0  0  0  0  0  0  0  0  0
  -15.4688  -35.6076  -11.9329 C   0  0  0  0  0  0  0  0  0  0  0  0
  -17.2569  -34.9659  -12.0902 Br  0  0  0  0  0  0  0  0  0  0  0  0
  -15.2037  -36.6481  -11.0275 C   0  0  0  0  0  0  0  0  0  0  0  0
  -21.4182  -39.7532   -8.7436 C   0  0  0  0  0  0  0  0  0  0  0  0
  2  1  1  1
  2  3  1  0
  3  4  1  0
  4  5  2  0
  4  6  2  0
  4  7  1  0
  7  8  1  0
  8  9  1  0
  9 10  1  0
 10 11  1  0
 11 12  1  0
 12 13  2  0
 13 14  1  0
 14 15  2  0
 15 16  1  0
 16 17  1  0
 18 17  1  6
 18 19  1  0
 19 20  1  0
 20 21  2  0
 18 22  1  0
 22 23  1  6
 22 24  1  0
 24 25  1  0
 25 26  1  0
 26 27  1  0
 27 28  1  0
 26 29  1  0
 29 30  2  0
 30 31  1  0
 31 32  2  0
 32 33  1  0
 33 34  1  0
 33 35  2  0
 16 36  2  0
 20  2  1  0
 28 26  1  0
 35 29  1  0
 36 12  1  0
M  END
$$$$
