
     RDKit          3D

 36 39  0  0  0  0  0  0  0  0999 V2000
  -18.3035  -42.7886   -5.6815 C   0  0  0  0  0  0  0  0  0  0  0  0
  -18.6373  -41.9548   -6.9147 C   0  0  2  0  0  0  0  0  0  0  0  0
  -19.1717  -42.7915   -8.0300 C   0  0  0  0  0  0  0  0  0  0  0  0
  -19.9487  -44.2772   -7.6225 S   0  0  0  0  0  6  0  0  0  0  0  0
  -18.8683  -45.3271   -7.3783 O   0  0  0  0  0  0  0  0  0  0  0  0
  -20.6580  -44.7745   -8.8813 O   0  0  0  0  0  0  0  0  0  0  0  0
  -21.0613  -44.3262   -6.3121 C   0  0  0  0  0  0  0  0  0  0  0  0
  -21.8889  -43.1258   -6.0284 C   0  0  0  0  0  0  0  0  0  0  0  0
  -22.7390  -42.6750   -7.1970 C   0  0  0  0  0  0  0  0  0  0  0  0
  -23.7871  -41.6814   -6.7441 C   0  0  0  0  0  0  0  0  0  0  0  0
  -23.2459  -40.4480   -6.5379 O   0  0  0  0  0  0  0  0  0  0  0  0
  -22.0796  -39.7426   -6.7573 C   0  0  0  0  0  0  0  0  0  0  0  0
  -21.6372  -39.1544   -5.5533 C   0  0  0  0  0  0  0  0  0  0  0  0
  -20.5016  -38.3932   -5.4644 C   0  0  0  0  0  0  0  0  0  0  0  0
  -19.8166  -38.2408   -6.6446 C   0  0  0  0  0  0  0  0  0  0  0  0
  -20.2202  -38.8078   -7.8714 C   0  0  0  0  0  0  0  0  0  0  0  0
  -19.2322  -38.4533   -8.9258 C   0  0  0  0  0  0  0  0  0  0  0  0
  -18.1241  -39.4407   -9.0669 C   0  0  2  0  0  0  0  0  0  0  0  0
  -17.4598  -39.8614   -7.8876 N   0  0  0  0  0  0  0  0  0  0  0  0
  -17.4588  -41.1312   -7.2768 C   0  0  0  0  0  0  0  0  0  0  0  0
  -16.3315  -41.6897   -6.9752 O   0  0  0  0  0  0  0  0  0  0  0  0
  -17.1549  -38.9963  -10.1548 C   0  0  2  0  0  0  0  0  0  0  0  0
  -17.6981  -39.6240  -11.3388 O   0  0  0  0  0  0  0  0  0  0  0  0
  -15.8056  -39.5714  -10.0200 C   0  0  0  0  0  0  0  0  0  0  0  0
  -14.7651  -38.9322   -9.3848 N   0  0  0  0  0  0  0  0  0  0  0  0
  -13.4124  -39.1540   -9.5933 C   0  0  0  0  0  0  0  0  0  0  0  0
  -12.3943  -38.7729   -8.5310 C   0  0  0  0  0  0  0  0  0  0  0  0
  -12.4134  -38.0996   -9.8646 C   0  0  0  0  0  0  0  0  0  0  0  0
  -13.1422  -40.4635  -10.3172 C   0  0  0  0  0  0  0  0  0  0  0  0
  -14.0180  -40.8157  -11.3179 C   0  0  0  0  0  0  0  0  0  0  0  0
  -13.7973  -42.0020  -12.0070 C   0  0  0  0  0  0  0  0  0  0  0  0
  -12.7331  -42.8258  -11.7152 C   0  0  0  0  0  0  0  0  0  0  0  0
  -11.8782  -42.4340  -10.7031 C   0  0  0  0  0  0  0  0  0  0  0  0
  -10.3909  -43.5424  -10.2636 Br  0  0  0  0  0  0  0  0  0  0  0  0
  -12.0666  -41.2427   -9.9832 C   0  0  0  0  0  0  0  0  0  0  0  0
  -21.3678  -39.5694   -7.9284 C   0  0  0  0  0  0  0  0  0  0  0  0
  2  1  1  1
  2  3  1  0
  3  4  1  0
  4  5  2  0
  4  6  2  0
  4  7  1  0
  7  8  1  0
  8  9  1  0
  9 10  1  0
 10 11  1  0
 11 12  1  0
 12 13  2  0
 13 14  1  0
 14 15  2  0
 15 16  1  0
 16 17  1  0
 18 17  1  1
 18 19  1  0
 19 20  1  0
 20 21  2  0
 18 22  1  0
 22 23  1  6
 22 24  1  0
 24 25  1  0
 25 26  1  0
 26 27  1  0
 27 28  1  0
 26 29  1  0
 29 30  2  0
 30 31  1  0
 31 32  2  0
 32 33  1  0
 33 34  1  0
 33 35  2  0
 16 36  2  0
 20  2  1  0
 28 26  1  0
 35 29  1  0
 36 12  1  0
M  END
$$$$
