
     RDKit          3D

 36 39  0  0  0  0  0  0  0  0999 V2000
  -19.1833  -43.3872   -6.7200 C   0  0  0  0  0  0  0  0  0  0  0  0
  -18.8976  -42.0619   -7.4196 C   0  0  2  0  0  0  0  0  0  0  0  0
  -18.9738  -42.1840   -8.9058 C   0  0  0  0  0  0  0  0  0  0  0  0
  -19.9641  -43.4352   -9.5622 S   0  0  0  0  0  6  0  0  0  0  0  0
  -19.1744  -44.7403   -9.5148 O   0  0  0  0  0  0  0  0  0  0  0  0
  -20.1110  -43.1557  -11.0573 O   0  0  0  0  0  0  0  0  0  0  0  0
  -21.5266  -43.7204   -8.9029 C   0  0  0  0  0  0  0  0  0  0  0  0
  -22.2996  -42.5710   -8.3665 C   0  0  0  0  0  0  0  0  0  0  0  0
  -22.5373  -41.4663   -9.3739 C   0  0  0  0  0  0  0  0  0  0  0  0
  -23.5972  -40.5073   -8.8759 C   0  0  0  0  0  0  0  0  0  0  0  0
  -23.0992  -39.6659   -7.9269 O   0  0  0  0  0  0  0  0  0  0  0  0
  -21.8982  -39.2759   -7.3687 C   0  0  0  0  0  0  0  0  0  0  0  0
  -21.9620  -39.3819   -5.9630 C   0  0  0  0  0  0  0  0  0  0  0  0
  -20.9148  -39.0627   -5.1394 C   0  0  0  0  0  0  0  0  0  0  0  0
  -19.7853  -38.6263   -5.7868 C   0  0  0  0  0  0  0  0  0  0  0  0
  -19.6751  -38.5030   -7.1875 C   0  0  0  0  0  0  0  0  0  0  0  0
  -18.3094  -38.0246   -7.5333 C   0  0  0  0  0  0  0  0  0  0  0  0
  -17.3269  -39.1233   -7.7568 C   0  0  2  0  0  0  0  0  0  0  0  0
  -17.2589  -40.1562   -6.7884 N   0  0  0  0  0  0  0  0  0  0  0  0
  -17.6159  -41.5134   -6.9147 C   0  0  0  0  0  0  0  0  0  0  0  0
  -16.7697  -42.4276   -6.5658 O   0  0  0  0  0  0  0  0  0  0  0  0
  -15.9569  -38.5478   -8.0921 C   0  0  2  0  0  0  0  0  0  0  0  0
  -16.2644  -37.1772   -8.4352 O   0  0  0  0  0  0  0  0  0  0  0  0
  -15.3601  -39.1082   -9.3165 C   0  0  0  0  0  0  0  0  0  0  0  0
  -14.4051  -40.0995   -9.3137 N   0  0  0  0  0  0  0  0  0  0  0  0
  -13.3839  -40.2616  -10.2374 C   0  0  0  0  0  0  0  0  0  0  0  0
  -13.0937  -41.6279  -10.8366 C   0  0  0  0  0  0  0  0  0  0  0  0
  -12.0964  -40.9343   -9.9670 C   0  0  0  0  0  0  0  0  0  0  0  0
  -13.2796  -39.0901  -11.2010 C   0  0  0  0  0  0  0  0  0  0  0  0
  -12.1898  -39.0673  -12.0403 C   0  0  0  0  0  0  0  0  0  0  0  0
  -12.0660  -38.0159  -12.9403 C   0  0  0  0  0  0  0  0  0  0  0  0
  -12.9991  -37.0057  -13.0118 C   0  0  0  0  0  0  0  0  0  0  0  0
  -14.0779  -37.0677  -12.1509 C   0  0  0  0  0  0  0  0  0  0  0  0
  -15.3953  -35.6915  -12.2135 Br  0  0  0  0  0  0  0  0  0  0  0  0
  -14.2393  -38.1134  -11.2271 C   0  0  0  0  0  0  0  0  0  0  0  0
  -20.7467  -38.8325   -7.9896 C   0  0  0  0  0  0  0  0  0  0  0  0
  2  1  1  1
  2  3  1  0
  3  4  1  0
  4  5  2  0
  4  6  2  0
  4  7  1  0
  7  8  1  0
  8  9  1  0
  9 10  1  0
 10 11  1  0
 11 12  1  0
 12 13  2  0
 13 14  1  0
 14 15  2  0
 15 16  1  0
 16 17  1  0
 18 17  1  1
 18 19  1  0
 19 20  1  0
 20 21  2  0
 18 22  1  0
 22 23  1  6
 22 24  1  0
 24 25  1  0
 25 26  1  0
 26 27  1  0
 27 28  1  0
 26 29  1  0
 29 30  2  0
 30 31  1  0
 31 32  2  0
 32 33  1  0
 33 34  1  0
 33 35  2  0
 16 36  2  0
 20  2  1  0
 28 26  1  0
 35 29  1  0
 36 12  1  0
M  END
$$$$
