
     RDKit          3D

 36 39  0  0  0  0  0  0  0  0999 V2000
  -19.6042  -43.4760   -4.9386 C   0  0  0  0  0  0  0  0  0  0  0  0
  -19.6342  -42.6526   -6.2226 C   0  0  2  0  0  0  0  0  0  0  0  0
  -20.0708  -43.4627   -7.3985 C   0  0  0  0  0  0  0  0  0  0  0  0
  -21.0685  -44.8392   -7.1037 S   0  0  0  0  0  6  0  0  0  0  0  0
  -20.1696  -45.9928   -6.6671 O   0  0  0  0  0  0  0  0  0  0  0  0
  -21.6142  -45.2977   -8.4553 O   0  0  0  0  0  0  0  0  0  0  0  0
  -22.3788  -44.7211   -5.9962 C   0  0  0  0  0  0  0  0  0  0  0  0
  -23.0991  -43.4280   -5.8724 C   0  0  0  0  0  0  0  0  0  0  0  0
  -23.6893  -42.9261   -7.1729 C   0  0  0  0  0  0  0  0  0  0  0  0
  -24.6771  -41.8084   -6.9159 C   0  0  0  0  0  0  0  0  0  0  0  0
  -24.0397  -40.6358   -6.6413 O   0  0  0  0  0  0  0  0  0  0  0  0
  -22.7804  -40.0709   -6.6740 C   0  0  0  0  0  0  0  0  0  0  0  0
  -22.4768  -39.4946   -5.4222 C   0  0  0  0  0  0  0  0  0  0  0  0
  -21.2917  -38.8605   -5.1571 C   0  0  0  0  0  0  0  0  0  0  0  0
  -20.4100  -38.8244   -6.2090 C   0  0  0  0  0  0  0  0  0  0  0  0
  -20.6693  -39.3848   -7.4771 C   0  0  0  0  0  0  0  0  0  0  0  0
  -19.4881  -39.1771   -8.3576 C   0  0  0  0  0  0  0  0  0  0  0  0
  -18.4920  -40.2846   -8.2973 C   0  0  2  0  0  0  0  0  0  0  0  0
  -18.0821  -40.7358   -7.0175 N   0  0  0  0  0  0  0  0  0  0  0  0
  -18.3260  -41.9765   -6.3960 C   0  0  0  0  0  0  0  0  0  0  0  0
  -17.3346  -42.6452   -5.9024 O   0  0  0  0  0  0  0  0  0  0  0  0
  -17.3134  -39.9867   -9.2152 C   0  0  2  0  0  0  0  0  0  0  0  0
  -17.4521  -40.9921  -10.2452 O   0  0  0  0  0  0  0  0  0  0  0  0
  -16.0010  -40.2629   -8.6063 C   0  0  0  0  0  0  0  0  0  0  0  0
  -14.8211  -39.7176   -9.0594 N   0  0  0  0  0  0  0  0  0  0  0  0
  -14.3666  -38.4287   -8.8261 C   0  0  0  0  0  0  0  0  0  0  0  0
  -12.8852  -38.1569   -8.6217 C   0  0  0  0  0  0  0  0  0  0  0  0
  -13.8748  -37.9265   -7.5263 C   0  0  0  0  0  0  0  0  0  0  0  0
  -15.1140  -37.3904   -9.6478 C   0  0  0  0  0  0  0  0  0  0  0  0
  -16.0749  -36.6524   -8.9964 C   0  0  0  0  0  0  0  0  0  0  0  0
  -16.7723  -35.6882   -9.7140 C   0  0  0  0  0  0  0  0  0  0  0  0
  -16.5271  -35.4560  -11.0491 C   0  0  0  0  0  0  0  0  0  0  0  0
  -15.5538  -36.2196  -11.6641 C   0  0  0  0  0  0  0  0  0  0  0  0
  -15.1796  -35.9337  -13.5113 Br  0  0  0  0  0  0  0  0  0  0  0  0
  -14.8269  -37.2035  -10.9739 C   0  0  0  0  0  0  0  0  0  0  0  0
  -21.8714  -40.0169   -7.7128 C   0  0  0  0  0  0  0  0  0  0  0  0
  2  1  1  1
  2  3  1  0
  3  4  1  0
  4  5  2  0
  4  6  2  0
  4  7  1  0
  7  8  1  0
  8  9  1  0
  9 10  1  0
 10 11  1  0
 11 12  1  0
 12 13  2  0
 13 14  1  0
 14 15  2  0
 15 16  1  0
 16 17  1  0
 18 17  1  1
 18 19  1  0
 19 20  1  0
 20 21  2  0
 18 22  1  0
 22 23  1  6
 22 24  1  0
 24 25  1  0
 25 26  1  0
 26 27  1  0
 27 28  1  0
 26 29  1  0
 29 30  2  0
 30 31  1  0
 31 32  2  0
 32 33  1  0
 33 34  1  0
 33 35  2  0
 16 36  2  0
 20  2  1  0
 28 26  1  0
 35 29  1  0
 36 12  1  0
M  END
$$$$
