
     RDKit          3D

 36 39  0  0  0  0  0  0  0  0999 V2000
  -18.9137  -43.2867   -5.2019 C   0  0  0  0  0  0  0  0  0  0  0  0
  -18.8929  -42.2236   -6.2959 C   0  0  2  0  0  0  0  0  0  0  0  0
  -18.9915  -42.8210   -7.6609 C   0  0  0  0  0  0  0  0  0  0  0  0
  -19.7600  -44.3582   -7.8146 S   0  0  0  0  0  6  0  0  0  0  0  0
  -18.7471  -45.4356   -7.4373 O   0  0  0  0  0  0  0  0  0  0  0  0
  -20.0005  -44.5943   -9.3050 O   0  0  0  0  0  0  0  0  0  0  0  0
  -21.2246  -44.6678   -6.9683 C   0  0  0  0  0  0  0  0  0  0  0  0
  -22.1751  -43.5482   -6.7460 C   0  0  0  0  0  0  0  0  0  0  0  0
  -22.6386  -42.8732   -8.0192 C   0  0  0  0  0  0  0  0  0  0  0  0
  -23.8381  -41.9901   -7.7504 C   0  0  0  0  0  0  0  0  0  0  0  0
  -23.4708  -40.8226   -7.1514 O   0  0  0  0  0  0  0  0  0  0  0  0
  -22.3431  -40.0875   -6.8447 C   0  0  0  0  0  0  0  0  0  0  0  0
  -22.3437  -39.7514   -5.4742 C   0  0  0  0  0  0  0  0  0  0  0  0
  -21.3463  -39.0232   -4.8811 C   0  0  0  0  0  0  0  0  0  0  0  0
  -20.3342  -38.6383   -5.7254 C   0  0  0  0  0  0  0  0  0  0  0  0
  -20.2910  -38.9492   -7.1005 C   0  0  0  0  0  0  0  0  0  0  0  0
  -19.0450  -38.3913   -7.6921 C   0  0  0  0  0  0  0  0  0  0  0  0
  -17.8880  -39.3306   -7.6512 C   0  0  2  0  0  0  0  0  0  0  0  0
  -17.6056  -39.9781   -6.4224 N   0  0  0  0  0  0  0  0  0  0  0  0
  -17.7161  -41.3442   -6.0954 C   0  0  0  0  0  0  0  0  0  0  0  0
  -16.7088  -41.9517   -5.5569 O   0  0  0  0  0  0  0  0  0  0  0  0
  -16.6550  -38.6780   -8.2629 C   0  0  2  0  0  0  0  0  0  0  0  0
  -17.2259  -37.7603   -9.2235 O   0  0  0  0  0  0  0  0  0  0  0  0
  -15.8366  -39.5962   -9.0733 C   0  0  0  0  0  0  0  0  0  0  0  0
  -14.5091  -39.8579   -8.8206 N   0  0  0  0  0  0  0  0  0  0  0  0
  -13.4782  -39.8543   -9.7477 C   0  0  0  0  0  0  0  0  0  0  0  0
  -12.6336  -41.0985   -9.9689 C   0  0  0  0  0  0  0  0  0  0  0  0
  -12.0388  -39.8455   -9.4136 C   0  0  0  0  0  0  0  0  0  0  0  0
  -13.8270  -39.0699  -11.0027 C   0  0  0  0  0  0  0  0  0  0  0  0
  -13.6360  -39.7040  -12.2084 C   0  0  0  0  0  0  0  0  0  0  0  0
  -13.9522  -39.0204  -13.3762 C   0  0  0  0  0  0  0  0  0  0  0  0
  -14.4473  -37.7355  -13.3558 C   0  0  0  0  0  0  0  0  0  0  0  0
  -14.6236  -37.1363  -12.1235 C   0  0  0  0  0  0  0  0  0  0  0  0
  -15.3066  -35.3583  -12.0455 Br  0  0  0  0  0  0  0  0  0  0  0  0
  -14.3164  -37.7933  -10.9207 C   0  0  0  0  0  0  0  0  0  0  0  0
  -21.3098  -39.6841   -7.6680 C   0  0  0  0  0  0  0  0  0  0  0  0
  2  1  1  1
  2  3  1  0
  3  4  1  0
  4  5  2  0
  4  6  2  0
  4  7  1  0
  7  8  1  0
  8  9  1  0
  9 10  1  0
 10 11  1  0
 11 12  1  0
 12 13  2  0
 13 14  1  0
 14 15  2  0
 15 16  1  0
 16 17  1  0
 18 17  1  1
 18 19  1  0
 19 20  1  0
 20 21  2  0
 18 22  1  0
 22 23  1  6
 22 24  1  0
 24 25  1  0
 25 26  1  0
 26 27  1  0
 27 28  1  0
 26 29  1  0
 29 30  2  0
 30 31  1  0
 31 32  2  0
 32 33  1  0
 33 34  1  0
 33 35  2  0
 16 36  2  0
 20  2  1  0
 28 26  1  0
 35 29  1  0
 36 12  1  0
M  END
$$$$
