
     RDKit          3D

 36 39  0  0  0  0  0  0  0  0999 V2000
  -15.1195  -41.9838  -12.4400 C   0  0  0  0  0  0  0  0  0  0  0  0
  -15.1013  -41.1034  -11.1942 C   0  0  2  0  0  0  0  0  0  0  0  0
  -14.2572  -41.6849  -10.1084 C   0  0  0  0  0  0  0  0  0  0  0  0
  -12.9783  -42.7498  -10.5641 S   0  0  0  0  0  6  0  0  0  0  0  0
  -13.5766  -44.1316  -10.8126 O   0  0  0  0  0  0  0  0  0  0  0  0
  -12.1000  -42.9527   -9.3303 O   0  0  0  0  0  0  0  0  0  0  0  0
  -11.9669  -42.3471  -11.8954 C   0  0  0  0  0  0  0  0  0  0  0  0
  -11.6735  -40.9165  -12.1664 C   0  0  0  0  0  0  0  0  0  0  0  0
  -11.0331  -40.1891  -11.0034 C   0  0  0  0  0  0  0  0  0  0  0  0
  -10.4609  -38.8618  -11.4524 C   0  0  0  0  0  0  0  0  0  0  0  0
  -11.4408  -37.9299  -11.6202 O   0  0  0  0  0  0  0  0  0  0  0  0
  -12.7828  -37.7323  -11.3634 C   0  0  0  0  0  0  0  0  0  0  0  0
  -13.4485  -37.3433  -12.5452 C   0  0  0  0  0  0  0  0  0  0  0  0
  -14.7916  -37.0781  -12.5958 C   0  0  0  0  0  0  0  0  0  0  0  0
  -15.4518  -37.2185  -11.4001 C   0  0  0  0  0  0  0  0  0  0  0  0
  -14.8295  -37.6033  -10.1943 C   0  0  0  0  0  0  0  0  0  0  0  0
  -15.8503  -37.6725   -9.1141 C   0  0  0  0  0  0  0  0  0  0  0  0
  -16.4882  -39.0128   -8.9756 C   0  0  2  0  0  0  0  0  0  0  0  0
  -16.9692  -39.6405  -10.1520 N   0  0  0  0  0  0  0  0  0  0  0  0
  -16.4964  -40.8035  -10.7918 C   0  0  0  0  0  0  0  0  0  0  0  0
  -17.3287  -41.7494  -11.0856 O   0  0  0  0  0  0  0  0  0  0  0  0
  -17.5255  -38.9923   -7.8603 C   0  0  2  0  0  0  0  0  0  0  0  0
  -16.7339  -38.6572   -6.6976 O   0  0  0  0  0  0  0  0  0  0  0  0
  -18.0915  -40.3164   -7.5504 C   0  0  0  0  0  0  0  0  0  0  0  0
  -19.0999  -40.9035   -8.2805 N   0  0  0  0  0  0  0  0  0  0  0  0
  -20.2684  -40.2931   -8.7099 C   0  0  0  0  0  0  0  0  0  0  0  0
  -21.2762  -41.0591   -9.5513 C   0  0  0  0  0  0  0  0  0  0  0  0
  -20.5451  -39.8777  -10.1007 C   0  0  0  0  0  0  0  0  0  0  0  0
  -20.8628  -39.3697   -7.6584 C   0  0  0  0  0  0  0  0  0  0  0  0
  -20.5774  -38.0287   -7.7720 C   0  0  0  0  0  0  0  0  0  0  0  0
  -21.1107  -37.1539   -6.8334 C   0  0  0  0  0  0  0  0  0  0  0  0
  -21.9105  -37.5927   -5.8018 C   0  0  0  0  0  0  0  0  0  0  0  0
  -22.1718  -38.9471   -5.7251 C   0  0  0  0  0  0  0  0  0  0  0  0
  -23.2741  -39.6011   -4.3141 Br  0  0  0  0  0  0  0  0  0  0  0  0
  -21.6520  -39.8636   -6.6540 C   0  0  0  0  0  0  0  0  0  0  0  0
  -13.4760  -37.8639  -10.1758 C   0  0  0  0  0  0  0  0  0  0  0  0
  2  1  1  6
  2  3  1  0
  3  4  1  0
  4  5  2  0
  4  6  2  0
  4  7  1  0
  7  8  1  0
  8  9  1  0
  9 10  1  0
 10 11  1  0
 11 12  1  0
 12 13  2  0
 13 14  1  0
 14 15  2  0
 15 16  1  0
 16 17  1  0
 18 17  1  6
 18 19  1  0
 19 20  1  0
 20 21  2  0
 18 22  1  0
 22 23  1  1
 22 24  1  0
 24 25  1  0
 25 26  1  0
 26 27  1  0
 27 28  1  0
 26 29  1  0
 29 30  2  0
 30 31  1  0
 31 32  2  0
 32 33  1  0
 33 34  1  0
 33 35  2  0
 16 36  2  0
 20  2  1  0
 28 26  1  0
 35 29  1  0
 36 12  1  0
M  END
$$$$
