
     RDKit          3D

 36 39  0  0  0  0  0  0  0  0999 V2000
  -20.3289  -42.7427  -10.2449 C   0  0  0  0  0  0  0  0  0  0  0  0
  -19.3441  -42.3349   -9.1533 C   0  0  2  0  0  0  0  0  0  0  0  0
  -20.0324  -42.0168   -7.8670 C   0  0  0  0  0  0  0  0  0  0  0  0
  -21.5635  -42.7540   -7.5680 S   0  0  0  0  0  6  0  0  0  0  0  0
  -22.6291  -41.9552   -8.3133 O   0  0  0  0  0  0  0  0  0  0  0  0
  -21.8977  -42.5169   -6.0959 O   0  0  0  0  0  0  0  0  0  0  0  0
  -21.7895  -44.4224   -7.9184 C   0  0  0  0  0  0  0  0  0  0  0  0
  -20.6416  -45.3512   -7.7575 C   0  0  0  0  0  0  0  0  0  0  0  0
  -20.0483  -45.3599   -6.3648 C   0  0  0  0  0  0  0  0  0  0  0  0
  -19.1288  -46.5483   -6.1825 C   0  0  0  0  0  0  0  0  0  0  0  0
  -17.9291  -46.3466   -6.7963 O   0  0  0  0  0  0  0  0  0  0  0  0
  -17.1936  -45.3480   -7.4029 C   0  0  0  0  0  0  0  0  0  0  0  0
  -16.7639  -45.7717   -8.6785 C   0  0  0  0  0  0  0  0  0  0  0  0
  -16.0133  -44.9879   -9.5146 C   0  0  0  0  0  0  0  0  0  0  0  0
  -15.7045  -43.7461   -9.0169 C   0  0  0  0  0  0  0  0  0  0  0  0
  -16.1100  -43.2797   -7.7491 C   0  0  0  0  0  0  0  0  0  0  0  0
  -15.6151  -41.8901   -7.5547 C   0  0  0  0  0  0  0  0  0  0  0  0
  -16.5685  -40.8425   -8.0197 C   0  0  2  0  0  0  0  0  0  0  0  0
  -17.1345  -40.9902   -9.3108 N   0  0  0  0  0  0  0  0  0  0  0  0
  -18.4728  -41.2506   -9.6666 C   0  0  0  0  0  0  0  0  0  0  0  0
  -19.0585  -40.4906  -10.5344 O   0  0  0  0  0  0  0  0  0  0  0  0
  -15.9803  -39.4552   -7.7965 C   0  0  2  0  0  0  0  0  0  0  0  0
  -15.9993  -39.3311   -6.3559 O   0  0  0  0  0  0  0  0  0  0  0  0
  -16.8435  -38.3601   -8.2711 C   0  0  0  0  0  0  0  0  0  0  0  0
  -17.1204  -38.1296   -9.5996 N   0  0  0  0  0  0  0  0  0  0  0  0
  -16.7841  -36.9978  -10.3264 C   0  0  0  0  0  0  0  0  0  0  0  0
  -15.3454  -36.7508  -10.7500 C   0  0  0  0  0  0  0  0  0  0  0  0
  -16.0398  -35.8385   -9.7921 C   0  0  0  0  0  0  0  0  0  0  0  0
  -17.8405  -36.6332  -11.3574 C   0  0  0  0  0  0  0  0  0  0  0  0
  -17.6846  -35.4343  -12.0137 C   0  0  0  0  0  0  0  0  0  0  0  0
  -18.6265  -35.0722  -12.9690 C   0  0  0  0  0  0  0  0  0  0  0  0
  -19.7023  -35.8770  -13.2716 C   0  0  0  0  0  0  0  0  0  0  0  0
  -19.8204  -37.0722  -12.5889 C   0  0  0  0  0  0  0  0  0  0  0  0
  -21.2934  -38.2192  -12.9742 Br  0  0  0  0  0  0  0  0  0  0  0  0
  -18.8898  -37.4743  -11.6167 C   0  0  0  0  0  0  0  0  0  0  0  0
  -16.8652  -44.0922   -6.9307 C   0  0  0  0  0  0  0  0  0  0  0  0
  2  1  1  6
  2  3  1  0
  3  4  1  0
  4  5  2  0
  4  6  2  0
  4  7  1  0
  7  8  1  0
  8  9  1  0
  9 10  1  0
 10 11  1  0
 11 12  1  0
 12 13  2  0
 13 14  1  0
 14 15  2  0
 15 16  1  0
 16 17  1  0
 18 17  1  6
 18 19  1  0
 19 20  1  0
 20 21  2  0
 18 22  1  0
 22 23  1  1
 22 24  1  0
 24 25  1  0
 25 26  1  0
 26 27  1  0
 27 28  1  0
 26 29  1  0
 29 30  2  0
 30 31  1  0
 31 32  2  0
 32 33  1  0
 33 34  1  0
 33 35  2  0
 16 36  2  0
 20  2  1  0
 28 26  1  0
 35 29  1  0
 36 12  1  0
M  END
$$$$
