
     RDKit          3D

 36 39  0  0  0  0  0  0  0  0999 V2000
  -19.4508  -43.4365   -6.8519 C   0  0  0  0  0  0  0  0  0  0  0  0
  -19.0075  -42.1328   -7.5087 C   0  0  2  0  0  0  0  0  0  0  0  0
  -19.1772  -42.1656   -8.9918 C   0  0  0  0  0  0  0  0  0  0  0  0
  -20.3749  -43.2231   -9.6431 S   0  0  0  0  0  6  0  0  0  0  0  0
  -19.7867  -44.6303   -9.6987 O   0  0  0  0  0  0  0  0  0  0  0  0
  -20.5551  -42.8484  -11.1135 O   0  0  0  0  0  0  0  0  0  0  0  0
  -21.9265  -43.3106   -8.9067 C   0  0  0  0  0  0  0  0  0  0  0  0
  -22.4914  -42.0898   -8.2767 C   0  0  0  0  0  0  0  0  0  0  0  0
  -22.6136  -40.9118   -9.2195 C   0  0  0  0  0  0  0  0  0  0  0  0
  -23.4921  -39.8352   -8.6193 C   0  0  0  0  0  0  0  0  0  0  0  0
  -22.8264  -39.1257   -7.6653 O   0  0  0  0  0  0  0  0  0  0  0  0
  -21.5538  -38.9447   -7.1617 C   0  0  0  0  0  0  0  0  0  0  0  0
  -21.5604  -39.1126   -5.7606 C   0  0  0  0  0  0  0  0  0  0  0  0
  -20.4365  -38.9927   -4.9865 C   0  0  0  0  0  0  0  0  0  0  0  0
  -19.2894  -38.6932   -5.6791 C   0  0  0  0  0  0  0  0  0  0  0  0
  -19.2341  -38.5152   -7.0772 C   0  0  0  0  0  0  0  0  0  0  0  0
  -17.8320  -38.2243   -7.4810 C   0  0  0  0  0  0  0  0  0  0  0  0
  -17.0366  -39.4417   -7.8090 C   0  0  2  0  0  0  0  0  0  0  0  0
  -17.0734  -40.5220   -6.8920 N   0  0  0  0  0  0  0  0  0  0  0  0
  -17.6343  -41.8042   -7.0561 C   0  0  0  0  0  0  0  0  0  0  0  0
  -16.9167  -42.8490   -6.7973 O   0  0  0  0  0  0  0  0  0  0  0  0
  -15.6153  -39.0560   -8.1983 C   0  0  2  0  0  0  0  0  0  0  0  0
  -15.8201  -37.8943   -9.0346 O   0  0  0  0  0  0  0  0  0  0  0  0
  -14.9550  -40.0327   -9.0813 C   0  0  0  0  0  0  0  0  0  0  0  0
  -13.7005  -40.5474   -8.8445 N   0  0  0  0  0  0  0  0  0  0  0  0
  -12.6591  -40.6305   -9.7560 C   0  0  0  0  0  0  0  0  0  0  0  0
  -12.1465  -41.9833  -10.2223 C   0  0  0  0  0  0  0  0  0  0  0  0
  -11.2818  -41.0562   -9.4317 C   0  0  0  0  0  0  0  0  0  0  0  0
  -12.7382  -39.5565  -10.8294 C   0  0  0  0  0  0  0  0  0  0  0  0
  -13.4621  -39.8563  -11.9602 C   0  0  0  0  0  0  0  0  0  0  0  0
  -13.5632  -38.8953  -12.9587 C   0  0  0  0  0  0  0  0  0  0  0  0
  -12.9618  -37.6616  -12.8448 C   0  0  0  0  0  0  0  0  0  0  0  0
  -12.2447  -37.4023  -11.6928 C   0  0  0  0  0  0  0  0  0  0  0  0
  -11.3948  -35.7081  -11.4904 Br  0  0  0  0  0  0  0  0  0  0  0  0
  -12.1189  -38.3467  -10.6607 C   0  0  0  0  0  0  0  0  0  0  0  0
  -20.3825  -38.6428   -7.8289 C   0  0  0  0  0  0  0  0  0  0  0  0
  2  1  1  6
  2  3  1  0
  3  4  1  0
  4  5  2  0
  4  6  2  0
  4  7  1  0
  7  8  1  0
  8  9  1  0
  9 10  1  0
 10 11  1  0
 11 12  1  0
 12 13  2  0
 13 14  1  0
 14 15  2  0
 15 16  1  0
 16 17  1  0
 18 17  1  1
 18 19  1  0
 19 20  1  0
 20 21  2  0
 18 22  1  0
 22 23  1  6
 22 24  1  0
 24 25  1  0
 25 26  1  0
 26 27  1  0
 27 28  1  0
 26 29  1  0
 29 30  2  0
 30 31  1  0
 31 32  2  0
 32 33  1  0
 33 34  1  0
 33 35  2  0
 16 36  2  0
 20  2  1  0
 28 26  1  0
 35 29  1  0
 36 12  1  0
M  END
$$$$
