
     RDKit          3D

 36 39  0  0  0  0  0  0  0  0999 V2000
  -16.0004  -41.9065  -12.1495 C   0  0  0  0  0  0  0  0  0  0  0  0
  -15.4741  -41.2765  -10.8635 C   0  0  2  0  0  0  0  0  0  0  0  0
  -14.9915  -42.3031   -9.8925 C   0  0  0  0  0  0  0  0  0  0  0  0
  -14.4584  -43.8192  -10.5204 S   0  0  0  0  0  6  0  0  0  0  0  0
  -15.6888  -44.6808  -10.7902 O   0  0  0  0  0  0  0  0  0  0  0  0
  -13.7461  -44.5518   -9.3843 O   0  0  0  0  0  0  0  0  0  0  0  0
  -13.4506  -43.8584  -11.9133 C   0  0  0  0  0  0  0  0  0  0  0  0
  -12.4829  -42.7525  -12.1299 C   0  0  0  0  0  0  0  0  0  0  0  0
  -11.5044  -42.5599  -10.9910 C   0  0  0  0  0  0  0  0  0  0  0  0
  -10.3587  -41.6664  -11.4155 C   0  0  0  0  0  0  0  0  0  0  0  0
  -10.7338  -40.3568  -11.4419 O   0  0  0  0  0  0  0  0  0  0  0  0
  -11.7731  -39.5348  -11.0542 C   0  0  0  0  0  0  0  0  0  0  0  0
  -12.2053  -38.7545  -12.1476 C   0  0  0  0  0  0  0  0  0  0  0  0
  -13.2263  -37.8451  -12.0617 C   0  0  0  0  0  0  0  0  0  0  0  0
  -13.8056  -37.7451  -10.8208 C   0  0  0  0  0  0  0  0  0  0  0  0
  -13.4072  -38.5022   -9.6995 C   0  0  0  0  0  0  0  0  0  0  0  0
  -14.2657  -38.1484   -8.5369 C   0  0  0  0  0  0  0  0  0  0  0  0
  -15.4898  -38.9907   -8.4159 C   0  0  2  0  0  0  0  0  0  0  0  0
  -16.2813  -39.1769   -9.5770 N   0  0  0  0  0  0  0  0  0  0  0  0
  -16.4997  -40.3537  -10.3205 C   0  0  0  0  0  0  0  0  0  0  0  0
  -17.7112  -40.7188  -10.5899 O   0  0  0  0  0  0  0  0  0  0  0  0
  -16.3149  -38.5549   -7.2119 C   0  0  2  0  0  0  0  0  0  0  0  0
  -15.6160  -39.1742   -6.1079 O   0  0  0  0  0  0  0  0  0  0  0  0
  -17.6638  -39.1452   -7.1705 C   0  0  0  0  0  0  0  0  0  0  0  0
  -18.7202  -38.6848   -7.9233 N   0  0  0  0  0  0  0  0  0  0  0  0
  -20.0268  -38.5152   -7.4914 C   0  0  0  0  0  0  0  0  0  0  0  0
  -20.3331  -37.6588   -6.2737 C   0  0  0  0  0  0  0  0  0  0  0  0
  -20.6036  -39.1282   -6.2769 C   0  0  0  0  0  0  0  0  0  0  0  0
  -21.0086  -38.3854   -8.6451 C   0  0  0  0  0  0  0  0  0  0  0  0
  -22.3157  -38.1013   -8.3234 C   0  0  0  0  0  0  0  0  0  0  0  0
  -23.2393  -37.9671   -9.3529 C   0  0  0  0  0  0  0  0  0  0  0  0
  -22.8813  -38.1104  -10.6749 C   0  0  0  0  0  0  0  0  0  0  0  0
  -21.5584  -38.3953  -10.9532 C   0  0  0  0  0  0  0  0  0  0  0  0
  -21.0159  -38.6024  -12.7688 Br  0  0  0  0  0  0  0  0  0  0  0  0
  -20.5946  -38.5385   -9.9415 C   0  0  0  0  0  0  0  0  0  0  0  0
  -12.3765  -39.4098   -9.8180 C   0  0  0  0  0  0  0  0  0  0  0  0
  2  1  1  6
  2  3  1  0
  3  4  1  0
  4  5  2  0
  4  6  2  0
  4  7  1  0
  7  8  1  0
  8  9  1  0
  9 10  1  0
 10 11  1  0
 11 12  1  0
 12 13  2  0
 13 14  1  0
 14 15  2  0
 15 16  1  0
 16 17  1  0
 18 17  1  6
 18 19  1  0
 19 20  1  0
 20 21  2  0
 18 22  1  0
 22 23  1  1
 22 24  1  0
 24 25  1  0
 25 26  1  0
 26 27  1  0
 27 28  1  0
 26 29  1  0
 29 30  2  0
 30 31  1  0
 31 32  2  0
 32 33  1  0
 33 34  1  0
 33 35  2  0
 16 36  2  0
 20  2  1  0
 28 26  1  0
 35 29  1  0
 36 12  1  0
M  END
$$$$
