
     RDKit          3D

 36 39  0  0  0  0  0  0  0  0999 V2000
  -17.8640  -41.5053  -11.3645 C   0  0  0  0  0  0  0  0  0  0  0  0
  -17.1429  -40.6530  -10.3248 C   0  0  2  0  0  0  0  0  0  0  0  0
  -15.9340  -41.3382   -9.7782 C   0  0  0  0  0  0  0  0  0  0  0  0
  -15.1626  -42.5232  -10.7671 S   0  0  0  0  0  6  0  0  0  0  0  0
  -15.9393  -43.8304  -10.6354 O   0  0  0  0  0  0  0  0  0  0  0  0
  -13.8132  -42.8381  -10.1230 O   0  0  0  0  0  0  0  0  0  0  0  0
  -14.9105  -42.2060  -12.4383 C   0  0  0  0  0  0  0  0  0  0  0  0
  -14.6496  -40.8095  -12.8721 C   0  0  0  0  0  0  0  0  0  0  0  0
  -13.4481  -40.1733  -12.2064 C   0  0  0  0  0  0  0  0  0  0  0  0
  -13.0453  -38.9056  -12.9288 C   0  0  0  0  0  0  0  0  0  0  0  0
  -13.8811  -37.8735  -12.6242 O   0  0  0  0  0  0  0  0  0  0  0  0
  -14.8918  -37.5409  -11.7444 C   0  0  0  0  0  0  0  0  0  0  0  0
  -16.0136  -37.0642  -12.4555 C   0  0  0  0  0  0  0  0  0  0  0  0
  -17.1709  -36.6590  -11.8446 C   0  0  0  0  0  0  0  0  0  0  0  0
  -17.1613  -36.7499  -10.4746 C   0  0  0  0  0  0  0  0  0  0  0  0
  -16.0646  -37.2183   -9.7214 C   0  0  0  0  0  0  0  0  0  0  0  0
  -16.4164  -37.1986   -8.2759 C   0  0  0  0  0  0  0  0  0  0  0  0
  -17.0311  -38.4669   -7.7901 C   0  0  2  0  0  0  0  0  0  0  0  0
  -18.0919  -39.0206   -8.5500 N   0  0  0  0  0  0  0  0  0  0  0  0
  -18.1169  -40.2156   -9.2961 C   0  0  0  0  0  0  0  0  0  0  0  0
  -19.0746  -41.0640   -9.1041 O   0  0  0  0  0  0  0  0  0  0  0  0
  -17.3707  -38.3569   -6.3092 C   0  0  2  0  0  0  0  0  0  0  0  0
  -16.0719  -38.4410   -5.6793 O   0  0  0  0  0  0  0  0  0  0  0  0
  -18.1109  -39.5158   -5.7814 C   0  0  0  0  0  0  0  0  0  0  0  0
  -19.4118  -39.8086   -6.1228 N   0  0  0  0  0  0  0  0  0  0  0  0
  -20.4925  -39.8865   -5.2578 C   0  0  0  0  0  0  0  0  0  0  0  0
  -20.6299  -38.9081   -4.1028 C   0  0  0  0  0  0  0  0  0  0  0  0
  -20.4274  -40.3687   -3.8625 C   0  0  0  0  0  0  0  0  0  0  0  0
  -21.7870  -40.2376   -5.9740 C   0  0  0  0  0  0  0  0  0  0  0  0
  -22.9404  -40.2171   -5.2247 C   0  0  0  0  0  0  0  0  0  0  0  0
  -24.1436  -40.5244   -5.8482 C   0  0  0  0  0  0  0  0  0  0  0  0
  -24.2086  -40.8460   -7.1857 C   0  0  0  0  0  0  0  0  0  0  0  0
  -23.0266  -40.8546   -7.9008 C   0  0  0  0  0  0  0  0  0  0  0  0
  -23.0672  -41.2939   -9.7553 Br  0  0  0  0  0  0  0  0  0  0  0  0
  -21.7904  -40.5498   -7.3076 C   0  0  0  0  0  0  0  0  0  0  0  0
  -14.9138  -37.6194  -10.3655 C   0  0  0  0  0  0  0  0  0  0  0  0
  2  1  1  6
  2  3  1  0
  3  4  1  0
  4  5  2  0
  4  6  2  0
  4  7  1  0
  7  8  1  0
  8  9  1  0
  9 10  1  0
 10 11  1  0
 11 12  1  0
 12 13  2  0
 13 14  1  0
 14 15  2  0
 15 16  1  0
 16 17  1  0
 18 17  1  6
 18 19  1  0
 19 20  1  0
 20 21  2  0
 18 22  1  0
 22 23  1  1
 22 24  1  0
 24 25  1  0
 25 26  1  0
 26 27  1  0
 27 28  1  0
 26 29  1  0
 29 30  2  0
 30 31  1  0
 31 32  2  0
 32 33  1  0
 33 34  1  0
 33 35  2  0
 16 36  2  0
 20  2  1  0
 28 26  1  0
 35 29  1  0
 36 12  1  0
M  END
$$$$
