
     RDKit          3D

 36 39  0  0  0  0  0  0  0  0999 V2000
  -19.5288  -43.4431   -6.2821 C   0  0  0  0  0  0  0  0  0  0  0  0
  -19.3008  -42.2669   -7.2267 C   0  0  2  0  0  0  0  0  0  0  0  0
  -19.4909  -42.6509   -8.6571 C   0  0  0  0  0  0  0  0  0  0  0  0
  -20.5259  -43.9876   -9.0024 S   0  0  0  0  0  6  0  0  0  0  0  0
  -19.7319  -45.2723   -8.7831 O   0  0  0  0  0  0  0  0  0  0  0  0
  -20.7880  -43.9771  -10.5077 O   0  0  0  0  0  0  0  0  0  0  0  0
  -22.0324  -44.1328   -8.1857 C   0  0  0  0  0  0  0  0  0  0  0  0
  -22.7644  -42.8974   -7.8058 C   0  0  0  0  0  0  0  0  0  0  0  0
  -23.0815  -41.9871   -8.9731 C   0  0  0  0  0  0  0  0  0  0  0  0
  -24.1021  -40.9427   -8.5750 C   0  0  0  0  0  0  0  0  0  0  0  0
  -23.5345  -39.9515   -7.8321 O   0  0  0  0  0  0  0  0  0  0  0  0
  -22.2950  -39.4822   -7.4455 C   0  0  0  0  0  0  0  0  0  0  0  0
  -22.2502  -39.3353   -6.0428 C   0  0  0  0  0  0  0  0  0  0  0  0
  -21.1434  -38.8866   -5.3715 C   0  0  0  0  0  0  0  0  0  0  0  0
  -20.0681  -38.5855   -6.1704 C   0  0  0  0  0  0  0  0  0  0  0  0
  -20.0663  -38.7149   -7.5749 C   0  0  0  0  0  0  0  0  0  0  0  0
  -18.7324  -38.3215   -8.1035 C   0  0  0  0  0  0  0  0  0  0  0  0
  -17.7674  -39.4536   -8.2014 C   0  0  2  0  0  0  0  0  0  0  0  0
  -17.6228  -40.2982   -7.0723 N   0  0  0  0  0  0  0  0  0  0  0  0
  -17.9854  -41.6520   -6.9269 C   0  0  0  0  0  0  0  0  0  0  0  0
  -17.1127  -42.4992   -6.4858 O   0  0  0  0  0  0  0  0  0  0  0  0
  -16.4286  -38.9628   -8.7373 C   0  0  2  0  0  0  0  0  0  0  0  0
  -16.8231  -38.0417   -9.7798 O   0  0  0  0  0  0  0  0  0  0  0  0
  -15.6524  -40.0002   -9.4379 C   0  0  0  0  0  0  0  0  0  0  0  0
  -14.3690  -40.3561   -9.0903 N   0  0  0  0  0  0  0  0  0  0  0  0
  -13.2043  -39.6999   -9.4581 C   0  0  0  0  0  0  0  0  0  0  0  0
  -11.8457  -40.3188   -9.1728 C   0  0  0  0  0  0  0  0  0  0  0  0
  -12.2699  -39.0435   -8.5203 C   0  0  0  0  0  0  0  0  0  0  0  0
  -13.3323  -38.9947  -10.7991 C   0  0  0  0  0  0  0  0  0  0  0  0
  -14.1338  -39.5919  -11.7443 C   0  0  0  0  0  0  0  0  0  0  0  0
  -14.2811  -38.9711  -12.9788 C   0  0  0  0  0  0  0  0  0  0  0  0
  -13.6500  -37.7838  -13.2760 C   0  0  0  0  0  0  0  0  0  0  0  0
  -12.8546  -37.2186  -12.2979 C   0  0  0  0  0  0  0  0  0  0  0  0
  -11.9609  -35.5751  -12.6638 Br  0  0  0  0  0  0  0  0  0  0  0  0
  -12.6802  -37.8143  -11.0380 C   0  0  0  0  0  0  0  0  0  0  0  0
  -21.1957  -39.1697   -8.2214 C   0  0  0  0  0  0  0  0  0  0  0  0
  2  1  1  1
  2  3  1  0
  3  4  1  0
  4  5  2  0
  4  6  2  0
  4  7  1  0
  7  8  1  0
  8  9  1  0
  9 10  1  0
 10 11  1  0
 11 12  1  0
 12 13  2  0
 13 14  1  0
 14 15  2  0
 15 16  1  0
 16 17  1  0
 18 17  1  1
 18 19  1  0
 19 20  1  0
 20 21  2  0
 18 22  1  0
 22 23  1  6
 22 24  1  0
 24 25  1  0
 25 26  1  0
 26 27  1  0
 27 28  1  0
 26 29  1  0
 29 30  2  0
 30 31  1  0
 31 32  2  0
 32 33  1  0
 33 34  1  0
 33 35  2  0
 16 36  2  0
 20  2  1  0
 28 26  1  0
 35 29  1  0
 36 12  1  0
M  END
$$$$
