
     RDKit          3D

 37 39  0  0  0  0  0  0  0  0999 V2000
  -11.5240  -35.9015  -12.9176 C   0  0  0  0  0  0  0  0  0  0  0  0
  -11.6525  -36.9358  -11.8476 C   0  0  0  0  0  0  0  0  0  0  0  0
  -12.6318  -38.0245  -12.1431 C   0  0  0  0  0  0  0  0  0  0  0  0
  -12.1169  -39.4123  -11.9825 C   0  0  0  0  0  0  0  0  0  0  0  0
  -12.2686  -39.9801  -10.6679 N   0  0  0  0  0  0  0  0  0  0  0  0
  -13.5414  -40.3846  -10.1423 C   0  0  0  0  0  0  0  0  0  0  0  0
  -14.3148  -40.9661  -10.9686 O   0  0  0  0  0  0  0  0  0  0  0  0
  -13.9716  -40.1640   -8.7465 C   0  0  2  0  0  0  0  0  0  0  0  0
  -12.9392  -40.7716   -7.8310 C   0  0  0  0  0  0  0  0  0  0  0  0
  -15.3829  -40.4729   -8.4306 C   0  0  0  0  0  0  0  0  0  0  0  0
  -16.2775  -39.3408   -8.1104 C   0  0  2  0  0  0  0  0  0  0  0  0
  -16.1324  -39.0552   -6.7333 O   0  0  0  0  0  0  0  0  0  0  0  0
  -17.7756  -39.6625   -8.3560 C   0  0  2  0  0  0  0  0  0  0  0  0
  -18.5457  -39.1334   -7.1841 C   0  0  0  0  0  0  0  0  0  0  0  0
  -19.8579  -38.4895   -7.4702 C   0  0  0  0  0  0  0  0  0  0  0  0
  -21.1040  -38.6440   -6.9081 C   0  0  0  0  0  0  0  0  0  0  0  0
  -22.1376  -37.8881   -7.3944 C   0  0  0  0  0  0  0  0  0  0  0  0
  -23.5701  -37.8104   -6.9973 C   0  0  0  0  0  0  0  0  0  0  0  0
  -24.4311  -38.7998   -7.7324 C   0  0  0  0  0  0  0  0  0  0  0  0
  -23.9323  -40.2019   -7.5162 C   0  0  0  0  0  0  0  0  0  0  0  0
  -24.4383  -40.8350   -6.2410 C   0  0  0  0  0  0  0  0  0  0  0  0
  -23.7826  -42.1545   -5.9187 C   0  0  0  0  0  0  0  0  0  0  0  0
  -22.5494  -41.9958   -5.1969 N   0  0  0  0  0  0  0  0  0  0  0  0
  -21.1896  -42.2626   -5.5579 C   0  0  0  0  0  0  0  0  0  0  0  0
  -20.4549  -41.9688   -6.6793 C   0  0  0  0  0  0  0  0  0  0  0  0
  -19.1280  -42.3315   -6.6694 C   0  0  0  0  0  0  0  0  0  0  0  0
  -18.5984  -42.9795   -5.5295 C   0  0  0  0  0  0  0  0  0  0  0  0
  -19.3351  -43.2752   -4.4068 C   0  0  0  0  0  0  0  0  0  0  0  0
  -20.5943  -42.9034   -4.4726 N   0  0  0  0  0  0  0  0  0  0  0  0
  -18.7463  -43.9124   -3.3273 O   0  0  0  0  0  0  0  0  0  0  0  0
  -19.6329  -44.1854   -2.2266 C   0  0  0  0  0  0  0  0  0  0  0  0
  -18.0583  -42.1369   -7.6752 C   0  0  0  0  0  0  0  0  0  0  0  0
  -17.1633  -43.0989   -7.8152 O   0  0  0  0  0  0  0  0  0  0  0  0
  -17.7825  -41.0885   -8.5535 N   0  0  0  0  0  0  0  0  0  0  0  0
  -21.9013  -36.9769   -8.4525 C   0  0  0  0  0  0  0  0  0  0  0  0
  -20.6824  -36.7880   -9.0411 C   0  0  0  0  0  0  0  0  0  0  0  0
  -19.6767  -37.5563   -8.5305 C   0  0  0  0  0  0  0  0  0  0  0  0
  1  2  1  0
  2  3  1  0
  3  4  1  0
  4  5  1  0
  5  6  1  0
  6  7  2  0
  6  8  1  0
  8  9  1  1
  8 10  1  0
 10 11  1  0
 11 12  1  1
 11 13  1  0
 13 14  1  1
 14 15  1  0
 15 16  1  0
 16 17  2  0
 17 18  1  0
 18 19  1  0
 19 20  1  0
 20 21  1  0
 21 22  1  0
 22 23  1  0
 23 24  1  0
 24 25  1  0
 25 26  2  0
 26 27  1  0
 27 28  2  0
 28 29  1  0
 28 30  1  0
 30 31  1  0
 26 32  1  0
 32 33  2  0
 32 34  1  0
 17 35  1  0
 35 36  2  0
 36 37  1  0
 29 24  2  0
 34 13  1  0
 37 15  2  0
M  END
$$$$
