
     RDKit          3D

 37 39  0  0  0  0  0  0  0  0999 V2000
  -16.0532  -33.3855  -11.2071 C   0  0  0  0  0  0  0  0  0  0  0  0
  -16.0325  -34.7277  -11.8621 C   0  0  0  0  0  0  0  0  0  0  0  0
  -15.7360  -35.8684  -10.9442 C   0  0  0  0  0  0  0  0  0  0  0  0
  -14.3920  -36.4888  -11.1041 C   0  0  0  0  0  0  0  0  0  0  0  0
  -14.3867  -37.9194  -11.2680 N   0  0  0  0  0  0  0  0  0  0  0  0
  -14.8972  -38.8142  -10.2688 C   0  0  0  0  0  0  0  0  0  0  0  0
  -16.0950  -39.2055  -10.4451 O   0  0  0  0  0  0  0  0  0  0  0  0
  -14.1257  -39.2784   -9.0976 C   0  0  2  0  0  0  0  0  0  0  0  0
  -12.8597  -39.9305   -9.5927 C   0  0  0  0  0  0  0  0  0  0  0  0
  -14.8758  -40.0189   -8.0603 C   0  0  0  0  0  0  0  0  0  0  0  0
  -15.9694  -39.3075   -7.3657 C   0  0  2  0  0  0  0  0  0  0  0  0
  -15.9096  -39.6597   -5.9977 O   0  0  0  0  0  0  0  0  0  0  0  0
  -17.3774  -39.7078   -7.8806 C   0  0  2  0  0  0  0  0  0  0  0  0
  -18.3808  -39.1707   -6.9053 C   0  0  0  0  0  0  0  0  0  0  0  0
  -19.6358  -38.6000   -7.4691 C   0  0  0  0  0  0  0  0  0  0  0  0
  -20.9607  -38.7908   -7.1515 C   0  0  0  0  0  0  0  0  0  0  0  0
  -21.9079  -38.1031   -7.8629 C   0  0  0  0  0  0  0  0  0  0  0  0
  -23.3922  -38.0770   -7.7539 C   0  0  0  0  0  0  0  0  0  0  0  0
  -24.0549  -39.1328   -8.5945 C   0  0  0  0  0  0  0  0  0  0  0  0
  -23.5546  -40.5009   -8.2210 C   0  0  0  0  0  0  0  0  0  0  0  0
  -24.2747  -41.1076   -7.0394 C   0  0  0  0  0  0  0  0  0  0  0  0
  -23.6444  -42.3818   -6.5355 C   0  0  0  0  0  0  0  0  0  0  0  0
  -22.5825  -42.1383   -5.5974 N   0  0  0  0  0  0  0  0  0  0  0  0
  -21.1692  -42.3551   -5.6762 C   0  0  0  0  0  0  0  0  0  0  0  0
  -20.2419  -42.0706   -6.6471 C   0  0  0  0  0  0  0  0  0  0  0  0
  -18.9294  -42.3704   -6.3643 C   0  0  0  0  0  0  0  0  0  0  0  0
  -18.6077  -42.9489   -5.1147 C   0  0  0  0  0  0  0  0  0  0  0  0
  -19.5372  -43.2355   -4.1429 C   0  0  0  0  0  0  0  0  0  0  0  0
  -20.7728  -42.9255   -4.4678 N   0  0  0  0  0  0  0  0  0  0  0  0
  -19.1461  -43.8028   -2.9415 O   0  0  0  0  0  0  0  0  0  0  0  0
  -20.1008  -44.7095   -2.3596 C   0  0  0  0  0  0  0  0  0  0  0  0
  -17.6925  -42.1648   -7.1527 C   0  0  0  0  0  0  0  0  0  0  0  0
  -16.7512  -43.0887   -7.0723 O   0  0  0  0  0  0  0  0  0  0  0  0
  -17.2912  -41.1390   -8.0091 N   0  0  0  0  0  0  0  0  0  0  0  0
  -21.5049  -37.2230   -8.8968 C   0  0  0  0  0  0  0  0  0  0  0  0
  -20.2028  -37.0001   -9.2472 C   0  0  0  0  0  0  0  0  0  0  0  0
  -19.2873  -37.7007   -8.5168 C   0  0  0  0  0  0  0  0  0  0  0  0
  1  2  1  0
  2  3  1  0
  3  4  1  0
  4  5  1  0
  5  6  1  0
  6  7  2  0
  6  8  1  0
  8  9  1  6
  8 10  1  0
 10 11  1  0
 11 12  1  1
 11 13  1  0
 13 14  1  1
 14 15  1  0
 15 16  1  0
 16 17  2  0
 17 18  1  0
 18 19  1  0
 19 20  1  0
 20 21  1  0
 21 22  1  0
 22 23  1  0
 23 24  1  0
 24 25  1  0
 25 26  2  0
 26 27  1  0
 27 28  2  0
 28 29  1  0
 28 30  1  0
 30 31  1  0
 26 32  1  0
 32 33  2  0
 32 34  1  0
 17 35  1  0
 35 36  2  0
 36 37  1  0
 29 24  2  0
 34 13  1  0
 37 15  2  0
M  END
$$$$
