
     RDKit          3D

 37 39  0  0  0  0  0  0  0  0999 V2000
  -13.3038  -35.7945  -14.6584 C   0  0  0  0  0  0  0  0  0  0  0  0
  -12.2003  -36.3124  -13.7951 C   0  0  0  0  0  0  0  0  0  0  0  0
  -12.5810  -36.5580  -12.3716 C   0  0  0  0  0  0  0  0  0  0  0  0
  -13.5226  -37.6888  -12.1447 C   0  0  0  0  0  0  0  0  0  0  0  0
  -13.8997  -37.9139  -10.7732 N   0  0  0  0  0  0  0  0  0  0  0  0
  -14.5132  -39.1333  -10.3300 C   0  0  0  0  0  0  0  0  0  0  0  0
  -15.3839  -39.6251  -11.1166 O   0  0  0  0  0  0  0  0  0  0  0  0
  -14.1911  -39.8101   -9.0571 C   0  0  2  0  0  0  0  0  0  0  0  0
  -12.9792  -40.6798   -9.2765 C   0  0  0  0  0  0  0  0  0  0  0  0
  -15.3192  -40.4371   -8.3352 C   0  0  0  0  0  0  0  0  0  0  0  0
  -16.3412  -39.5432   -7.7513 C   0  0  2  0  0  0  0  0  0  0  0  0
  -16.2118  -39.6043   -6.3447 O   0  0  0  0  0  0  0  0  0  0  0  0
  -17.7919  -39.9724   -8.0968 C   0  0  2  0  0  0  0  0  0  0  0  0
  -18.6981  -39.3502   -7.0779 C   0  0  0  0  0  0  0  0  0  0  0  0
  -20.0007  -38.8167   -7.5650 C   0  0  0  0  0  0  0  0  0  0  0  0
  -21.2895  -38.9705   -7.1093 C   0  0  0  0  0  0  0  0  0  0  0  0
  -22.2996  -38.3347   -7.7815 C   0  0  0  0  0  0  0  0  0  0  0  0
  -23.7669  -38.2879   -7.5353 C   0  0  0  0  0  0  0  0  0  0  0  0
  -24.5068  -39.4027   -8.2211 C   0  0  0  0  0  0  0  0  0  0  0  0
  -23.9739  -40.7402   -7.7867 C   0  0  0  0  0  0  0  0  0  0  0  0
  -24.5791  -41.2436   -6.4971 C   0  0  0  0  0  0  0  0  0  0  0  0
  -23.9043  -42.4781   -5.9532 C   0  0  0  0  0  0  0  0  0  0  0  0
  -22.7582  -42.1683   -5.1425 N   0  0  0  0  0  0  0  0  0  0  0  0
  -21.3588  -42.4022   -5.3366 C   0  0  0  0  0  0  0  0  0  0  0  0
  -20.5275  -42.2045   -6.4106 C   0  0  0  0  0  0  0  0  0  0  0  0
  -19.1943  -42.4911   -6.2297 C   0  0  0  0  0  0  0  0  0  0  0  0
  -18.7559  -42.9695   -4.9732 C   0  0  0  0  0  0  0  0  0  0  0  0
  -19.5891  -43.1691   -3.8979 C   0  0  0  0  0  0  0  0  0  0  0  0
  -20.8498  -42.8764   -4.1287 N   0  0  0  0  0  0  0  0  0  0  0  0
  -19.0862  -43.6407   -2.6967 O   0  0  0  0  0  0  0  0  0  0  0  0
  -19.7362  -44.8201   -2.1882 C   0  0  0  0  0  0  0  0  0  0  0  0
  -18.0377  -42.3600   -7.1454 C   0  0  0  0  0  0  0  0  0  0  0  0
  -17.0933  -43.2819   -7.0795 O   0  0  0  0  0  0  0  0  0  0  0  0
  -17.7189  -41.4100   -8.1163 N   0  0  0  0  0  0  0  0  0  0  0  0
  -21.9961  -37.5443   -8.9169 C   0  0  0  0  0  0  0  0  0  0  0  0
  -20.7329  -37.3611   -9.4055 C   0  0  0  0  0  0  0  0  0  0  0  0
  -19.7526  -38.0077   -8.7105 C   0  0  0  0  0  0  0  0  0  0  0  0
  1  2  1  0
  2  3  1  0
  3  4  1  0
  4  5  1  0
  5  6  1  0
  6  7  2  0
  6  8  1  0
  8  9  1  6
  8 10  1  0
 10 11  1  0
 11 12  1  1
 11 13  1  0
 13 14  1  1
 14 15  1  0
 15 16  1  0
 16 17  2  0
 17 18  1  0
 18 19  1  0
 19 20  1  0
 20 21  1  0
 21 22  1  0
 22 23  1  0
 23 24  1  0
 24 25  1  0
 25 26  2  0
 26 27  1  0
 27 28  2  0
 28 29  1  0
 28 30  1  0
 30 31  1  0
 26 32  1  0
 32 33  2  0
 32 34  1  0
 17 35  1  0
 35 36  2  0
 36 37  1  0
 29 24  2  0
 34 13  1  0
 37 15  2  0
M  END
$$$$
