
     RDKit          3D

 37 39  0  0  0  0  0  0  0  0999 V2000
  -18.3737  -44.2925  -12.1350 C   0  0  0  0  0  0  0  0  0  0  0  0
  -17.5788  -43.0491  -11.9042 C   0  0  0  0  0  0  0  0  0  0  0  0
  -17.8896  -41.9245  -12.8371 C   0  0  0  0  0  0  0  0  0  0  0  0
  -17.7379  -40.5572  -12.2677 C   0  0  0  0  0  0  0  0  0  0  0  0
  -16.3929  -40.1773  -11.9211 N   0  0  0  0  0  0  0  0  0  0  0  0
  -15.8708  -40.3080  -10.5906 C   0  0  0  0  0  0  0  0  0  0  0  0
  -15.5690  -41.4919  -10.2351 O   0  0  0  0  0  0  0  0  0  0  0  0
  -15.6783  -39.1777   -9.6593 C   0  0  2  0  0  0  0  0  0  0  0  0
  -14.6845  -38.2235  -10.2716 C   0  0  0  0  0  0  0  0  0  0  0  0
  -15.4601  -39.5197   -8.2372 C   0  0  0  0  0  0  0  0  0  0  0  0
  -16.5169  -39.1487   -7.2728 C   0  0  2  0  0  0  0  0  0  0  0  0
  -16.1749  -39.7140   -6.0227 O   0  0  0  0  0  0  0  0  0  0  0  0
  -17.9136  -39.7032   -7.6595 C   0  0  2  0  0  0  0  0  0  0  0  0
  -18.5823  -40.1542   -6.3962 C   0  0  0  0  0  0  0  0  0  0  0  0
  -20.0393  -39.8750   -6.2635 C   0  0  0  0  0  0  0  0  0  0  0  0
  -21.1009  -40.6671   -5.8919 C   0  0  0  0  0  0  0  0  0  0  0  0
  -22.3515  -40.1092   -5.8591 C   0  0  0  0  0  0  0  0  0  0  0  0
  -23.6744  -40.6831   -5.4901 C   0  0  0  0  0  0  0  0  0  0  0  0
  -24.3832  -41.3077   -6.6597 C   0  0  0  0  0  0  0  0  0  0  0  0
  -23.5343  -42.3806   -7.2841 C   0  0  0  0  0  0  0  0  0  0  0  0
  -23.6549  -43.7228   -6.6009 C   0  0  0  0  0  0  0  0  0  0  0  0
  -22.6581  -44.7432   -7.0909 C   0  0  0  0  0  0  0  0  0  0  0  0
  -21.3966  -44.6544   -6.4071 N   0  0  0  0  0  0  0  0  0  0  0  0
  -20.0919  -44.2697   -6.8547 C   0  0  0  0  0  0  0  0  0  0  0  0
  -19.6457  -43.2113   -7.6058 C   0  0  0  0  0  0  0  0  0  0  0  0
  -18.2879  -43.1144   -7.8041 C   0  0  0  0  0  0  0  0  0  0  0  0
  -17.4368  -44.0924   -7.2395 C   0  0  0  0  0  0  0  0  0  0  0  0
  -17.8841  -45.1537   -6.4884 C   0  0  0  0  0  0  0  0  0  0  0  0
  -19.1887  -45.1931   -6.3307 N   0  0  0  0  0  0  0  0  0  0  0  0
  -16.9889  -46.0730   -5.9671 O   0  0  0  0  0  0  0  0  0  0  0  0
  -17.0337  -47.3762   -6.5768 C   0  0  0  0  0  0  0  0  0  0  0  0
  -17.4784  -42.0994   -8.5169 C   0  0  0  0  0  0  0  0  0  0  0  0
  -16.4151  -42.5164   -9.1813 O   0  0  0  0  0  0  0  0  0  0  0  0
  -17.6116  -40.7157   -8.6372 N   0  0  0  0  0  0  0  0  0  0  0  0
  -22.5194  -38.7462   -6.2055 C   0  0  0  0  0  0  0  0  0  0  0  0
  -21.4964  -37.9205   -6.5792 C   0  0  0  0  0  0  0  0  0  0  0  0
  -20.2656  -38.5096   -6.5992 C   0  0  0  0  0  0  0  0  0  0  0  0
  1  2  1  0
  2  3  1  0
  3  4  1  0
  4  5  1  0
  5  6  1  0
  6  7  2  0
  6  8  1  0
  8  9  1  6
  8 10  1  0
 10 11  1  0
 11 12  1  1
 11 13  1  0
 13 14  1  1
 14 15  1  0
 15 16  1  0
 16 17  2  0
 17 18  1  0
 18 19  1  0
 19 20  1  0
 20 21  1  0
 21 22  1  0
 22 23  1  0
 23 24  1  0
 24 25  1  0
 25 26  2  0
 26 27  1  0
 27 28  2  0
 28 29  1  0
 28 30  1  0
 30 31  1  0
 26 32  1  0
 32 33  2  0
 32 34  1  0
 17 35  1  0
 35 36  2  0
 36 37  1  0
 29 24  2  0
 34 13  1  0
 37 15  2  0
M  END
$$$$
