
     RDKit          3D

 37 39  0  0  0  0  0  0  0  0999 V2000
  -12.1409  -34.3188  -11.2441 C   0  0  0  0  0  0  0  0  0  0  0  0
  -12.0143  -35.7879  -11.0050 C   0  0  0  0  0  0  0  0  0  0  0  0
  -12.2873  -36.2200   -9.6013 C   0  0  0  0  0  0  0  0  0  0  0  0
  -12.5365  -37.6760   -9.4146 C   0  0  0  0  0  0  0  0  0  0  0  0
  -13.1477  -38.3472  -10.5325 N   0  0  0  0  0  0  0  0  0  0  0  0
  -14.5689  -38.3857  -10.7285 C   0  0  0  0  0  0  0  0  0  0  0  0
  -15.0247  -37.5688  -11.5910 O   0  0  0  0  0  0  0  0  0  0  0  0
  -15.4829  -39.2922  -10.0039 C   0  0  2  0  0  0  0  0  0  0  0  0
  -15.8765  -40.4111  -10.9346 C   0  0  0  0  0  0  0  0  0  0  0  0
  -16.5840  -38.6582   -9.2473 C   0  0  0  0  0  0  0  0  0  0  0  0
  -17.0155  -39.3070   -7.9913 C   0  0  2  0  0  0  0  0  0  0  0  0
  -16.1269  -40.3760   -7.7332 O   0  0  0  0  0  0  0  0  0  0  0  0
  -18.4431  -39.9089   -8.0782 C   0  0  2  0  0  0  0  0  0  0  0  0
  -18.8132  -40.3847   -6.7060 C   0  0  0  0  0  0  0  0  0  0  0  0
  -20.2175  -40.1562   -6.2651 C   0  0  0  0  0  0  0  0  0  0  0  0
  -21.1490  -40.9852   -5.6841 C   0  0  0  0  0  0  0  0  0  0  0  0
  -22.3821  -40.4709   -5.3822 C   0  0  0  0  0  0  0  0  0  0  0  0
  -23.5768  -41.0909   -4.7463 C   0  0  0  0  0  0  0  0  0  0  0  0
  -24.4962  -41.7378   -5.7447 C   0  0  0  0  0  0  0  0  0  0  0  0
  -23.7636  -42.7797   -6.5443 C   0  0  0  0  0  0  0  0  0  0  0  0
  -23.6915  -44.1263   -5.8629 C   0  0  0  0  0  0  0  0  0  0  0  0
  -22.7877  -45.1109   -6.5620 C   0  0  0  0  0  0  0  0  0  0  0  0
  -21.4136  -44.9795   -6.1603 N   0  0  0  0  0  0  0  0  0  0  0  0
  -20.2471  -44.5493   -6.8707 C   0  0  0  0  0  0  0  0  0  0  0  0
  -20.0060  -43.4748   -7.6899 C   0  0  0  0  0  0  0  0  0  0  0  0
  -18.7251  -43.3307   -8.1705 C   0  0  0  0  0  0  0  0  0  0  0  0
  -17.7414  -44.2796   -7.8077 C   0  0  0  0  0  0  0  0  0  0  0  0
  -17.9835  -45.3569   -6.9884 C   0  0  0  0  0  0  0  0  0  0  0  0
  -19.2229  -45.4416   -6.5582 N   0  0  0  0  0  0  0  0  0  0  0  0
  -16.9678  -46.2455   -6.6767 O   0  0  0  0  0  0  0  0  0  0  0  0
  -17.3466  -47.6339   -6.7056 C   0  0  0  0  0  0  0  0  0  0  0  0
  -18.1196  -42.2872   -9.0296 C   0  0  0  0  0  0  0  0  0  0  0  0
  -17.2080  -42.6662   -9.9079 O   0  0  0  0  0  0  0  0  0  0  0  0
  -18.3215  -40.9088   -9.1067 N   0  0  0  0  0  0  0  0  0  0  0  0
  -22.6653  -39.1141   -5.6730 C   0  0  0  0  0  0  0  0  0  0  0  0
  -21.7730  -38.2529   -6.2477 C   0  0  0  0  0  0  0  0  0  0  0  0
  -20.5554  -38.7990   -6.5331 C   0  0  0  0  0  0  0  0  0  0  0  0
  1  2  1  0
  2  3  1  0
  3  4  1  0
  4  5  1  0
  5  6  1  0
  6  7  2  0
  6  8  1  0
  8  9  1  6
  8 10  1  0
 10 11  1  0
 11 12  1  6
 11 13  1  0
 13 14  1  1
 14 15  1  0
 15 16  1  0
 16 17  2  0
 17 18  1  0
 18 19  1  0
 19 20  1  0
 20 21  1  0
 21 22  1  0
 22 23  1  0
 23 24  1  0
 24 25  1  0
 25 26  2  0
 26 27  1  0
 27 28  2  0
 28 29  1  0
 28 30  1  0
 30 31  1  0
 26 32  1  0
 32 33  2  0
 32 34  1  0
 17 35  1  0
 35 36  2  0
 36 37  1  0
 29 24  2  0
 34 13  1  0
 37 15  2  0
M  END
$$$$
