
     RDKit          3D

 37 39  0  0  0  0  0  0  0  0999 V2000
  -11.2932  -35.1357  -11.7331 C   0  0  0  0  0  0  0  0  0  0  0  0
  -12.7748  -35.3247  -11.7135 C   0  0  0  0  0  0  0  0  0  0  0  0
  -13.2864  -36.1493  -10.5778 C   0  0  0  0  0  0  0  0  0  0  0  0
  -12.9567  -37.6000  -10.6379 C   0  0  0  0  0  0  0  0  0  0  0  0
  -14.0382  -38.4641  -11.0344 N   0  0  0  0  0  0  0  0  0  0  0  0
  -14.9181  -39.0865  -10.0866 C   0  0  0  0  0  0  0  0  0  0  0  0
  -16.0293  -38.4951   -9.9012 O   0  0  0  0  0  0  0  0  0  0  0  0
  -14.6020  -40.3277   -9.3507 C   0  0  2  0  0  0  0  0  0  0  0  0
  -14.8992  -41.5005  -10.2504 C   0  0  0  0  0  0  0  0  0  0  0  0
  -15.1109  -40.4256   -7.9656 C   0  0  0  0  0  0  0  0  0  0  0  0
  -16.1462  -39.4580   -7.5455 C   0  0  2  0  0  0  0  0  0  0  0  0
  -16.2093  -39.4831   -6.1332 O   0  0  0  0  0  0  0  0  0  0  0  0
  -17.5609  -39.8151   -8.0736 C   0  0  2  0  0  0  0  0  0  0  0  0
  -18.5509  -39.3685   -7.0407 C   0  0  0  0  0  0  0  0  0  0  0  0
  -19.8146  -38.7536   -7.5342 C   0  0  0  0  0  0  0  0  0  0  0  0
  -21.1345  -38.9750   -7.2159 C   0  0  0  0  0  0  0  0  0  0  0  0
  -22.0928  -38.2298   -7.8505 C   0  0  0  0  0  0  0  0  0  0  0  0
  -23.5754  -38.2172   -7.7186 C   0  0  0  0  0  0  0  0  0  0  0  0
  -24.2488  -39.1967   -8.6393 C   0  0  0  0  0  0  0  0  0  0  0  0
  -23.7413  -40.5910   -8.3947 C   0  0  0  0  0  0  0  0  0  0  0  0
  -24.4437  -41.3011   -7.2610 C   0  0  0  0  0  0  0  0  0  0  0  0
  -23.8045  -42.6131   -6.8801 C   0  0  0  0  0  0  0  0  0  0  0  0
  -22.7295  -42.4503   -5.9394 N   0  0  0  0  0  0  0  0  0  0  0  0
  -21.3173  -42.6557   -6.0570 C   0  0  0  0  0  0  0  0  0  0  0  0
  -20.4043  -42.2846   -7.0122 C   0  0  0  0  0  0  0  0  0  0  0  0
  -19.0876  -42.6047   -6.7755 C   0  0  0  0  0  0  0  0  0  0  0  0
  -18.7472  -43.2901   -5.5864 C   0  0  0  0  0  0  0  0  0  0  0  0
  -19.6622  -43.6634   -4.6304 C   0  0  0  0  0  0  0  0  0  0  0  0
  -20.9027  -43.3292   -4.9092 N   0  0  0  0  0  0  0  0  0  0  0  0
  -19.2532  -44.3331   -3.4892 O   0  0  0  0  0  0  0  0  0  0  0  0
  -20.3118  -44.6820   -2.5783 C   0  0  0  0  0  0  0  0  0  0  0  0
  -17.8624  -42.3275   -7.5602 C   0  0  0  0  0  0  0  0  0  0  0  0
  -16.9188  -43.2524   -7.5748 O   0  0  0  0  0  0  0  0  0  0  0  0
  -17.4747  -41.2293   -8.3287 N   0  0  0  0  0  0  0  0  0  0  0  0
  -21.7058  -37.2611   -8.8086 C   0  0  0  0  0  0  0  0  0  0  0  0
  -20.4091  -37.0050   -9.1564 C   0  0  0  0  0  0  0  0  0  0  0  0
  -19.4823  -37.7647   -8.5036 C   0  0  0  0  0  0  0  0  0  0  0  0
  1  2  1  0
  2  3  1  0
  3  4  1  0
  4  5  1  0
  5  6  1  0
  6  7  2  0
  6  8  1  0
  8  9  1  6
  8 10  1  0
 10 11  1  0
 11 12  1  1
 11 13  1  0
 13 14  1  1
 14 15  1  0
 15 16  1  0
 16 17  2  0
 17 18  1  0
 18 19  1  0
 19 20  1  0
 20 21  1  0
 21 22  1  0
 22 23  1  0
 23 24  1  0
 24 25  1  0
 25 26  2  0
 26 27  1  0
 27 28  2  0
 28 29  1  0
 28 30  1  0
 30 31  1  0
 26 32  1  0
 32 33  2  0
 32 34  1  0
 17 35  1  0
 35 36  2  0
 36 37  1  0
 29 24  2  0
 34 13  1  0
 37 15  2  0
M  END
$$$$
