
     RDKit          3D

 37 39  0  0  0  0  0  0  0  0999 V2000
  -18.0280  -34.6934  -12.0391 C   0  0  0  0  0  0  0  0  0  0  0  0
  -16.5910  -35.0869  -11.9335 C   0  0  0  0  0  0  0  0  0  0  0  0
  -16.3550  -36.4562  -11.3849 C   0  0  0  0  0  0  0  0  0  0  0  0
  -14.9287  -36.8730  -11.2900 C   0  0  0  0  0  0  0  0  0  0  0  0
  -14.5822  -37.6290  -10.1145 N   0  0  0  0  0  0  0  0  0  0  0  0
  -14.9497  -39.0059   -9.9444 C   0  0  0  0  0  0  0  0  0  0  0  0
  -15.9117  -39.4095  -10.6728 O   0  0  0  0  0  0  0  0  0  0  0  0
  -14.2884  -39.9316   -9.0021 C   0  0  2  0  0  0  0  0  0  0  0  0
  -12.9316  -40.2834   -9.5575 C   0  0  0  0  0  0  0  0  0  0  0  0
  -15.1002  -41.0629   -8.5038 C   0  0  0  0  0  0  0  0  0  0  0  0
  -16.0223  -40.8019   -7.3786 C   0  0  2  0  0  0  0  0  0  0  0  0
  -15.7793  -41.7816   -6.3885 O   0  0  0  0  0  0  0  0  0  0  0  0
  -17.5170  -40.9167   -7.7794 C   0  0  2  0  0  0  0  0  0  0  0  0
  -18.3111  -41.0495   -6.5152 C   0  0  0  0  0  0  0  0  0  0  0  0
  -19.6082  -40.3203   -6.4497 C   0  0  0  0  0  0  0  0  0  0  0  0
  -20.8700  -40.7138   -6.0682 C   0  0  0  0  0  0  0  0  0  0  0  0
  -21.8822  -39.7919   -6.1119 C   0  0  0  0  0  0  0  0  0  0  0  0
  -23.3235  -39.8971   -5.7551 C   0  0  0  0  0  0  0  0  0  0  0  0
  -24.1763  -40.3462   -6.9091 C   0  0  0  0  0  0  0  0  0  0  0  0
  -23.6990  -41.6704   -7.4386 C   0  0  0  0  0  0  0  0  0  0  0  0
  -24.2448  -42.8581   -6.6809 C   0  0  0  0  0  0  0  0  0  0  0  0
  -23.6125  -44.1697   -7.0744 C   0  0  0  0  0  0  0  0  0  0  0  0
  -22.3967  -44.4339   -6.3540 N   0  0  0  0  0  0  0  0  0  0  0  0
  -21.0311  -44.5076   -6.7786 C   0  0  0  0  0  0  0  0  0  0  0  0
  -20.2644  -43.6951   -7.5758 C   0  0  0  0  0  0  0  0  0  0  0  0
  -18.9423  -44.0413   -7.7326 C   0  0  0  0  0  0  0  0  0  0  0  0
  -18.4496  -45.1959   -7.0816 C   0  0  0  0  0  0  0  0  0  0  0  0
  -19.2183  -46.0108   -6.2843 C   0  0  0  0  0  0  0  0  0  0  0  0
  -20.4712  -45.6295   -6.1696 N   0  0  0  0  0  0  0  0  0  0  0  0
  -18.6648  -47.1264   -5.6784 O   0  0  0  0  0  0  0  0  0  0  0  0
  -19.5252  -48.2794   -5.6288 C   0  0  0  0  0  0  0  0  0  0  0  0
  -17.8449  -43.3809   -8.4765 C   0  0  0  0  0  0  0  0  0  0  0  0
  -16.9574  -44.1535   -9.0778 O   0  0  0  0  0  0  0  0  0  0  0  0
  -17.5348  -42.0365   -8.6838 N   0  0  0  0  0  0  0  0  0  0  0  0
  -21.6085  -38.4715   -6.5448 C   0  0  0  0  0  0  0  0  0  0  0  0
  -20.3727  -38.0343   -6.9317 C   0  0  0  0  0  0  0  0  0  0  0  0
  -19.3893  -38.9787   -6.8740 C   0  0  0  0  0  0  0  0  0  0  0  0
  1  2  1  0
  2  3  1  0
  3  4  1  0
  4  5  1  0
  5  6  1  0
  6  7  2  0
  6  8  1  0
  8  9  1  6
  8 10  1  0
 10 11  1  0
 11 12  1  1
 11 13  1  0
 13 14  1  1
 14 15  1  0
 15 16  1  0
 16 17  2  0
 17 18  1  0
 18 19  1  0
 19 20  1  0
 20 21  1  0
 21 22  1  0
 22 23  1  0
 23 24  1  0
 24 25  1  0
 25 26  2  0
 26 27  1  0
 27 28  2  0
 28 29  1  0
 28 30  1  0
 30 31  1  0
 26 32  1  0
 32 33  2  0
 32 34  1  0
 17 35  1  0
 35 36  2  0
 36 37  1  0
 29 24  2  0
 34 13  1  0
 37 15  2  0
M  END
$$$$
