
     RDKit          3D

 37 39  0  0  0  0  0  0  0  0999 V2000
  -14.4105  -34.0948  -11.9158 C   0  0  0  0  0  0  0  0  0  0  0  0
  -13.2445  -34.5671  -12.7211 C   0  0  0  0  0  0  0  0  0  0  0  0
  -12.7009  -35.8981  -12.3157 C   0  0  0  0  0  0  0  0  0  0  0  0
  -13.7105  -36.9788  -12.1440 C   0  0  0  0  0  0  0  0  0  0  0  0
  -13.1837  -38.2611  -11.7542 N   0  0  0  0  0  0  0  0  0  0  0  0
  -14.0260  -39.3697  -11.4058 C   0  0  0  0  0  0  0  0  0  0  0  0
  -14.6550  -39.9044  -12.3740 O   0  0  0  0  0  0  0  0  0  0  0  0
  -14.1862  -39.8918  -10.0333 C   0  0  2  0  0  0  0  0  0  0  0  0
  -13.0011  -40.7693   -9.7191 C   0  0  0  0  0  0  0  0  0  0  0  0
  -15.5135  -40.4422   -9.6837 C   0  0  0  0  0  0  0  0  0  0  0  0
  -16.2270  -39.8368   -8.5396 C   0  0  2  0  0  0  0  0  0  0  0  0
  -15.6254  -40.3194   -7.3545 O   0  0  0  0  0  0  0  0  0  0  0  0
  -17.7275  -40.2285   -8.4838 C   0  0  2  0  0  0  0  0  0  0  0  0
  -18.1130  -40.3219   -7.0384 C   0  0  0  0  0  0  0  0  0  0  0  0
  -19.4546  -39.7975   -6.6594 C   0  0  0  0  0  0  0  0  0  0  0  0
  -20.4730  -40.3287   -5.9023 C   0  0  0  0  0  0  0  0  0  0  0  0
  -21.6098  -39.5855   -5.7243 C   0  0  0  0  0  0  0  0  0  0  0  0
  -22.8572  -39.8646   -4.9614 C   0  0  0  0  0  0  0  0  0  0  0  0
  -23.8930  -40.5801   -5.7833 C   0  0  0  0  0  0  0  0  0  0  0  0
  -23.3433  -41.8713   -6.3238 C   0  0  0  0  0  0  0  0  0  0  0  0
  -23.4385  -43.0242   -5.3519 C   0  0  0  0  0  0  0  0  0  0  0  0
  -22.7078  -44.2624   -5.8081 C   0  0  0  0  0  0  0  0  0  0  0  0
  -21.3157  -44.2448   -5.4494 N   0  0  0  0  0  0  0  0  0  0  0  0
  -20.1256  -44.1612   -6.2414 C   0  0  0  0  0  0  0  0  0  0  0  0
  -19.7640  -43.3472   -7.2856 C   0  0  0  0  0  0  0  0  0  0  0  0
  -18.4932  -43.5037   -7.7885 C   0  0  0  0  0  0  0  0  0  0  0  0
  -17.6412  -44.4784   -7.2194 C   0  0  0  0  0  0  0  0  0  0  0  0
  -18.0044  -45.2950   -6.1745 C   0  0  0  0  0  0  0  0  0  0  0  0
  -19.2275  -45.0988   -5.7343 N   0  0  0  0  0  0  0  0  0  0  0  0
  -17.1142  -46.2279   -5.6690 O   0  0  0  0  0  0  0  0  0  0  0  0
  -17.4921  -47.6013   -5.8763 C   0  0  0  0  0  0  0  0  0  0  0  0
  -17.7767  -42.7816   -8.8649 C   0  0  0  0  0  0  0  0  0  0  0  0
  -16.9590  -43.4783   -9.6344 O   0  0  0  0  0  0  0  0  0  0  0  0
  -17.7844  -41.4422   -9.2558 N   0  0  0  0  0  0  0  0  0  0  0  0
  -21.7084  -38.3035   -6.3181 C   0  0  0  0  0  0  0  0  0  0  0  0
  -20.7241  -37.7342   -7.0764 C   0  0  0  0  0  0  0  0  0  0  0  0
  -19.6066  -38.5021   -7.2310 C   0  0  0  0  0  0  0  0  0  0  0  0
  1  2  1  0
  2  3  1  0
  3  4  1  0
  4  5  1  0
  5  6  1  0
  6  7  2  0
  6  8  1  0
  8  9  1  6
  8 10  1  0
 10 11  1  0
 11 12  1  1
 11 13  1  0
 13 14  1  1
 14 15  1  0
 15 16  1  0
 16 17  2  0
 17 18  1  0
 18 19  1  0
 19 20  1  0
 20 21  1  0
 21 22  1  0
 22 23  1  0
 23 24  1  0
 24 25  1  0
 25 26  2  0
 26 27  1  0
 27 28  2  0
 28 29  1  0
 28 30  1  0
 30 31  1  0
 26 32  1  0
 32 33  2  0
 32 34  1  0
 17 35  1  0
 35 36  2  0
 36 37  1  0
 29 24  2  0
 34 13  1  0
 37 15  2  0
M  END
$$$$
