
     RDKit          3D

 37 39  0  0  0  0  0  0  0  0999 V2000
  -12.0772  -33.4931  -11.2581 C   0  0  0  0  0  0  0  0  0  0  0  0
  -12.9260  -34.5073  -11.9523 C   0  0  0  0  0  0  0  0  0  0  0  0
  -12.7411  -35.9111  -11.4760 C   0  0  0  0  0  0  0  0  0  0  0  0
  -13.4995  -36.2778  -10.2483 C   0  0  0  0  0  0  0  0  0  0  0  0
  -14.7394  -36.9749  -10.4724 N   0  0  0  0  0  0  0  0  0  0  0  0
  -14.8529  -38.4022  -10.3738 C   0  0  0  0  0  0  0  0  0  0  0  0
  -15.5454  -38.9602  -11.2838 O   0  0  0  0  0  0  0  0  0  0  0  0
  -14.2285  -39.2134   -9.3089 C   0  0  2  0  0  0  0  0  0  0  0  0
  -12.8682  -39.6550   -9.7860 C   0  0  0  0  0  0  0  0  0  0  0  0
  -15.0718  -40.2592   -8.6908 C   0  0  0  0  0  0  0  0  0  0  0  0
  -15.9908  -39.8482   -7.6087 C   0  0  2  0  0  0  0  0  0  0  0  0
  -15.6188  -40.5510   -6.4396 O   0  0  0  0  0  0  0  0  0  0  0  0
  -17.4727  -40.2017   -7.9036 C   0  0  2  0  0  0  0  0  0  0  0  0
  -18.1632  -40.3750   -6.5846 C   0  0  0  0  0  0  0  0  0  0  0  0
  -19.5482  -39.8393   -6.4690 C   0  0  0  0  0  0  0  0  0  0  0  0
  -20.7131  -40.3890   -5.9862 C   0  0  0  0  0  0  0  0  0  0  0  0
  -21.8518  -39.6280   -6.0077 C   0  0  0  0  0  0  0  0  0  0  0  0
  -23.2383  -39.9204   -5.5516 C   0  0  0  0  0  0  0  0  0  0  0  0
  -24.0807  -40.5547   -6.6233 C   0  0  0  0  0  0  0  0  0  0  0  0
  -23.4437  -41.8239   -7.1181 C   0  0  0  0  0  0  0  0  0  0  0  0
  -23.7620  -43.0324   -6.2690 C   0  0  0  0  0  0  0  0  0  0  0  0
  -22.9659  -44.2589   -6.6392 C   0  0  0  0  0  0  0  0  0  0  0  0
  -21.6844  -44.3016   -5.9889 N   0  0  0  0  0  0  0  0  0  0  0  0
  -20.3501  -44.2008   -6.4987 C   0  0  0  0  0  0  0  0  0  0  0  0
  -19.7604  -43.3331   -7.3836 C   0  0  0  0  0  0  0  0  0  0  0  0
  -18.4130  -43.4922   -7.6105 C   0  0  0  0  0  0  0  0  0  0  0  0
  -17.7172  -44.5234   -6.9380 C   0  0  0  0  0  0  0  0  0  0  0  0
  -18.3085  -45.3937   -6.0529 C   0  0  0  0  0  0  0  0  0  0  0  0
  -19.5953  -45.1923   -5.8742 N   0  0  0  0  0  0  0  0  0  0  0  0
  -17.5610  -46.3802   -5.4313 O   0  0  0  0  0  0  0  0  0  0  0  0
  -17.9731  -47.7281   -5.7235 C   0  0  0  0  0  0  0  0  0  0  0  0
  -17.4711  -42.7237   -8.4566 C   0  0  0  0  0  0  0  0  0  0  0  0
  -16.5152  -43.3927   -9.0770 O   0  0  0  0  0  0  0  0  0  0  0  0
  -17.3767  -41.3627   -8.7493 N   0  0  0  0  0  0  0  0  0  0  0  0
  -21.8029  -38.3091   -6.5215 C   0  0  0  0  0  0  0  0  0  0  0  0
  -20.6704  -37.7203   -7.0102 C   0  0  0  0  0  0  0  0  0  0  0  0
  -19.5560  -38.5069   -6.9717 C   0  0  0  0  0  0  0  0  0  0  0  0
  1  2  1  0
  2  3  1  0
  3  4  1  0
  4  5  1  0
  5  6  1  0
  6  7  2  0
  6  8  1  0
  8  9  1  6
  8 10  1  0
 10 11  1  0
 11 12  1  1
 11 13  1  0
 13 14  1  1
 14 15  1  0
 15 16  1  0
 16 17  2  0
 17 18  1  0
 18 19  1  0
 19 20  1  0
 20 21  1  0
 21 22  1  0
 22 23  1  0
 23 24  1  0
 24 25  1  0
 25 26  2  0
 26 27  1  0
 27 28  2  0
 28 29  1  0
 28 30  1  0
 30 31  1  0
 26 32  1  0
 32 33  2  0
 32 34  1  0
 17 35  1  0
 35 36  2  0
 36 37  1  0
 29 24  2  0
 34 13  1  0
 37 15  2  0
M  END
$$$$
