
     RDKit          3D

 37 39  0  0  0  0  0  0  0  0999 V2000
  -14.8667  -44.6593  -11.2738 C   0  0  0  0  0  0  0  0  0  0  0  0
  -14.5149  -43.3338  -11.8659 C   0  0  0  0  0  0  0  0  0  0  0  0
  -14.0090  -42.3248  -10.8872 C   0  0  0  0  0  0  0  0  0  0  0  0
  -13.5426  -41.0385  -11.4742 C   0  0  0  0  0  0  0  0  0  0  0  0
  -14.4863  -39.9525  -11.4130 N   0  0  0  0  0  0  0  0  0  0  0  0
  -14.6790  -39.1610  -10.2313 C   0  0  0  0  0  0  0  0  0  0  0  0
  -13.8770  -39.4034   -9.2736 O   0  0  0  0  0  0  0  0  0  0  0  0
  -15.7216  -38.1247  -10.0868 C   0  0  2  0  0  0  0  0  0  0  0  0
  -15.3492  -36.9533  -10.9600 C   0  0  0  0  0  0  0  0  0  0  0  0
  -16.1464  -37.7988   -8.7083 C   0  0  0  0  0  0  0  0  0  0  0  0
  -16.4373  -38.9248   -7.7962 C   0  0  2  0  0  0  0  0  0  0  0  0
  -15.5955  -40.0008   -8.1605 O   0  0  0  0  0  0  0  0  0  0  0  0
  -17.9002  -39.4310   -7.9038 C   0  0  2  0  0  0  0  0  0  0  0  0
  -18.2982  -39.9424   -6.5523 C   0  0  0  0  0  0  0  0  0  0  0  0
  -19.6847  -39.6453   -6.0964 C   0  0  0  0  0  0  0  0  0  0  0  0
  -20.6661  -40.4386   -5.5487 C   0  0  0  0  0  0  0  0  0  0  0  0
  -21.8640  -39.8613   -5.2197 C   0  0  0  0  0  0  0  0  0  0  0  0
  -23.0947  -40.4319   -4.6071 C   0  0  0  0  0  0  0  0  0  0  0  0
  -24.0543  -40.9750   -5.6293 C   0  0  0  0  0  0  0  0  0  0  0  0
  -23.3899  -42.0249   -6.4765 C   0  0  0  0  0  0  0  0  0  0  0  0
  -23.4024  -43.4020   -5.8551 C   0  0  0  0  0  0  0  0  0  0  0  0
  -22.5634  -44.4100   -6.6001 C   0  0  0  0  0  0  0  0  0  0  0  0
  -21.1832  -44.3835   -6.1983 N   0  0  0  0  0  0  0  0  0  0  0  0
  -19.9926  -43.9968   -6.8937 C   0  0  0  0  0  0  0  0  0  0  0  0
  -19.6850  -42.9048   -7.6660 C   0  0  0  0  0  0  0  0  0  0  0  0
  -18.3982  -42.8209   -8.1447 C   0  0  0  0  0  0  0  0  0  0  0  0
  -17.4759  -43.8449   -7.8277 C   0  0  0  0  0  0  0  0  0  0  0  0
  -17.7848  -44.9398   -7.0554 C   0  0  0  0  0  0  0  0  0  0  0  0
  -19.0266  -44.9649   -6.6245 N   0  0  0  0  0  0  0  0  0  0  0  0
  -16.8270  -45.9035   -6.7868 O   0  0  0  0  0  0  0  0  0  0  0  0
  -17.3136  -47.2583   -6.7852 C   0  0  0  0  0  0  0  0  0  0  0  0
  -17.7288  -41.7809   -8.9597 C   0  0  0  0  0  0  0  0  0  0  0  0
  -16.8439  -42.1777   -9.8572 O   0  0  0  0  0  0  0  0  0  0  0  0
  -17.8432  -40.3904   -8.9756 N   0  0  0  0  0  0  0  0  0  0  0  0
  -22.0611  -38.4777   -5.4498 C   0  0  0  0  0  0  0  0  0  0  0  0
  -21.1167  -37.6502   -5.9896 C   0  0  0  0  0  0  0  0  0  0  0  0
  -19.9364  -38.2590   -6.3034 C   0  0  0  0  0  0  0  0  0  0  0  0
  1  2  1  0
  2  3  1  0
  3  4  1  0
  4  5  1  0
  5  6  1  0
  6  7  2  0
  6  8  1  0
  8  9  1  1
  8 10  1  0
 10 11  1  0
 11 12  1  6
 11 13  1  0
 13 14  1  1
 14 15  1  0
 15 16  1  0
 16 17  2  0
 17 18  1  0
 18 19  1  0
 19 20  1  0
 20 21  1  0
 21 22  1  0
 22 23  1  0
 23 24  1  0
 24 25  1  0
 25 26  2  0
 26 27  1  0
 27 28  2  0
 28 29  1  0
 28 30  1  0
 30 31  1  0
 26 32  1  0
 32 33  2  0
 32 34  1  0
 17 35  1  0
 35 36  2  0
 36 37  1  0
 29 24  2  0
 34 13  1  0
 37 15  2  0
M  END
$$$$
