
     RDKit          3D

 37 39  0  0  0  0  0  0  0  0999 V2000
  -13.7360  -33.1652  -11.5457 C   0  0  0  0  0  0  0  0  0  0  0  0
  -14.2925  -34.0532  -12.6101 C   0  0  0  0  0  0  0  0  0  0  0  0
  -14.3280  -35.5049  -12.2597 C   0  0  0  0  0  0  0  0  0  0  0  0
  -15.6666  -36.0447  -11.8940 C   0  0  0  0  0  0  0  0  0  0  0  0
  -15.7001  -36.8668  -10.7122 N   0  0  0  0  0  0  0  0  0  0  0  0
  -15.5616  -38.2945  -10.7591 C   0  0  0  0  0  0  0  0  0  0  0  0
  -16.1969  -38.8755  -11.6960 O   0  0  0  0  0  0  0  0  0  0  0  0
  -14.7498  -39.0817   -9.8087 C   0  0  2  0  0  0  0  0  0  0  0  0
  -13.4535  -39.4501  -10.4848 C   0  0  0  0  0  0  0  0  0  0  0  0
  -15.4420  -40.1740   -9.0911 C   0  0  0  0  0  0  0  0  0  0  0  0
  -16.2802  -39.8083   -7.9300 C   0  0  2  0  0  0  0  0  0  0  0  0
  -15.7873  -40.5109   -6.8064 O   0  0  0  0  0  0  0  0  0  0  0  0
  -17.7687  -40.2108   -8.1050 C   0  0  2  0  0  0  0  0  0  0  0  0
  -18.3567  -40.3601   -6.7345 C   0  0  0  0  0  0  0  0  0  0  0  0
  -19.7447  -39.8584   -6.5340 C   0  0  0  0  0  0  0  0  0  0  0  0
  -20.8553  -40.4234   -5.9510 C   0  0  0  0  0  0  0  0  0  0  0  0
  -22.0142  -39.6942   -5.9120 C   0  0  0  0  0  0  0  0  0  0  0  0
  -23.3549  -40.0089   -5.3471 C   0  0  0  0  0  0  0  0  0  0  0  0
  -24.2538  -40.6996   -6.3348 C   0  0  0  0  0  0  0  0  0  0  0  0
  -23.6176  -41.9665   -6.8366 C   0  0  0  0  0  0  0  0  0  0  0  0
  -23.8384  -43.1553   -5.9306 C   0  0  0  0  0  0  0  0  0  0  0  0
  -23.0358  -44.3712   -6.3210 C   0  0  0  0  0  0  0  0  0  0  0  0
  -21.7100  -44.3586   -5.7652 N   0  0  0  0  0  0  0  0  0  0  0  0
  -20.4195  -44.2385   -6.3741 C   0  0  0  0  0  0  0  0  0  0  0  0
  -19.9208  -43.3841   -7.3253 C   0  0  0  0  0  0  0  0  0  0  0  0
  -18.5892  -43.5142   -7.6453 C   0  0  0  0  0  0  0  0  0  0  0  0
  -17.8170  -44.5042   -6.9949 C   0  0  0  0  0  0  0  0  0  0  0  0
  -18.3172  -45.3613   -6.0431 C   0  0  0  0  0  0  0  0  0  0  0  0
  -19.5930  -45.1889   -5.7769 N   0  0  0  0  0  0  0  0  0  0  0  0
  -17.4984  -46.3069   -5.4486 O   0  0  0  0  0  0  0  0  0  0  0  0
  -16.6740  -47.0552   -6.3611 C   0  0  0  0  0  0  0  0  0  0  0  0
  -17.7337  -42.7482   -8.5807 C   0  0  0  0  0  0  0  0  0  0  0  0
  -16.8061  -43.4109   -9.2490 O   0  0  0  0  0  0  0  0  0  0  0  0
  -17.7003  -41.3953   -8.9202 N   0  0  0  0  0  0  0  0  0  0  0  0
  -22.0409  -38.3916   -6.4673 C   0  0  0  0  0  0  0  0  0  0  0  0
  -20.9643  -37.7886   -7.0550 C   0  0  0  0  0  0  0  0  0  0  0  0
  -19.8276  -38.5434   -7.0746 C   0  0  0  0  0  0  0  0  0  0  0  0
  1  2  1  0
  2  3  1  0
  3  4  1  0
  4  5  1  0
  5  6  1  0
  6  7  2  0
  6  8  1  0
  8  9  1  6
  8 10  1  0
 10 11  1  0
 11 12  1  1
 11 13  1  0
 13 14  1  1
 14 15  1  0
 15 16  1  0
 16 17  2  0
 17 18  1  0
 18 19  1  0
 19 20  1  0
 20 21  1  0
 21 22  1  0
 22 23  1  0
 23 24  1  0
 24 25  1  0
 25 26  2  0
 26 27  1  0
 27 28  2  0
 28 29  1  0
 28 30  1  0
 30 31  1  0
 26 32  1  0
 32 33  2  0
 32 34  1  0
 17 35  1  0
 35 36  2  0
 36 37  1  0
 29 24  2  0
 34 13  1  0
 37 15  2  0
M  END
$$$$
