
     RDKit          3D

 37 39  0  0  0  0  0  0  0  0999 V2000
  -14.2059  -34.2927  -11.9317 C   0  0  0  0  0  0  0  0  0  0  0  0
  -15.4262  -35.0650  -12.3133 C   0  0  0  0  0  0  0  0  0  0  0  0
  -15.5973  -36.3625  -11.5931 C   0  0  0  0  0  0  0  0  0  0  0  0
  -14.7447  -37.4830  -12.0772 C   0  0  0  0  0  0  0  0  0  0  0  0
  -13.8106  -38.0094  -11.1160 N   0  0  0  0  0  0  0  0  0  0  0  0
  -14.2283  -38.6249   -9.8886 C   0  0  0  0  0  0  0  0  0  0  0  0
  -14.8443  -37.8633   -9.0765 O   0  0  0  0  0  0  0  0  0  0  0  0
  -13.9838  -40.0404   -9.5442 C   0  0  2  0  0  0  0  0  0  0  0  0
  -14.0204  -40.8503  -10.8154 C   0  0  0  0  0  0  0  0  0  0  0  0
  -14.7489  -40.5870   -8.4028 C   0  0  0  0  0  0  0  0  0  0  0  0
  -15.7772  -39.7209   -7.7888 C   0  0  2  0  0  0  0  0  0  0  0  0
  -15.6875  -39.8760   -6.3863 O   0  0  0  0  0  0  0  0  0  0  0  0
  -17.2222  -40.1084   -8.2010 C   0  0  2  0  0  0  0  0  0  0  0  0
  -18.0748  -40.0326   -6.9706 C   0  0  0  0  0  0  0  0  0  0  0  0
  -19.4456  -39.4719   -7.1292 C   0  0  0  0  0  0  0  0  0  0  0  0
  -20.6781  -39.9138   -6.7072 C   0  0  0  0  0  0  0  0  0  0  0  0
  -21.7805  -39.1587   -7.0088 C   0  0  0  0  0  0  0  0  0  0  0  0
  -23.2211  -39.3504   -6.6871 C   0  0  0  0  0  0  0  0  0  0  0  0
  -23.9454  -40.1611   -7.7258 C   0  0  0  0  0  0  0  0  0  0  0  0
  -23.2935  -41.5050   -7.9004 C   0  0  0  0  0  0  0  0  0  0  0  0
  -23.7524  -42.5360   -6.8958 C   0  0  0  0  0  0  0  0  0  0  0  0
  -22.9567  -43.8167   -6.9364 C   0  0  0  0  0  0  0  0  0  0  0  0
  -21.7669  -43.7524   -6.1319 N   0  0  0  0  0  0  0  0  0  0  0  0
  -20.3774  -43.7584   -6.4784 C   0  0  0  0  0  0  0  0  0  0  0  0
  -19.6559  -43.0716   -7.4224 C   0  0  0  0  0  0  0  0  0  0  0  0
  -18.2966  -43.2818   -7.4446 C   0  0  0  0  0  0  0  0  0  0  0  0
  -17.7222  -44.1800   -6.5156 C   0  0  0  0  0  0  0  0  0  0  0  0
  -18.4455  -44.8694   -5.5711 C   0  0  0  0  0  0  0  0  0  0  0  0
  -19.7374  -44.6269   -5.5958 N   0  0  0  0  0  0  0  0  0  0  0  0
  -17.8122  -45.7334   -4.6932 O   0  0  0  0  0  0  0  0  0  0  0  0
  -18.3082  -47.0846   -4.7083 C   0  0  0  0  0  0  0  0  0  0  0  0
  -17.2337  -42.6888   -8.2885 C   0  0  0  0  0  0  0  0  0  0  0  0
  -16.2309  -43.4683   -8.6528 O   0  0  0  0  0  0  0  0  0  0  0  0
  -17.0604  -41.4046   -8.8059 N   0  0  0  0  0  0  0  0  0  0  0  0
  -21.6264  -37.9557   -7.7402 C   0  0  0  0  0  0  0  0  0  0  0  0
  -20.4242  -37.4762   -8.1790 C   0  0  0  0  0  0  0  0  0  0  0  0
  -19.3487  -38.2531   -7.8594 C   0  0  0  0  0  0  0  0  0  0  0  0
  1  2  1  0
  2  3  1  0
  3  4  1  0
  4  5  1  0
  5  6  1  0
  6  7  2  0
  6  8  1  0
  8  9  1  6
  8 10  1  0
 10 11  1  0
 11 12  1  1
 11 13  1  0
 13 14  1  1
 14 15  1  0
 15 16  1  0
 16 17  2  0
 17 18  1  0
 18 19  1  0
 19 20  1  0
 20 21  1  0
 21 22  1  0
 22 23  1  0
 23 24  1  0
 24 25  1  0
 25 26  2  0
 26 27  1  0
 27 28  2  0
 28 29  1  0
 28 30  1  0
 30 31  1  0
 26 32  1  0
 32 33  2  0
 32 34  1  0
 17 35  1  0
 35 36  2  0
 36 37  1  0
 29 24  2  0
 34 13  1  0
 37 15  2  0
M  END
$$$$
