
     RDKit          3D

 37 39  0  0  0  0  0  0  0  0999 V2000
  -11.5933  -34.5229  -11.6460 C   0  0  0  0  0  0  0  0  0  0  0  0
  -12.5312  -35.6796  -11.7629 C   0  0  0  0  0  0  0  0  0  0  0  0
  -11.8701  -37.0057  -11.9523 C   0  0  0  0  0  0  0  0  0  0  0  0
  -12.7900  -38.1695  -12.0796 C   0  0  0  0  0  0  0  0  0  0  0  0
  -12.8904  -39.0089  -10.9139 N   0  0  0  0  0  0  0  0  0  0  0  0
  -14.1450  -39.3176  -10.2889 C   0  0  0  0  0  0  0  0  0  0  0  0
  -14.9619  -39.9840  -11.0013 O   0  0  0  0  0  0  0  0  0  0  0  0
  -14.5110  -38.9124   -8.9164 C   0  0  2  0  0  0  0  0  0  0  0  0
  -14.1507  -40.0367   -7.9786 C   0  0  0  0  0  0  0  0  0  0  0  0
  -15.8538  -38.3200   -8.7354 C   0  0  0  0  0  0  0  0  0  0  0  0
  -16.6569  -38.7806   -7.5832 C   0  0  2  0  0  0  0  0  0  0  0  0
  -15.9281  -39.8034   -6.9336 O   0  0  0  0  0  0  0  0  0  0  0  0
  -18.0240  -39.3857   -7.9992 C   0  0  2  0  0  0  0  0  0  0  0  0
  -19.0046  -39.0674   -6.9112 C   0  0  0  0  0  0  0  0  0  0  0  0
  -20.3827  -38.6883   -7.3305 C   0  0  0  0  0  0  0  0  0  0  0  0
  -21.6235  -39.1108   -6.9130 C   0  0  0  0  0  0  0  0  0  0  0  0
  -22.7320  -38.5585   -7.4983 C   0  0  0  0  0  0  0  0  0  0  0  0
  -24.1841  -38.7844   -7.2616 C   0  0  0  0  0  0  0  0  0  0  0  0
  -24.7439  -39.8966   -8.1044 C   0  0  0  0  0  0  0  0  0  0  0  0
  -23.9963  -41.1780   -7.8577 C   0  0  0  0  0  0  0  0  0  0  0  0
  -24.4948  -41.9487   -6.6575 C   0  0  0  0  0  0  0  0  0  0  0  0
  -23.6224  -43.1219   -6.2867 C   0  0  0  0  0  0  0  0  0  0  0  0
  -22.5303  -42.7480   -5.4298 N   0  0  0  0  0  0  0  0  0  0  0  0
  -21.1143  -42.7231   -5.6418 C   0  0  0  0  0  0  0  0  0  0  0  0
  -20.3405  -42.2449   -6.6696 C   0  0  0  0  0  0  0  0  0  0  0  0
  -18.9762  -42.3349   -6.5184 C   0  0  0  0  0  0  0  0  0  0  0  0
  -18.4492  -42.9078   -5.3378 C   0  0  0  0  0  0  0  0  0  0  0  0
  -19.2246  -43.3884   -4.3091 C   0  0  0  0  0  0  0  0  0  0  0  0
  -20.5190  -43.2738   -4.5081 N   0  0  0  0  0  0  0  0  0  0  0  0
  -18.6358  -43.9366   -3.1817 O   0  0  0  0  0  0  0  0  0  0  0  0
  -19.2796  -43.6030   -1.9382 C   0  0  0  0  0  0  0  0  0  0  0  0
  -17.8684  -41.8913   -7.3957 C   0  0  0  0  0  0  0  0  0  0  0  0
  -16.7870  -42.6485   -7.4516 O   0  0  0  0  0  0  0  0  0  0  0  0
  -17.7203  -40.7754   -8.2202 N   0  0  0  0  0  0  0  0  0  0  0  0
  -22.5755  -37.5779   -8.5081 C   0  0  0  0  0  0  0  0  0  0  0  0
  -21.3652  -37.1262   -8.9544 C   0  0  0  0  0  0  0  0  0  0  0  0
  -20.2840  -37.6971   -8.3483 C   0  0  0  0  0  0  0  0  0  0  0  0
  1  2  1  0
  2  3  1  0
  3  4  1  0
  4  5  1  0
  5  6  1  0
  6  7  2  0
  6  8  1  0
  8  9  1  1
  8 10  1  0
 10 11  1  0
 11 12  1  6
 11 13  1  0
 13 14  1  1
 14 15  1  0
 15 16  1  0
 16 17  2  0
 17 18  1  0
 18 19  1  0
 19 20  1  0
 20 21  1  0
 21 22  1  0
 22 23  1  0
 23 24  1  0
 24 25  1  0
 25 26  2  0
 26 27  1  0
 27 28  2  0
 28 29  1  0
 28 30  1  0
 30 31  1  0
 26 32  1  0
 32 33  2  0
 32 34  1  0
 17 35  1  0
 35 36  2  0
 36 37  1  0
 29 24  2  0
 34 13  1  0
 37 15  2  0
M  END
$$$$
