
     RDKit          3D

 37 39  0  0  0  0  0  0  0  0999 V2000
  -10.9478  -42.9917   -8.9471 C   0  0  0  0  0  0  0  0  0  0  0  0
  -11.7027  -42.3584  -10.0697 C   0  0  0  0  0  0  0  0  0  0  0  0
  -11.6679  -40.8650  -10.0843 C   0  0  0  0  0  0  0  0  0  0  0  0
  -12.3759  -40.2173  -11.2227 C   0  0  0  0  0  0  0  0  0  0  0  0
  -13.8106  -40.1669  -11.1106 N   0  0  0  0  0  0  0  0  0  0  0  0
  -14.4951  -39.1200  -10.4070 C   0  0  0  0  0  0  0  0  0  0  0  0
  -13.7506  -38.2101   -9.9204 O   0  0  0  0  0  0  0  0  0  0  0  0
  -15.9605  -39.0575  -10.2316 C   0  0  2  0  0  0  0  0  0  0  0  0
  -16.5911  -38.8493  -11.5852 C   0  0  0  0  0  0  0  0  0  0  0  0
  -16.4619  -38.1936   -9.1411 C   0  0  0  0  0  0  0  0  0  0  0  0
  -16.9697  -38.8550   -7.9207 C   0  0  2  0  0  0  0  0  0  0  0  0
  -16.0653  -39.8886   -7.5847 O   0  0  0  0  0  0  0  0  0  0  0  0
  -18.3616  -39.5113   -8.1203 C   0  0  2  0  0  0  0  0  0  0  0  0
  -18.9354  -39.7679   -6.7597 C   0  0  0  0  0  0  0  0  0  0  0  0
  -20.3928  -39.5181   -6.5805 C   0  0  0  0  0  0  0  0  0  0  0  0
  -21.3960  -40.2718   -6.0164 C   0  0  0  0  0  0  0  0  0  0  0  0
  -22.6652  -39.7572   -5.9945 C   0  0  0  0  0  0  0  0  0  0  0  0
  -23.9386  -40.3048   -5.4518 C   0  0  0  0  0  0  0  0  0  0  0  0
  -24.6871  -41.1376   -6.4551 C   0  0  0  0  0  0  0  0  0  0  0  0
  -23.8310  -42.2710   -6.9491 C   0  0  0  0  0  0  0  0  0  0  0  0
  -23.8538  -43.4844   -6.0490 C   0  0  0  0  0  0  0  0  0  0  0  0
  -22.8446  -44.5389   -6.4289 C   0  0  0  0  0  0  0  0  0  0  0  0
  -21.5502  -44.2968   -5.8519 N   0  0  0  0  0  0  0  0  0  0  0  0
  -20.2916  -43.9494   -6.4399 C   0  0  0  0  0  0  0  0  0  0  0  0
  -19.9358  -43.0163   -7.3814 C   0  0  0  0  0  0  0  0  0  0  0  0
  -18.5973  -42.9095   -7.6802 C   0  0  0  0  0  0  0  0  0  0  0  0
  -17.6735  -43.7519   -7.0194 C   0  0  0  0  0  0  0  0  0  0  0  0
  -18.0303  -44.6879   -6.0775 C   0  0  0  0  0  0  0  0  0  0  0  0
  -19.3205  -44.7430   -5.8314 N   0  0  0  0  0  0  0  0  0  0  0  0
  -17.0677  -45.4782   -5.4718 O   0  0  0  0  0  0  0  0  0  0  0  0
  -17.3698  -46.8853   -5.4406 C   0  0  0  0  0  0  0  0  0  0  0  0
  -17.8750  -42.0010   -8.6004 C   0  0  0  0  0  0  0  0  0  0  0  0
  -16.8354  -42.4877   -9.2550 O   0  0  0  0  0  0  0  0  0  0  0  0
  -18.0741  -40.6616   -8.9366 N   0  0  0  0  0  0  0  0  0  0  0  0
  -22.9114  -38.4769   -6.5476 C   0  0  0  0  0  0  0  0  0  0  0  0
  -21.9482  -37.6917   -7.1168 C   0  0  0  0  0  0  0  0  0  0  0  0
  -20.6966  -38.2356   -7.1197 C   0  0  0  0  0  0  0  0  0  0  0  0
  1  2  1  0
  2  3  1  0
  3  4  1  0
  4  5  1  0
  5  6  1  0
  6  7  2  0
  6  8  1  0
  8  9  1  6
  8 10  1  0
 10 11  1  0
 11 12  1  6
 11 13  1  0
 13 14  1  1
 14 15  1  0
 15 16  1  0
 16 17  2  0
 17 18  1  0
 18 19  1  0
 19 20  1  0
 20 21  1  0
 21 22  1  0
 22 23  1  0
 23 24  1  0
 24 25  1  0
 25 26  2  0
 26 27  1  0
 27 28  2  0
 28 29  1  0
 28 30  1  0
 30 31  1  0
 26 32  1  0
 32 33  2  0
 32 34  1  0
 17 35  1  0
 35 36  2  0
 36 37  1  0
 29 24  2  0
 34 13  1  0
 37 15  2  0
M  END
$$$$
