
     RDKit          3D

 37 39  0  0  0  0  0  0  0  0999 V2000
  -14.3730  -33.6254  -10.8274 C   0  0  0  0  0  0  0  0  0  0  0  0
  -15.7159  -34.2638  -10.6852 C   0  0  0  0  0  0  0  0  0  0  0  0
  -15.6873  -35.7415  -10.4677 C   0  0  0  0  0  0  0  0  0  0  0  0
  -14.3665  -36.3960  -10.6772 C   0  0  0  0  0  0  0  0  0  0  0  0
  -14.4134  -37.7091  -11.2664 N   0  0  0  0  0  0  0  0  0  0  0  0
  -14.7897  -38.8775  -10.5227 C   0  0  0  0  0  0  0  0  0  0  0  0
  -15.8013  -39.5075  -10.9685 O   0  0  0  0  0  0  0  0  0  0  0  0
  -14.0845  -39.3570   -9.3166 C   0  0  2  0  0  0  0  0  0  0  0  0
  -12.8569  -40.1144   -9.7554 C   0  0  0  0  0  0  0  0  0  0  0  0
  -14.9129  -40.0071   -8.2782 C   0  0  0  0  0  0  0  0  0  0  0  0
  -15.9995  -39.2108   -7.6700 C   0  0  2  0  0  0  0  0  0  0  0  0
  -15.8392  -39.2675   -6.2664 O   0  0  0  0  0  0  0  0  0  0  0  0
  -17.4124  -39.7656   -7.9925 C   0  0  2  0  0  0  0  0  0  0  0  0
  -18.3365  -39.2948   -6.9105 C   0  0  0  0  0  0  0  0  0  0  0  0
  -19.7033  -38.8706   -7.3234 C   0  0  0  0  0  0  0  0  0  0  0  0
  -20.9521  -39.1789   -6.8358 C   0  0  0  0  0  0  0  0  0  0  0  0
  -22.0453  -38.6134   -7.4370 C   0  0  0  0  0  0  0  0  0  0  0  0
  -23.4996  -38.7292   -7.1410 C   0  0  0  0  0  0  0  0  0  0  0  0
  -24.1504  -39.8745   -7.8658 C   0  0  0  0  0  0  0  0  0  0  0  0
  -23.4709  -41.1725   -7.5270 C   0  0  0  0  0  0  0  0  0  0  0  0
  -23.9734  -41.8041   -6.2497 C   0  0  0  0  0  0  0  0  0  0  0  0
  -23.1589  -42.9914   -5.8003 C   0  0  0  0  0  0  0  0  0  0  0  0
  -22.0193  -42.6113   -5.0106 N   0  0  0  0  0  0  0  0  0  0  0  0
  -20.6120  -42.6910   -5.2631 C   0  0  0  0  0  0  0  0  0  0  0  0
  -19.8460  -42.3521   -6.3503 C   0  0  0  0  0  0  0  0  0  0  0  0
  -18.4850  -42.5113   -6.2296 C   0  0  0  0  0  0  0  0  0  0  0  0
  -17.9536  -43.0101   -5.0178 C   0  0  0  0  0  0  0  0  0  0  0  0
  -18.7213  -43.3513   -3.9294 C   0  0  0  0  0  0  0  0  0  0  0  0
  -20.0127  -43.1760   -4.1019 N   0  0  0  0  0  0  0  0  0  0  0  0
  -18.1285  -43.8340   -2.7744 O   0  0  0  0  0  0  0  0  0  0  0  0
  -19.0471  -44.1970   -1.7273 C   0  0  0  0  0  0  0  0  0  0  0  0
  -17.3829  -42.2139   -7.1732 C   0  0  0  0  0  0  0  0  0  0  0  0
  -16.3496  -43.0375   -7.1915 O   0  0  0  0  0  0  0  0  0  0  0  0
  -17.1974  -41.1852   -8.0974 N   0  0  0  0  0  0  0  0  0  0  0  0
  -21.8655  -37.7358   -8.5340 C   0  0  0  0  0  0  0  0  0  0  0  0
  -20.6463  -37.3991   -9.0520 C   0  0  0  0  0  0  0  0  0  0  0  0
  -19.5808  -37.9797   -8.4276 C   0  0  0  0  0  0  0  0  0  0  0  0
  1  2  1  0
  2  3  1  0
  3  4  1  0
  4  5  1  0
  5  6  1  0
  6  7  2  0
  6  8  1  0
  8  9  1  6
  8 10  1  0
 10 11  1  0
 11 12  1  1
 11 13  1  0
 13 14  1  1
 14 15  1  0
 15 16  1  0
 16 17  2  0
 17 18  1  0
 18 19  1  0
 19 20  1  0
 20 21  1  0
 21 22  1  0
 22 23  1  0
 23 24  1  0
 24 25  1  0
 25 26  2  0
 26 27  1  0
 27 28  2  0
 28 29  1  0
 28 30  1  0
 30 31  1  0
 26 32  1  0
 32 33  2  0
 32 34  1  0
 17 35  1  0
 35 36  2  0
 36 37  1  0
 29 24  2  0
 34 13  1  0
 37 15  2  0
M  END
$$$$
