
     RDKit          3D

 37 39  0  0  0  0  0  0  0  0999 V2000
  -12.0516  -35.9796  -13.2244 C   0  0  0  0  0  0  0  0  0  0  0  0
  -12.2478  -35.6583  -11.7789 C   0  0  0  0  0  0  0  0  0  0  0  0
  -13.6013  -35.9906  -11.2412 C   0  0  0  0  0  0  0  0  0  0  0  0
  -14.3608  -37.0189  -12.0044 C   0  0  0  0  0  0  0  0  0  0  0  0
  -14.2740  -38.3608  -11.4893 N   0  0  0  0  0  0  0  0  0  0  0  0
  -15.2201  -38.8911  -10.5493 C   0  0  0  0  0  0  0  0  0  0  0  0
  -16.2355  -39.4640  -11.0589 O   0  0  0  0  0  0  0  0  0  0  0  0
  -15.0713  -38.8033   -9.0823 C   0  0  2  0  0  0  0  0  0  0  0  0
  -14.5536  -40.1268   -8.5787 C   0  0  0  0  0  0  0  0  0  0  0  0
  -16.2068  -38.2221   -8.3340 C   0  0  0  0  0  0  0  0  0  0  0  0
  -16.8951  -39.0863   -7.3521 C   0  0  2  0  0  0  0  0  0  0  0  0
  -16.0474  -40.1842   -7.0780 O   0  0  0  0  0  0  0  0  0  0  0  0
  -18.2338  -39.6630   -7.8843 C   0  0  2  0  0  0  0  0  0  0  0  0
  -19.0322  -40.1109   -6.6975 C   0  0  0  0  0  0  0  0  0  0  0  0
  -20.4983  -39.8498   -6.7291 C   0  0  0  0  0  0  0  0  0  0  0  0
  -21.5846  -40.6525   -6.4681 C   0  0  0  0  0  0  0  0  0  0  0  0
  -22.8378  -40.1109   -6.5792 C   0  0  0  0  0  0  0  0  0  0  0  0
  -24.1863  -40.6989   -6.3520 C   0  0  0  0  0  0  0  0  0  0  0  0
  -24.7542  -41.3439   -7.5857 C   0  0  0  0  0  0  0  0  0  0  0  0
  -23.8287  -42.4112   -8.1012 C   0  0  0  0  0  0  0  0  0  0  0  0
  -24.0075  -43.7484   -7.4209 C   0  0  0  0  0  0  0  0  0  0  0  0
  -22.9504  -44.7600   -7.7871 C   0  0  0  0  0  0  0  0  0  0  0  0
  -21.7731  -44.6480   -6.9696 N   0  0  0  0  0  0  0  0  0  0  0  0
  -20.4318  -44.2502   -7.2749 C   0  0  0  0  0  0  0  0  0  0  0  0
  -19.9184  -43.1931   -7.9837 C   0  0  0  0  0  0  0  0  0  0  0  0
  -18.5483  -43.0800   -8.0323 C   0  0  0  0  0  0  0  0  0  0  0  0
  -17.7528  -44.0412   -7.3669 C   0  0  0  0  0  0  0  0  0  0  0  0
  -18.2672  -45.1013   -6.6582 C   0  0  0  0  0  0  0  0  0  0  0  0
  -19.5806  -45.1565   -6.6447 N   0  0  0  0  0  0  0  0  0  0  0  0
  -17.4238  -46.0036   -6.0316 O   0  0  0  0  0  0  0  0  0  0  0  0
  -17.9889  -47.3089   -5.8101 C   0  0  0  0  0  0  0  0  0  0  0  0
  -17.6776  -42.0611   -8.6626 C   0  0  0  0  0  0  0  0  0  0  0  0
  -16.5425  -42.4702   -9.2013 O   0  0  0  0  0  0  0  0  0  0  0  0
  -17.8135  -40.6805   -8.8118 N   0  0  0  0  0  0  0  0  0  0  0  0
  -22.9832  -38.7536   -6.9567 C   0  0  0  0  0  0  0  0  0  0  0  0
  -21.9353  -37.9180   -7.2244 C   0  0  0  0  0  0  0  0  0  0  0  0
  -20.7028  -38.4908   -7.1024 C   0  0  0  0  0  0  0  0  0  0  0  0
  1  2  1  0
  2  3  1  0
  3  4  1  0
  4  5  1  0
  5  6  1  0
  6  7  2  0
  6  8  1  0
  8  9  1  1
  8 10  1  0
 10 11  1  0
 11 12  1  6
 11 13  1  0
 13 14  1  1
 14 15  1  0
 15 16  1  0
 16 17  2  0
 17 18  1  0
 18 19  1  0
 19 20  1  0
 20 21  1  0
 21 22  1  0
 22 23  1  0
 23 24  1  0
 24 25  1  0
 25 26  2  0
 26 27  1  0
 27 28  2  0
 28 29  1  0
 28 30  1  0
 30 31  1  0
 26 32  1  0
 32 33  2  0
 32 34  1  0
 17 35  1  0
 35 36  2  0
 36 37  1  0
 29 24  2  0
 34 13  1  0
 37 15  2  0
M  END
$$$$
