
     RDKit          3D

 39 42  0  0  0  0  0  0  0  0999 V2000
  -24.6302  -39.4764   -4.1959 C   0  0  0  0  0  0  0  0  0  0  0  0
  -23.1451  -39.4596   -3.8600 C   0  0  0  0  0  0  0  0  0  0  0  0
  -22.9666  -39.6940   -2.3927 C   0  0  0  0  0  0  0  0  0  0  0  0
  -22.3806  -40.3891   -4.7119 C   0  0  0  0  0  0  0  0  0  0  0  0
  -21.5736  -39.9393   -5.7445 C   0  0  0  0  0  0  0  0  0  0  0  0
  -20.8504  -40.8102   -6.5587 C   0  0  0  0  0  0  0  0  0  0  0  0
  -20.9560  -42.1460   -6.3114 C   0  0  0  0  0  0  0  0  0  0  0  0
  -21.7710  -42.6011   -5.2679 C   0  0  0  0  0  0  0  0  0  0  0  0
  -22.4762  -41.7390   -4.4758 C   0  0  0  0  0  0  0  0  0  0  0  0
  -20.0436  -40.2372   -7.6328 C   0  0  0  0  0  0  0  0  0  0  0  0
  -20.3820  -41.0432   -8.8997 C   0  0  0  0  0  0  0  0  0  0  0  0
  -20.4525  -38.7723   -7.8359 C   0  0  0  0  0  0  0  0  0  0  0  0
  -18.6183  -40.3221   -7.4926 N   0  0  0  0  0  0  0  0  0  0  0  0
  -18.0198  -39.2083   -6.8443 C   0  0  0  0  0  0  0  0  0  0  0  0
  -16.8943  -38.5275   -7.5352 C   0  0  1  0  0  0  0  0  0  0  0  0
  -15.9933  -38.0313   -6.5377 O   0  0  0  0  0  0  0  0  0  0  0  0
  -16.1348  -39.2592   -8.5745 C   0  0  2  0  0  0  0  0  0  0  0  0
  -16.6564  -39.0266   -9.9502 C   0  0  0  0  0  0  0  0  0  0  0  0
  -16.1814  -37.7159  -10.5434 C   0  0  0  0  0  0  0  0  0  0  0  0
  -14.9268  -37.3378  -10.9221 C   0  0  0  0  0  0  0  0  0  0  0  0
  -14.7610  -36.0629  -11.4466 C   0  0  0  0  0  0  0  0  0  0  0  0
  -15.8724  -35.2073  -11.5700 C   0  0  0  0  0  0  0  0  0  0  0  0
  -17.1480  -35.5553  -11.1988 C   0  0  0  0  0  0  0  0  0  0  0  0
  -17.2650  -36.8213  -10.6882 C   0  0  0  0  0  0  0  0  0  0  0  0
  -13.6233  -35.4416  -11.8975 O   0  0  0  0  0  0  0  0  0  0  0  0
  -12.5342  -35.6543  -12.6857 C   0  0  0  0  0  0  0  0  0  0  0  0
  -12.2539  -37.1355  -12.9768 C   0  0  0  0  0  0  0  0  0  0  0  0
  -11.3800  -37.6952  -11.9061 C   0  0  0  0  0  0  0  0  0  0  0  0
  -11.5711  -39.1616  -11.6150 C   0  0  0  0  0  0  0  0  0  0  0  0
  -12.4330  -39.8257  -12.5279 N   0  0  0  0  0  0  0  0  0  0  0  0
  -13.3715  -40.7876  -12.0393 C   0  0  0  0  0  0  0  0  0  0  0  0
  -13.7485  -41.7951  -12.9379 C   0  0  0  0  0  0  0  0  0  0  0  0
  -14.6518  -42.7511  -12.5463 C   0  0  0  0  0  0  0  0  0  0  0  0
  -15.1482  -42.6664  -11.2684 C   0  0  0  0  0  0  0  0  0  0  0  0
  -14.7596  -41.6570  -10.3954 C   0  0  0  0  0  0  0  0  0  0  0  0
  -13.8848  -40.7565  -10.8163 N   0  0  0  0  0  0  0  0  0  0  0  0
  -15.3413  -41.6443   -9.0389 C   0  0  0  0  0  0  0  0  0  0  0  0
  -15.5496  -42.8223   -8.5708 O   0  0  0  0  0  0  0  0  0  0  0  0
  -15.6737  -40.5618   -8.2448 N   0  0  0  0  0  0  0  0  0  0  0  0
  1  2  1  0
  2  3  1  0
  2  4  1  0
  4  5  2  0
  5  6  1  0
  6  7  2  0
  7  8  1  0
  8  9  2  0
  6 10  1  0
 10 11  1  0
 10 12  1  0
 10 13  1  0
 13 14  1  0
 14 15  1  0
 15 16  1  1
 15 17  1  0
 17 18  1  6
 18 19  1  0
 19 20  2  0
 20 21  1  0
 21 22  2  0
 22 23  1  0
 23 24  2  0
 21 25  1  0
 25 26  1  0
 26 27  1  0
 27 28  1  0
 28 29  1  0
 29 30  1  0
 30 31  1  0
 31 32  2  0
 32 33  1  0
 33 34  2  0
 34 35  1  0
 35 36  2  0
 35 37  1  0
 37 38  2  0
 37 39  1  0
  9  4  1  0
 24 19  1  0
 36 31  1  0
 39 17  1  0
M  END
$$$$
