
     RDKit          3D

 39 42  0  0  0  0  0  0  0  0999 V2000
  -24.0096  -42.9869   -6.0232 C   0  0  0  0  0  0  0  0  0  0  0  0
  -23.3748  -41.6073   -5.9127 C   0  0  0  0  0  0  0  0  0  0  0  0
  -23.0970  -41.3037   -4.4738 C   0  0  0  0  0  0  0  0  0  0  0  0
  -22.1975  -41.4744   -6.7905 C   0  0  0  0  0  0  0  0  0  0  0  0
  -21.4233  -40.3255   -6.8070 C   0  0  0  0  0  0  0  0  0  0  0  0
  -20.3110  -40.1880   -7.6367 C   0  0  0  0  0  0  0  0  0  0  0  0
  -19.9929  -41.2333   -8.4507 C   0  0  0  0  0  0  0  0  0  0  0  0
  -20.7746  -42.3948   -8.4343 C   0  0  0  0  0  0  0  0  0  0  0  0
  -21.8633  -42.5192   -7.6175 C   0  0  0  0  0  0  0  0  0  0  0  0
  -19.5720  -38.9292   -7.5932 C   0  0  0  0  0  0  0  0  0  0  0  0
  -18.6023  -38.9601   -8.7882 C   0  0  0  0  0  0  0  0  0  0  0  0
  -20.5580  -37.7663   -7.7665 C   0  0  0  0  0  0  0  0  0  0  0  0
  -18.7524  -38.6949   -6.4392 N   0  0  0  0  0  0  0  0  0  0  0  0
  -17.5360  -38.0106   -6.7060 C   0  0  0  0  0  0  0  0  0  0  0  0
  -17.1679  -37.7812   -8.1271 C   0  0  1  0  0  0  0  0  0  0  0  0
  -16.4912  -36.5212   -8.2148 O   0  0  0  0  0  0  0  0  0  0  0  0
  -16.3931  -38.8154   -8.8497 C   0  0  2  0  0  0  0  0  0  0  0  0
  -16.4949  -38.6917  -10.3306 C   0  0  0  0  0  0  0  0  0  0  0  0
  -15.5761  -37.6271  -10.8946 C   0  0  0  0  0  0  0  0  0  0  0  0
  -14.2139  -37.5986  -10.9551 C   0  0  0  0  0  0  0  0  0  0  0  0
  -13.6105  -36.4896  -11.5330 C   0  0  0  0  0  0  0  0  0  0  0  0
  -14.4063  -35.4404  -12.0311 C   0  0  0  0  0  0  0  0  0  0  0  0
  -15.7789  -35.4365  -11.9863 C   0  0  0  0  0  0  0  0  0  0  0  0
  -16.3310  -36.5497  -11.4093 C   0  0  0  0  0  0  0  0  0  0  0  0
  -12.2789  -36.2125  -11.7171 O   0  0  0  0  0  0  0  0  0  0  0  0
  -11.1236  -36.7804  -12.1591 C   0  0  0  0  0  0  0  0  0  0  0  0
  -11.1663  -38.3138  -12.2233 C   0  0  0  0  0  0  0  0  0  0  0  0
  -10.7443  -38.8777  -10.9090 C   0  0  0  0  0  0  0  0  0  0  0  0
  -11.3643  -40.2020  -10.5437 C   0  0  0  0  0  0  0  0  0  0  0  0
  -12.1226  -40.7944  -11.5883 N   0  0  0  0  0  0  0  0  0  0  0  0
  -13.3626  -41.4374  -11.2824 C   0  0  0  0  0  0  0  0  0  0  0  0
  -13.7567  -42.4650  -12.1504 C   0  0  0  0  0  0  0  0  0  0  0  0
  -14.9390  -43.1252  -11.9285 C   0  0  0  0  0  0  0  0  0  0  0  0
  -15.6880  -42.7345  -10.8455 C   0  0  0  0  0  0  0  0  0  0  0  0
  -15.2764  -41.7117   -9.9990 C   0  0  0  0  0  0  0  0  0  0  0  0
  -14.1278  -41.1031  -10.2514 N   0  0  0  0  0  0  0  0  0  0  0  0
  -16.1423  -41.3592   -8.8568 C   0  0  0  0  0  0  0  0  0  0  0  0
  -16.7476  -42.3743   -8.3535 O   0  0  0  0  0  0  0  0  0  0  0  0
  -16.3694  -40.1196   -8.2870 N   0  0  0  0  0  0  0  0  0  0  0  0
  1  2  1  0
  2  3  1  0
  2  4  1  0
  4  5  2  0
  5  6  1  0
  6  7  2  0
  7  8  1  0
  8  9  2  0
  6 10  1  0
 10 11  1  0
 10 12  1  0
 10 13  1  0
 13 14  1  0
 14 15  1  0
 15 16  1  1
 15 17  1  0
 17 18  1  6
 18 19  1  0
 19 20  2  0
 20 21  1  0
 21 22  2  0
 22 23  1  0
 23 24  2  0
 21 25  1  0
 25 26  1  0
 26 27  1  0
 27 28  1  0
 28 29  1  0
 29 30  1  0
 30 31  1  0
 31 32  2  0
 32 33  1  0
 33 34  2  0
 34 35  1  0
 35 36  2  0
 35 37  1  0
 37 38  2  0
 37 39  1  0
  9  4  1  0
 24 19  1  0
 36 31  1  0
 39 17  1  0
M  END
$$$$
