
     RDKit          3D

 39 42  0  0  0  0  0  0  0  0999 V2000
  -21.5653  -41.0978   -1.9048 C   0  0  0  0  0  0  0  0  0  0  0  0
  -22.6460  -41.0834   -2.9774 C   0  0  0  0  0  0  0  0  0  0  0  0
  -23.4838  -39.8533   -2.8198 C   0  0  0  0  0  0  0  0  0  0  0  0
  -22.0790  -41.2522   -4.3280 C   0  0  0  0  0  0  0  0  0  0  0  0
  -21.3325  -40.2568   -4.9377 C   0  0  0  0  0  0  0  0  0  0  0  0
  -20.7961  -40.4047   -6.2163 C   0  0  0  0  0  0  0  0  0  0  0  0
  -21.0266  -41.5779   -6.8699 C   0  0  0  0  0  0  0  0  0  0  0  0
  -21.7805  -42.5843   -6.2543 C   0  0  0  0  0  0  0  0  0  0  0  0
  -22.3023  -42.4290   -5.0006 C   0  0  0  0  0  0  0  0  0  0  0  0
  -20.0399  -39.2888   -6.7781 C   0  0  0  0  0  0  0  0  0  0  0  0
  -19.2742  -39.8556   -7.9871 C   0  0  0  0  0  0  0  0  0  0  0  0
  -21.0226  -38.2116   -7.2563 C   0  0  0  0  0  0  0  0  0  0  0  0
  -19.0430  -38.6894   -5.9384 N   0  0  0  0  0  0  0  0  0  0  0  0
  -17.7115  -38.8138   -6.4188 C   0  0  0  0  0  0  0  0  0  0  0  0
  -17.3996  -38.2360   -7.7516 C   0  0  1  0  0  0  0  0  0  0  0  0
  -16.2254  -37.4249   -7.6224 O   0  0  0  0  0  0  0  0  0  0  0  0
  -17.2568  -39.1391   -8.9162 C   0  0  2  0  0  0  0  0  0  0  0  0
  -17.3497  -38.4269  -10.2211 C   0  0  0  0  0  0  0  0  0  0  0  0
  -16.0547  -37.7426  -10.6089 C   0  0  0  0  0  0  0  0  0  0  0  0
  -14.8542  -38.2882  -10.9572 C   0  0  0  0  0  0  0  0  0  0  0  0
  -13.8137  -37.4252  -11.2742 C   0  0  0  0  0  0  0  0  0  0  0  0
  -14.0203  -36.0333  -11.2267 C   0  0  0  0  0  0  0  0  0  0  0  0
  -15.2147  -35.4507  -10.8804 C   0  0  0  0  0  0  0  0  0  0  0  0
  -16.2126  -36.3391  -10.5770 C   0  0  0  0  0  0  0  0  0  0  0  0
  -12.5246  -37.7076  -11.6512 O   0  0  0  0  0  0  0  0  0  0  0  0
  -11.8110  -38.5034  -12.4939 C   0  0  0  0  0  0  0  0  0  0  0  0
  -12.5960  -39.7102  -13.0274 C   0  0  0  0  0  0  0  0  0  0  0  0
  -12.4447  -40.8565  -12.0860 C   0  0  0  0  0  0  0  0  0  0  0  0
  -13.6135  -41.8065  -12.0295 C   0  0  0  0  0  0  0  0  0  0  0  0
  -14.6085  -41.5597  -13.0125 N   0  0  0  0  0  0  0  0  0  0  0  0
  -15.9901  -41.6621  -12.6588 C   0  0  0  0  0  0  0  0  0  0  0  0
  -16.8709  -41.9960  -13.6967 C   0  0  0  0  0  0  0  0  0  0  0  0
  -18.2142  -42.1053  -13.4386 C   0  0  0  0  0  0  0  0  0  0  0  0
  -18.6315  -41.8760  -12.1503 C   0  0  0  0  0  0  0  0  0  0  0  0
  -17.7386  -41.5453  -11.1376 C   0  0  0  0  0  0  0  0  0  0  0  0
  -16.4512  -41.4518  -11.4326 N   0  0  0  0  0  0  0  0  0  0  0  0
  -18.2740  -41.3190   -9.7807 C   0  0  0  0  0  0  0  0  0  0  0  0
  -19.2737  -42.0761   -9.5026 O   0  0  0  0  0  0  0  0  0  0  0  0
  -17.8453  -40.4280   -8.8136 N   0  0  0  0  0  0  0  0  0  0  0  0
  1  2  1  0
  2  3  1  0
  2  4  1  0
  4  5  2  0
  5  6  1  0
  6  7  2  0
  7  8  1  0
  8  9  2  0
  6 10  1  0
 10 11  1  0
 10 12  1  0
 10 13  1  0
 13 14  1  0
 14 15  1  0
 15 16  1  1
 15 17  1  0
 17 18  1  6
 18 19  1  0
 19 20  2  0
 20 21  1  0
 21 22  2  0
 22 23  1  0
 23 24  2  0
 21 25  1  0
 25 26  1  0
 26 27  1  0
 27 28  1  0
 28 29  1  0
 29 30  1  0
 30 31  1  0
 31 32  2  0
 32 33  1  0
 33 34  2  0
 34 35  1  0
 35 36  2  0
 35 37  1  0
 37 38  2  0
 37 39  1  0
  9  4  1  0
 24 19  1  0
 36 31  1  0
 39 17  1  0
M  END
$$$$
