
     RDKit          3D

 39 42  0  0  0  0  0  0  0  0999 V2000
  -24.6397  -41.4184   -3.7628 C   0  0  0  0  0  0  0  0  0  0  0  0
  -23.5257  -40.4739   -4.1935 C   0  0  0  0  0  0  0  0  0  0  0  0
  -22.7649  -40.0224   -2.9864 C   0  0  0  0  0  0  0  0  0  0  0  0
  -22.6807  -41.0678   -5.2459 C   0  0  0  0  0  0  0  0  0  0  0  0
  -21.5814  -40.4021   -5.7637 C   0  0  0  0  0  0  0  0  0  0  0  0
  -20.7788  -40.9529   -6.7622 C   0  0  0  0  0  0  0  0  0  0  0  0
  -21.1059  -42.1904   -7.2294 C   0  0  0  0  0  0  0  0  0  0  0  0
  -22.2164  -42.8638   -6.7063 C   0  0  0  0  0  0  0  0  0  0  0  0
  -22.9969  -42.3147   -5.7279 C   0  0  0  0  0  0  0  0  0  0  0  0
  -19.6538  -40.1624   -7.2545 C   0  0  0  0  0  0  0  0  0  0  0  0
  -18.6332  -41.1706   -7.8123 C   0  0  0  0  0  0  0  0  0  0  0  0
  -20.1431  -39.2518   -8.3884 C   0  0  0  0  0  0  0  0  0  0  0  0
  -18.9347  -39.3818   -6.2892 N   0  0  0  0  0  0  0  0  0  0  0  0
  -17.5294  -39.3345   -6.4943 C   0  0  0  0  0  0  0  0  0  0  0  0
  -17.0236  -38.5361   -7.6407 C   0  0  1  0  0  0  0  0  0  0  0  0
  -16.0885  -37.5746   -7.1365 O   0  0  0  0  0  0  0  0  0  0  0  0
  -16.4400  -39.2356   -8.8080 C   0  0  2  0  0  0  0  0  0  0  0  0
  -17.1583  -38.9458  -10.0803 C   0  0  0  0  0  0  0  0  0  0  0  0
  -16.7571  -37.6185  -10.6909 C   0  0  0  0  0  0  0  0  0  0  0  0
  -15.5677  -37.2391  -11.2401 C   0  0  0  0  0  0  0  0  0  0  0  0
  -15.4625  -35.9470  -11.7375 C   0  0  0  0  0  0  0  0  0  0  0  0
  -16.5663  -35.0762  -11.6616 C   0  0  0  0  0  0  0  0  0  0  0  0
  -17.7771  -35.4251  -11.1155 C   0  0  0  0  0  0  0  0  0  0  0  0
  -17.8361  -36.7082  -10.6388 C   0  0  0  0  0  0  0  0  0  0  0  0
  -14.3957  -35.3206  -12.3319 O   0  0  0  0  0  0  0  0  0  0  0  0
  -13.4405  -35.5144  -13.2820 C   0  0  0  0  0  0  0  0  0  0  0  0
  -13.2302  -36.9862  -13.6649 C   0  0  0  0  0  0  0  0  0  0  0  0
  -12.2145  -37.5948  -12.7585 C   0  0  0  0  0  0  0  0  0  0  0  0
  -12.3828  -39.0691  -12.4948 C   0  0  0  0  0  0  0  0  0  0  0  0
  -13.3821  -39.6895  -13.2909 N   0  0  0  0  0  0  0  0  0  0  0  0
  -14.2517  -40.6597  -12.7016 C   0  0  0  0  0  0  0  0  0  0  0  0
  -14.7749  -41.6287  -13.5687 C   0  0  0  0  0  0  0  0  0  0  0  0
  -15.6241  -42.5895  -13.0803 C   0  0  0  0  0  0  0  0  0  0  0  0
  -15.9220  -42.5483  -11.7401 C   0  0  0  0  0  0  0  0  0  0  0  0
  -15.3911  -41.5765  -10.8998 C   0  0  0  0  0  0  0  0  0  0  0  0
  -14.5753  -40.6696  -11.4149 N   0  0  0  0  0  0  0  0  0  0  0  0
  -15.7626  -41.6093   -9.4717 C   0  0  0  0  0  0  0  0  0  0  0  0
  -15.9168  -42.8019   -9.0201 O   0  0  0  0  0  0  0  0  0  0  0  0
  -15.9552  -40.5543   -8.5983 N   0  0  0  0  0  0  0  0  0  0  0  0
  1  2  1  0
  2  3  1  0
  2  4  1  0
  4  5  2  0
  5  6  1  0
  6  7  2  0
  7  8  1  0
  8  9  2  0
  6 10  1  0
 10 11  1  0
 10 12  1  0
 10 13  1  0
 13 14  1  0
 14 15  1  0
 15 16  1  1
 15 17  1  0
 17 18  1  6
 18 19  1  0
 19 20  2  0
 20 21  1  0
 21 22  2  0
 22 23  1  0
 23 24  2  0
 21 25  1  0
 25 26  1  0
 26 27  1  0
 27 28  1  0
 28 29  1  0
 29 30  1  0
 30 31  1  0
 31 32  2  0
 32 33  1  0
 33 34  2  0
 34 35  1  0
 35 36  2  0
 35 37  1  0
 37 38  2  0
 37 39  1  0
  9  4  1  0
 24 19  1  0
 36 31  1  0
 39 17  1  0
M  END
$$$$
