
     RDKit          3D

 39 42  0  0  0  0  0  0  0  0999 V2000
  -22.4967  -43.6415   -5.8396 C   0  0  0  0  0  0  0  0  0  0  0  0
  -23.2272  -42.3147   -5.6828 C   0  0  0  0  0  0  0  0  0  0  0  0
  -23.4393  -42.0350   -4.2280 C   0  0  0  0  0  0  0  0  0  0  0  0
  -22.5469  -41.2262   -6.4085 C   0  0  0  0  0  0  0  0  0  0  0  0
  -21.4493  -40.5676   -5.8780 C   0  0  0  0  0  0  0  0  0  0  0  0
  -20.8019  -39.5340   -6.5539 C   0  0  0  0  0  0  0  0  0  0  0  0
  -21.2827  -39.1763   -7.7776 C   0  0  0  0  0  0  0  0  0  0  0  0
  -22.3915  -39.8416   -8.3145 C   0  0  0  0  0  0  0  0  0  0  0  0
  -23.0192  -40.8534   -7.6434 C   0  0  0  0  0  0  0  0  0  0  0  0
  -19.6652  -38.8907   -5.9003 C   0  0  0  0  0  0  0  0  0  0  0  0
  -20.1037  -38.6158   -4.4508 C   0  0  0  0  0  0  0  0  0  0  0  0
  -18.4769  -39.8616   -5.8983 C   0  0  0  0  0  0  0  0  0  0  0  0
  -19.2466  -37.6217   -6.4225 N   0  0  0  0  0  0  0  0  0  0  0  0
  -17.8554  -37.5231   -6.6942 C   0  0  0  0  0  0  0  0  0  0  0  0
  -17.4429  -37.1911   -8.0824 C   0  0  1  0  0  0  0  0  0  0  0  0
  -16.7648  -35.9291   -8.0565 O   0  0  0  0  0  0  0  0  0  0  0  0
  -16.6447  -38.1710   -8.8538 C   0  0  2  0  0  0  0  0  0  0  0  0
  -16.8263  -38.0405  -10.3265 C   0  0  0  0  0  0  0  0  0  0  0  0
  -16.0008  -36.9181  -10.9219 C   0  0  0  0  0  0  0  0  0  0  0  0
  -14.6472  -36.8079  -11.0480 C   0  0  0  0  0  0  0  0  0  0  0  0
  -14.1396  -35.6599  -11.6416 C   0  0  0  0  0  0  0  0  0  0  0  0
  -15.0195  -34.6556  -12.0882 C   0  0  0  0  0  0  0  0  0  0  0  0
  -16.3861  -34.7340  -11.9768 C   0  0  0  0  0  0  0  0  0  0  0  0
  -16.8424  -35.8832  -11.3868 C   0  0  0  0  0  0  0  0  0  0  0  0
  -12.8373  -35.3022  -11.8868 O   0  0  0  0  0  0  0  0  0  0  0  0
  -11.6736  -35.7964  -12.3909 C   0  0  0  0  0  0  0  0  0  0  0  0
  -11.6287  -37.3290  -12.4709 C   0  0  0  0  0  0  0  0  0  0  0  0
  -11.1101  -37.8782  -11.1853 C   0  0  0  0  0  0  0  0  0  0  0  0
  -11.6319  -39.2403  -10.8058 C   0  0  0  0  0  0  0  0  0  0  0  0
  -12.4043  -39.8676  -11.8193 N   0  0  0  0  0  0  0  0  0  0  0  0
  -13.5876  -40.5861  -11.4612 C   0  0  0  0  0  0  0  0  0  0  0  0
  -13.9624  -41.6277  -12.3209 C   0  0  0  0  0  0  0  0  0  0  0  0
  -15.0913  -42.3592  -12.0497 C   0  0  0  0  0  0  0  0  0  0  0  0
  -15.8080  -42.0234  -10.9271 C   0  0  0  0  0  0  0  0  0  0  0  0
  -15.4165  -40.9853  -10.0897 C   0  0  0  0  0  0  0  0  0  0  0  0
  -14.3197  -40.3071  -10.3904 N   0  0  0  0  0  0  0  0  0  0  0  0
  -16.2446  -40.6951   -8.9028 C   0  0  0  0  0  0  0  0  0  0  0  0
  -16.7633  -41.7489   -8.3826 O   0  0  0  0  0  0  0  0  0  0  0  0
  -16.5163  -39.4763   -8.3082 N   0  0  0  0  0  0  0  0  0  0  0  0
  1  2  1  0
  2  3  1  0
  2  4  1  0
  4  5  2  0
  5  6  1  0
  6  7  2  0
  7  8  1  0
  8  9  2  0
  6 10  1  0
 10 11  1  0
 10 12  1  0
 10 13  1  0
 13 14  1  0
 14 15  1  0
 15 16  1  1
 15 17  1  0
 17 18  1  6
 18 19  1  0
 19 20  2  0
 20 21  1  0
 21 22  2  0
 22 23  1  0
 23 24  2  0
 21 25  1  0
 25 26  1  0
 26 27  1  0
 27 28  1  0
 28 29  1  0
 29 30  1  0
 30 31  1  0
 31 32  2  0
 32 33  1  0
 33 34  2  0
 34 35  1  0
 35 36  2  0
 35 37  1  0
 37 38  2  0
 37 39  1  0
  9  4  1  0
 24 19  1  0
 36 31  1  0
 39 17  1  0
M  END
$$$$
