
     RDKit          3D

 39 42  0  0  0  0  0  0  0  0999 V2000
  -22.3212  -42.6950   -4.7523 C   0  0  0  0  0  0  0  0  0  0  0  0
  -23.2127  -41.6986   -5.4810 C   0  0  0  0  0  0  0  0  0  0  0  0
  -23.9835  -40.8983   -4.4784 C   0  0  0  0  0  0  0  0  0  0  0  0
  -22.4487  -40.8800   -6.4404 C   0  0  0  0  0  0  0  0  0  0  0  0
  -21.3542  -40.1258   -6.0495 C   0  0  0  0  0  0  0  0  0  0  0  0
  -20.6280  -39.3447   -6.9478 C   0  0  0  0  0  0  0  0  0  0  0  0
  -21.0267  -39.3388   -8.2507 C   0  0  0  0  0  0  0  0  0  0  0  0
  -22.1325  -40.1011   -8.6465 C   0  0  0  0  0  0  0  0  0  0  0  0
  -22.8378  -40.8630   -7.7578 C   0  0  0  0  0  0  0  0  0  0  0  0
  -19.5017  -38.5711   -6.4323 C   0  0  0  0  0  0  0  0  0  0  0  0
  -18.8427  -37.9071   -7.6546 C   0  0  0  0  0  0  0  0  0  0  0  0
  -20.0338  -37.4856   -5.4873 C   0  0  0  0  0  0  0  0  0  0  0  0
  -18.4535  -39.3024   -5.7805 N   0  0  0  0  0  0  0  0  0  0  0  0
  -17.1796  -39.1901   -6.3999 C   0  0  0  0  0  0  0  0  0  0  0  0
  -17.0026  -39.8133   -7.7370 C   0  0  1  0  0  0  0  0  0  0  0  0
  -15.5983  -39.9762   -7.9707 O   0  0  0  0  0  0  0  0  0  0  0  0
  -17.7099  -41.0770   -8.0455 C   0  0  2  0  0  0  0  0  0  0  0  0
  -18.2660  -41.1115   -9.4270 C   0  0  0  0  0  0  0  0  0  0  0  0
  -17.2227  -41.4553  -10.4705 C   0  0  0  0  0  0  0  0  0  0  0  0
  -16.5538  -42.6257  -10.6775 C   0  0  0  0  0  0  0  0  0  0  0  0
  -15.6376  -42.6770  -11.7195 C   0  0  0  0  0  0  0  0  0  0  0  0
  -15.4246  -41.5388  -12.5204 C   0  0  0  0  0  0  0  0  0  0  0  0
  -16.0800  -40.3455  -12.3398 C   0  0  0  0  0  0  0  0  0  0  0  0
  -16.9747  -40.3407  -11.3023 C   0  0  0  0  0  0  0  0  0  0  0  0
  -14.8426  -43.7149  -12.1376 O   0  0  0  0  0  0  0  0  0  0  0  0
  -14.8896  -45.0448  -12.4231 C   0  0  0  0  0  0  0  0  0  0  0  0
  -16.1168  -45.7645  -11.8457 C   0  0  0  0  0  0  0  0  0  0  0  0
  -15.8092  -46.2420  -10.4670 C   0  0  0  0  0  0  0  0  0  0  0  0
  -16.9856  -46.3078   -9.5272 C   0  0  0  0  0  0  0  0  0  0  0  0
  -18.2394  -46.0709  -10.1511 N   0  0  0  0  0  0  0  0  0  0  0  0
  -19.2213  -45.2758   -9.4816 C   0  0  0  0  0  0  0  0  0  0  0  0
  -20.5587  -45.5442   -9.8040 C   0  0  0  0  0  0  0  0  0  0  0  0
  -21.5595  -44.8177   -9.2094 C   0  0  0  0  0  0  0  0  0  0  0  0
  -21.1885  -43.8461   -8.3123 C   0  0  0  0  0  0  0  0  0  0  0  0
  -19.8548  -43.5977   -8.0093 C   0  0  0  0  0  0  0  0  0  0  0  0
  -18.9228  -44.3241   -8.6067 N   0  0  0  0  0  0  0  0  0  0  0  0
  -19.5467  -42.5364   -7.0307 C   0  0  0  0  0  0  0  0  0  0  0  0
  -20.4220  -42.4469   -6.0948 O   0  0  0  0  0  0  0  0  0  0  0  0
  -18.4734  -41.6646   -7.0016 N   0  0  0  0  0  0  0  0  0  0  0  0
  1  2  1  0
  2  3  1  0
  2  4  1  0
  4  5  2  0
  5  6  1  0
  6  7  2  0
  7  8  1  0
  8  9  2  0
  6 10  1  0
 10 11  1  0
 10 12  1  0
 10 13  1  0
 13 14  1  0
 14 15  1  0
 15 16  1  1
 15 17  1  0
 17 18  1  6
 18 19  1  0
 19 20  2  0
 20 21  1  0
 21 22  2  0
 22 23  1  0
 23 24  2  0
 21 25  1  0
 25 26  1  0
 26 27  1  0
 27 28  1  0
 28 29  1  0
 29 30  1  0
 30 31  1  0
 31 32  2  0
 32 33  1  0
 33 34  2  0
 34 35  1  0
 35 36  2  0
 35 37  1  0
 37 38  2  0
 37 39  1  0
  9  4  1  0
 24 19  1  0
 36 31  1  0
 39 17  1  0
M  END
$$$$
