
     RDKit          3D

 39 42  0  0  0  0  0  0  0  0999 V2000
  -10.9449  -36.2333  -12.3676 C   0  0  0  0  0  0  0  0  0  0  0  0
  -12.4540  -36.1977  -12.1679 C   0  0  0  0  0  0  0  0  0  0  0  0
  -13.0775  -35.3737  -13.2505 C   0  0  0  0  0  0  0  0  0  0  0  0
  -13.0221  -37.5529  -12.0450 C   0  0  0  0  0  0  0  0  0  0  0  0
  -13.1915  -38.1662  -10.8142 C   0  0  0  0  0  0  0  0  0  0  0  0
  -13.7232  -39.4490  -10.6875 C   0  0  0  0  0  0  0  0  0  0  0  0
  -14.0823  -40.1031  -11.8276 C   0  0  0  0  0  0  0  0  0  0  0  0
  -13.9118  -39.4838  -13.0717 C   0  0  0  0  0  0  0  0  0  0  0  0
  -13.3892  -38.2260  -13.1849 C   0  0  0  0  0  0  0  0  0  0  0  0
  -13.8433  -40.0144   -9.3463 C   0  0  0  0  0  0  0  0  0  0  0  0
  -14.7018  -41.2836   -9.4916 C   0  0  0  0  0  0  0  0  0  0  0  0
  -12.4464  -40.3987   -8.8408 C   0  0  0  0  0  0  0  0  0  0  0  0
  -14.5068  -39.2126   -8.3587 N   0  0  0  0  0  0  0  0  0  0  0  0
  -15.8028  -38.7656   -8.7323 C   0  0  0  0  0  0  0  0  0  0  0  0
  -16.9315  -39.0711   -7.8157 C   0  0  1  0  0  0  0  0  0  0  0  0
  -17.8528  -37.9747   -7.8617 O   0  0  0  0  0  0  0  0  0  0  0  0
  -17.6659  -40.3472   -7.9727 C   0  0  2  0  0  0  0  0  0  0  0  0
  -18.5483  -40.6585   -6.8138 C   0  0  0  0  0  0  0  0  0  0  0  0
  -19.8645  -39.9096   -6.8613 C   0  0  0  0  0  0  0  0  0  0  0  0
  -20.9077  -40.0407   -7.7301 C   0  0  0  0  0  0  0  0  0  0  0  0
  -22.0139  -39.2213   -7.5484 C   0  0  0  0  0  0  0  0  0  0  0  0
  -22.0292  -38.2910   -6.4917 C   0  0  0  0  0  0  0  0  0  0  0  0
  -20.9971  -38.1327   -5.5997 C   0  0  0  0  0  0  0  0  0  0  0  0
  -19.9279  -38.9617   -5.8158 C   0  0  0  0  0  0  0  0  0  0  0  0
  -23.1797  -39.1499   -8.2691 O   0  0  0  0  0  0  0  0  0  0  0  0
  -24.1456  -39.9391   -8.8139 C   0  0  0  0  0  0  0  0  0  0  0  0
  -23.7340  -41.4096   -8.9734 C   0  0  0  0  0  0  0  0  0  0  0  0
  -23.0692  -41.5986  -10.2947 C   0  0  0  0  0  0  0  0  0  0  0  0
  -22.0244  -42.6837  -10.3444 C   0  0  0  0  0  0  0  0  0  0  0  0
  -21.9578  -43.4780   -9.1688 N   0  0  0  0  0  0  0  0  0  0  0  0
  -20.6828  -43.8701   -8.6539 C   0  0  0  0  0  0  0  0  0  0  0  0
  -20.6536  -45.0626   -7.9179 C   0  0  0  0  0  0  0  0  0  0  0  0
  -19.4684  -45.5019   -7.3836 C   0  0  0  0  0  0  0  0  0  0  0  0
  -18.3519  -44.7327   -7.6033 C   0  0  0  0  0  0  0  0  0  0  0  0
  -18.4061  -43.5528   -8.3362 C   0  0  0  0  0  0  0  0  0  0  0  0
  -19.5714  -43.1682   -8.8336 N   0  0  0  0  0  0  0  0  0  0  0  0
  -17.1566  -42.7903   -8.5258 C   0  0  0  0  0  0  0  0  0  0  0  0
  -16.1213  -43.5425   -8.6379 O   0  0  0  0  0  0  0  0  0  0  0  0
  -16.9750  -41.4210   -8.5954 N   0  0  0  0  0  0  0  0  0  0  0  0
  1  2  1  0
  2  3  1  0
  2  4  1  0
  4  5  2  0
  5  6  1  0
  6  7  2  0
  7  8  1  0
  8  9  2  0
  6 10  1  0
 10 11  1  0
 10 12  1  0
 10 13  1  0
 13 14  1  0
 14 15  1  0
 15 16  1  6
 15 17  1  0
 17 18  1  1
 18 19  1  0
 19 20  2  0
 20 21  1  0
 21 22  2  0
 22 23  1  0
 23 24  2  0
 21 25  1  0
 25 26  1  0
 26 27  1  0
 27 28  1  0
 28 29  1  0
 29 30  1  0
 30 31  1  0
 31 32  2  0
 32 33  1  0
 33 34  2  0
 34 35  1  0
 35 36  2  0
 35 37  1  0
 37 38  2  0
 37 39  1  0
  9  4  1  0
 24 19  1  0
 36 31  1  0
 39 17  1  0
M  END
$$$$
