
     RDKit          3D

 39 42  0  0  0  0  0  0  0  0999 V2000
  -10.6246  -36.0719  -10.4284 C   0  0  0  0  0  0  0  0  0  0  0  0
  -11.2479  -36.4456  -11.7665 C   0  0  0  0  0  0  0  0  0  0  0  0
  -10.9299  -37.8742  -12.0792 C   0  0  0  0  0  0  0  0  0  0  0  0
  -12.6878  -36.1305  -11.8067 C   0  0  0  0  0  0  0  0  0  0  0  0
  -13.6433  -37.0124  -11.3281 C   0  0  0  0  0  0  0  0  0  0  0  0
  -15.0074  -36.7259  -11.3659 C   0  0  0  0  0  0  0  0  0  0  0  0
  -15.3910  -35.5307  -11.8960 C   0  0  0  0  0  0  0  0  0  0  0  0
  -14.4259  -34.6389  -12.3794 C   0  0  0  0  0  0  0  0  0  0  0  0
  -13.0911  -34.9296  -12.3381 C   0  0  0  0  0  0  0  0  0  0  0  0
  -15.9355  -37.7304  -10.8535 C   0  0  0  0  0  0  0  0  0  0  0  0
  -17.3116  -37.0446  -10.7802 C   0  0  0  0  0  0  0  0  0  0  0  0
  -16.0008  -38.9000  -11.8445 C   0  0  0  0  0  0  0  0  0  0  0  0
  -15.6863  -38.2339   -9.5333 N   0  0  0  0  0  0  0  0  0  0  0  0
  -16.3631  -37.5369   -8.4964 C   0  0  0  0  0  0  0  0  0  0  0  0
  -17.0872  -38.3421   -7.4791 C   0  0  1  0  0  0  0  0  0  0  0  0
  -18.0896  -37.5100   -6.8825 O   0  0  0  0  0  0  0  0  0  0  0  0
  -17.6844  -39.6384   -7.8735 C   0  0  2  0  0  0  0  0  0  0  0  0
  -17.8953  -40.5579   -6.7208 C   0  0  0  0  0  0  0  0  0  0  0  0
  -19.1491  -40.2339   -5.9342 C   0  0  0  0  0  0  0  0  0  0  0  0
  -20.4579  -40.3444   -6.3015 C   0  0  0  0  0  0  0  0  0  0  0  0
  -21.4272  -39.9771   -5.3776 C   0  0  0  0  0  0  0  0  0  0  0  0
  -21.0407  -39.5061   -4.1083 C   0  0  0  0  0  0  0  0  0  0  0  0
  -19.7335  -39.3822   -3.7060 C   0  0  0  0  0  0  0  0  0  0  0  0
  -18.8119  -39.7566   -4.6480 C   0  0  0  0  0  0  0  0  0  0  0  0
  -22.7950  -39.9903   -5.4898 O   0  0  0  0  0  0  0  0  0  0  0  0
  -23.8224  -40.7811   -5.9040 C   0  0  0  0  0  0  0  0  0  0  0  0
  -23.3923  -41.9334   -6.8229 C   0  0  0  0  0  0  0  0  0  0  0  0
  -23.4002  -41.4682   -8.2395 C   0  0  0  0  0  0  0  0  0  0  0  0
  -22.3984  -42.1363   -9.1459 C   0  0  0  0  0  0  0  0  0  0  0  0
  -21.7191  -43.2323   -8.5504 N   0  0  0  0  0  0  0  0  0  0  0  0
  -20.3195  -43.4067   -8.7858 C   0  0  0  0  0  0  0  0  0  0  0  0
  -19.8383  -44.7208   -8.7064 C   0  0  0  0  0  0  0  0  0  0  0  0
  -18.5045  -44.9691   -8.9119 C   0  0  0  0  0  0  0  0  0  0  0  0
  -17.6963  -43.8937   -9.1894 C   0  0  0  0  0  0  0  0  0  0  0  0
  -18.1968  -42.5990   -9.2621 C   0  0  0  0  0  0  0  0  0  0  0  0
  -19.4909  -42.4068   -9.0576 N   0  0  0  0  0  0  0  0  0  0  0  0
  -17.2570  -41.5030   -9.5690 C   0  0  0  0  0  0  0  0  0  0  0  0
  -16.3244  -41.8533  -10.3799 O   0  0  0  0  0  0  0  0  0  0  0  0
  -17.2608  -40.1989   -9.1082 N   0  0  0  0  0  0  0  0  0  0  0  0
  1  2  1  0
  2  3  1  0
  2  4  1  0
  4  5  2  0
  5  6  1  0
  6  7  2  0
  7  8  1  0
  8  9  2  0
  6 10  1  0
 10 11  1  0
 10 12  1  0
 10 13  1  0
 13 14  1  0
 14 15  1  0
 15 16  1  6
 15 17  1  0
 17 18  1  1
 18 19  1  0
 19 20  2  0
 20 21  1  0
 21 22  2  0
 22 23  1  0
 23 24  2  0
 21 25  1  0
 25 26  1  0
 26 27  1  0
 27 28  1  0
 28 29  1  0
 29 30  1  0
 30 31  1  0
 31 32  2  0
 32 33  1  0
 33 34  2  0
 34 35  1  0
 35 36  2  0
 35 37  1  0
 37 38  2  0
 37 39  1  0
  9  4  1  0
 24 19  1  0
 36 31  1  0
 39 17  1  0
M  END
$$$$
