
     RDKit          3D

 39 42  0  0  0  0  0  0  0  0999 V2000
  -23.3517  -43.5320   -8.4591 C   0  0  0  0  0  0  0  0  0  0  0  0
  -23.5158  -42.2182   -7.7072 C   0  0  0  0  0  0  0  0  0  0  0  0
  -24.6130  -42.3584   -6.6990 C   0  0  0  0  0  0  0  0  0  0  0  0
  -22.2383  -41.7487   -7.1399 C   0  0  0  0  0  0  0  0  0  0  0  0
  -21.8006  -40.4444   -7.3038 C   0  0  0  0  0  0  0  0  0  0  0  0
  -20.5920  -39.9919   -6.7756 C   0  0  0  0  0  0  0  0  0  0  0  0
  -19.8317  -40.8809   -6.0769 C   0  0  0  0  0  0  0  0  0  0  0  0
  -20.2736  -42.1990   -5.9106 C   0  0  0  0  0  0  0  0  0  0  0  0
  -21.4598  -42.6326   -6.4329 C   0  0  0  0  0  0  0  0  0  0  0  0
  -20.2115  -38.6033   -7.0204 C   0  0  0  0  0  0  0  0  0  0  0  0
  -19.6290  -38.5633   -8.4446 C   0  0  0  0  0  0  0  0  0  0  0  0
  -21.4675  -37.7241   -6.9582 C   0  0  0  0  0  0  0  0  0  0  0  0
  -19.1951  -38.0478   -6.1738 N   0  0  0  0  0  0  0  0  0  0  0  0
  -17.9051  -38.6185   -6.3447 C   0  0  0  0  0  0  0  0  0  0  0  0
  -17.1472  -38.2617   -7.5718 C   0  0  1  0  0  0  0  0  0  0  0  0
  -15.8362  -37.8375   -7.1787 O   0  0  0  0  0  0  0  0  0  0  0  0
  -17.0440  -39.2483   -8.6710 C   0  0  2  0  0  0  0  0  0  0  0  0
  -17.1720  -38.6325  -10.0212 C   0  0  0  0  0  0  0  0  0  0  0  0
  -15.8857  -37.9878  -10.4959 C   0  0  0  0  0  0  0  0  0  0  0  0
  -14.6990  -38.5663  -10.8385 C   0  0  0  0  0  0  0  0  0  0  0  0
  -13.6639  -37.7365  -11.2481 C   0  0  0  0  0  0  0  0  0  0  0  0
  -13.8616  -36.3433  -11.2964 C   0  0  0  0  0  0  0  0  0  0  0  0
  -15.0421  -35.7282  -10.9586 C   0  0  0  0  0  0  0  0  0  0  0  0
  -16.0351  -36.5846  -10.5620 C   0  0  0  0  0  0  0  0  0  0  0  0
  -12.3881  -38.0551  -11.6413 O   0  0  0  0  0  0  0  0  0  0  0  0
  -11.7042  -38.9156  -12.4442 C   0  0  0  0  0  0  0  0  0  0  0  0
  -12.5111  -40.1521  -12.8648 C   0  0  0  0  0  0  0  0  0  0  0  0
  -12.3379  -41.2279  -11.8469 C   0  0  0  0  0  0  0  0  0  0  0  0
  -13.5094  -42.1625  -11.6869 C   0  0  0  0  0  0  0  0  0  0  0  0
  -14.5320  -41.9806  -12.6557 N   0  0  0  0  0  0  0  0  0  0  0  0
  -15.9030  -42.0466  -12.2549 C   0  0  0  0  0  0  0  0  0  0  0  0
  -16.8161  -42.4488  -13.2393 C   0  0  0  0  0  0  0  0  0  0  0  0
  -18.1517  -42.5290  -12.9345 C   0  0  0  0  0  0  0  0  0  0  0  0
  -18.5291  -42.2033  -11.6547 C   0  0  0  0  0  0  0  0  0  0  0  0
  -17.6047  -41.8063  -10.6955 C   0  0  0  0  0  0  0  0  0  0  0  0
  -16.3261  -41.7442  -11.0344 N   0  0  0  0  0  0  0  0  0  0  0  0
  -18.0980  -41.4778   -9.3437 C   0  0  0  0  0  0  0  0  0  0  0  0
  -19.0930  -42.2051   -8.9817 O   0  0  0  0  0  0  0  0  0  0  0  0
  -17.6360  -40.5219   -8.4573 N   0  0  0  0  0  0  0  0  0  0  0  0
  1  2  1  0
  2  3  1  0
  2  4  1  0
  4  5  2  0
  5  6  1  0
  6  7  2  0
  7  8  1  0
  8  9  2  0
  6 10  1  0
 10 11  1  0
 10 12  1  0
 10 13  1  0
 13 14  1  0
 14 15  1  0
 15 16  1  1
 15 17  1  0
 17 18  1  6
 18 19  1  0
 19 20  2  0
 20 21  1  0
 21 22  2  0
 22 23  1  0
 23 24  2  0
 21 25  1  0
 25 26  1  0
 26 27  1  0
 27 28  1  0
 28 29  1  0
 29 30  1  0
 30 31  1  0
 31 32  2  0
 32 33  1  0
 33 34  2  0
 34 35  1  0
 35 36  2  0
 35 37  1  0
 37 38  2  0
 37 39  1  0
  9  4  1  0
 24 19  1  0
 36 31  1  0
 39 17  1  0
M  END
$$$$
