
     RDKit          3D

 39 42  0  0  0  0  0  0  0  0999 V2000
  -24.5042  -40.6831   -5.4935 C   0  0  0  0  0  0  0  0  0  0  0  0
  -23.6033  -41.5651   -6.3473 C   0  0  0  0  0  0  0  0  0  0  0  0
  -24.4440  -42.5409   -7.1095 C   0  0  0  0  0  0  0  0  0  0  0  0
  -22.6980  -40.7662   -7.1937 C   0  0  0  0  0  0  0  0  0  0  0  0
  -21.6085  -40.0919   -6.6662 C   0  0  0  0  0  0  0  0  0  0  0  0
  -20.7493  -39.3300   -7.4572 C   0  0  0  0  0  0  0  0  0  0  0  0
  -21.0094  -39.2610   -8.7929 C   0  0  0  0  0  0  0  0  0  0  0  0
  -22.1099  -39.9424   -9.3266 C   0  0  0  0  0  0  0  0  0  0  0  0
  -22.9464  -40.6862   -8.5424 C   0  0  0  0  0  0  0  0  0  0  0  0
  -19.6402  -38.6420   -6.8019 C   0  0  0  0  0  0  0  0  0  0  0  0
  -20.2757  -37.6677   -5.7940 C   0  0  0  0  0  0  0  0  0  0  0  0
  -18.7900  -39.6731   -6.0479 C   0  0  0  0  0  0  0  0  0  0  0  0
  -18.7918  -37.8365   -7.6325 N   0  0  0  0  0  0  0  0  0  0  0  0
  -17.4055  -37.9385   -7.3381 C   0  0  0  0  0  0  0  0  0  0  0  0
  -16.4908  -38.3336   -8.4402 C   0  0  1  0  0  0  0  0  0  0  0  0
  -15.1832  -37.8330   -8.1358 O   0  0  0  0  0  0  0  0  0  0  0  0
  -16.4013  -39.7592   -8.8301 C   0  0  2  0  0  0  0  0  0  0  0  0
  -16.1683  -39.9513  -10.2887 C   0  0  0  0  0  0  0  0  0  0  0  0
  -14.7163  -39.7660  -10.6799 C   0  0  0  0  0  0  0  0  0  0  0  0
  -13.6298  -40.5317  -10.3742 C   0  0  0  0  0  0  0  0  0  0  0  0
  -12.3939  -40.1356  -10.8677 C   0  0  0  0  0  0  0  0  0  0  0  0
  -12.2953  -38.9727  -11.6554 C   0  0  0  0  0  0  0  0  0  0  0  0
  -13.3676  -38.1792  -11.9818 C   0  0  0  0  0  0  0  0  0  0  0  0
  -14.5661  -38.6081  -11.4751 C   0  0  0  0  0  0  0  0  0  0  0  0
  -11.1604  -40.7168  -10.7117 O   0  0  0  0  0  0  0  0  0  0  0  0
  -10.5364  -41.9249  -10.7728 C   0  0  0  0  0  0  0  0  0  0  0  0
  -11.4915  -43.1251  -10.7054 C   0  0  0  0  0  0  0  0  0  0  0  0
  -11.7164  -43.5012   -9.2802 C   0  0  0  0  0  0  0  0  0  0  0  0
  -13.0620  -44.1077   -8.9752 C   0  0  0  0  0  0  0  0  0  0  0  0
  -13.8448  -44.3892  -10.1265 N   0  0  0  0  0  0  0  0  0  0  0  0
  -15.2490  -44.1200  -10.1077 C   0  0  0  0  0  0  0  0  0  0  0  0
  -16.0413  -44.9102  -10.9518 C   0  0  0  0  0  0  0  0  0  0  0  0
  -17.3977  -44.7071  -10.9964 C   0  0  0  0  0  0  0  0  0  0  0  0
  -17.9160  -43.7193  -10.1951 C   0  0  0  0  0  0  0  0  0  0  0  0
  -17.1095  -42.9477   -9.3666 C   0  0  0  0  0  0  0  0  0  0  0  0
  -15.8059  -43.1797   -9.3555 N   0  0  0  0  0  0  0  0  0  0  0  0
  -17.7515  -41.9097   -8.5364 C   0  0  0  0  0  0  0  0  0  0  0  0
  -18.9198  -42.2483   -8.1236 O   0  0  0  0  0  0  0  0  0  0  0  0
  -17.2656  -40.6693   -8.1647 N   0  0  0  0  0  0  0  0  0  0  0  0
  1  2  1  0
  2  3  1  0
  2  4  1  0
  4  5  2  0
  5  6  1  0
  6  7  2  0
  7  8  1  0
  8  9  2  0
  6 10  1  0
 10 11  1  0
 10 12  1  0
 10 13  1  0
 13 14  1  0
 14 15  1  0
 15 16  1  1
 15 17  1  0
 17 18  1  6
 18 19  1  0
 19 20  2  0
 20 21  1  0
 21 22  2  0
 22 23  1  0
 23 24  2  0
 21 25  1  0
 25 26  1  0
 26 27  1  0
 27 28  1  0
 28 29  1  0
 29 30  1  0
 30 31  1  0
 31 32  2  0
 32 33  1  0
 33 34  2  0
 34 35  1  0
 35 36  2  0
 35 37  1  0
 37 38  2  0
 37 39  1  0
  9  4  1  0
 24 19  1  0
 36 31  1  0
 39 17  1  0
M  END
$$$$
