
     RDKit          3D

 39 42  0  0  0  0  0  0  0  0999 V2000
  -21.1713  -41.7566   -3.2632 C   0  0  0  0  0  0  0  0  0  0  0  0
  -22.4489  -41.1525   -3.8300 C   0  0  0  0  0  0  0  0  0  0  0  0
  -22.7754  -39.8961   -3.0852 C   0  0  0  0  0  0  0  0  0  0  0  0
  -22.3703  -40.9783   -5.2921 C   0  0  0  0  0  0  0  0  0  0  0  0
  -21.3303  -40.2863   -5.8914 C   0  0  0  0  0  0  0  0  0  0  0  0
  -21.2493  -40.1118   -7.2725 C   0  0  0  0  0  0  0  0  0  0  0  0
  -22.2385  -40.6498   -8.0397 C   0  0  0  0  0  0  0  0  0  0  0  0
  -23.2896  -41.3495   -7.4347 C   0  0  0  0  0  0  0  0  0  0  0  0
  -23.3598  -41.5144   -6.0798 C   0  0  0  0  0  0  0  0  0  0  0  0
  -20.1226  -39.3500   -7.8046 C   0  0  0  0  0  0  0  0  0  0  0  0
  -20.1939  -39.4923   -9.3355 C   0  0  0  0  0  0  0  0  0  0  0  0
  -20.2937  -37.8741   -7.4211 C   0  0  0  0  0  0  0  0  0  0  0  0
  -18.8075  -39.7911   -7.4384 N   0  0  0  0  0  0  0  0  0  0  0  0
  -17.9353  -38.7565   -7.0049 C   0  0  0  0  0  0  0  0  0  0  0  0
  -16.8860  -38.2941   -7.9497 C   0  0  1  0  0  0  0  0  0  0  0  0
  -15.8970  -37.5763   -7.2015 O   0  0  0  0  0  0  0  0  0  0  0  0
  -16.2245  -39.2796   -8.8349 C   0  0  2  0  0  0  0  0  0  0  0  0
  -16.5980  -39.1192  -10.2679 C   0  0  0  0  0  0  0  0  0  0  0  0
  -15.8303  -38.0071  -10.9530 C   0  0  0  0  0  0  0  0  0  0  0  0
  -14.5033  -37.9278  -11.2581 C   0  0  0  0  0  0  0  0  0  0  0  0
  -14.0494  -36.7823  -11.8984 C   0  0  0  0  0  0  0  0  0  0  0  0
  -14.9544  -35.7493  -12.2089 C   0  0  0  0  0  0  0  0  0  0  0  0
  -16.2953  -35.7963  -11.9161 C   0  0  0  0  0  0  0  0  0  0  0  0
  -16.6989  -36.9441  -11.2863 C   0  0  0  0  0  0  0  0  0  0  0  0
  -12.7828  -36.4523  -12.3113 O   0  0  0  0  0  0  0  0  0  0  0  0
  -11.7105  -36.9659  -12.9739 C   0  0  0  0  0  0  0  0  0  0  0  0
  -11.7173  -38.4974  -13.0805 C   0  0  0  0  0  0  0  0  0  0  0  0
  -11.0459  -39.0814  -11.8839 C   0  0  0  0  0  0  0  0  0  0  0  0
  -11.5482  -40.4367  -11.4568 C   0  0  0  0  0  0  0  0  0  0  0  0
  -12.4656  -41.0274  -12.3661 N   0  0  0  0  0  0  0  0  0  0  0  0
  -13.6089  -41.7229  -11.8624 C   0  0  0  0  0  0  0  0  0  0  0  0
  -14.1229  -42.7400  -12.6785 C   0  0  0  0  0  0  0  0  0  0  0  0
  -15.2243  -43.4483  -12.2683 C   0  0  0  0  0  0  0  0  0  0  0  0
  -15.7751  -43.1147  -11.0551 C   0  0  0  0  0  0  0  0  0  0  0  0
  -15.2477  -42.1011  -10.2635 C   0  0  0  0  0  0  0  0  0  0  0  0
  -14.1834  -41.4448  -10.6993 N   0  0  0  0  0  0  0  0  0  0  0  0
  -15.9015  -41.8116   -8.9722 C   0  0  0  0  0  0  0  0  0  0  0  0
  -16.3736  -42.8612   -8.4018 O   0  0  0  0  0  0  0  0  0  0  0  0
  -16.0588  -40.5969   -8.3297 N   0  0  0  0  0  0  0  0  0  0  0  0
  1  2  1  0
  2  3  1  0
  2  4  1  0
  4  5  2  0
  5  6  1  0
  6  7  2  0
  7  8  1  0
  8  9  2  0
  6 10  1  0
 10 11  1  0
 10 12  1  0
 10 13  1  0
 13 14  1  0
 14 15  1  0
 15 16  1  1
 15 17  1  0
 17 18  1  6
 18 19  1  0
 19 20  2  0
 20 21  1  0
 21 22  2  0
 22 23  1  0
 23 24  2  0
 21 25  1  0
 25 26  1  0
 26 27  1  0
 27 28  1  0
 28 29  1  0
 29 30  1  0
 30 31  1  0
 31 32  2  0
 32 33  1  0
 33 34  2  0
 34 35  1  0
 35 36  2  0
 35 37  1  0
 37 38  2  0
 37 39  1  0
  9  4  1  0
 24 19  1  0
 36 31  1  0
 39 17  1  0
M  END
$$$$
