
     RDKit          3D

 39 42  0  0  0  0  0  0  0  0999 V2000
  -12.8853  -35.4460  -12.8988 C   0  0  0  0  0  0  0  0  0  0  0  0
  -13.9864  -36.0519  -12.0391 C   0  0  0  0  0  0  0  0  0  0  0  0
  -15.3177  -35.5825  -12.5363 C   0  0  0  0  0  0  0  0  0  0  0  0
  -13.8650  -37.5185  -11.9475 C   0  0  0  0  0  0  0  0  0  0  0  0
  -13.7189  -38.1659  -10.7312 C   0  0  0  0  0  0  0  0  0  0  0  0
  -13.5984  -39.5517  -10.6342 C   0  0  0  0  0  0  0  0  0  0  0  0
  -13.6288  -40.2742  -11.7890 C   0  0  0  0  0  0  0  0  0  0  0  0
  -13.7769  -39.6208  -13.0184 C   0  0  0  0  0  0  0  0  0  0  0  0
  -13.8936  -38.2616  -13.1025 C   0  0  0  0  0  0  0  0  0  0  0  0
  -13.4294  -40.1361   -9.3065 C   0  0  0  0  0  0  0  0  0  0  0  0
  -12.9599  -41.5845   -9.5324 C   0  0  0  0  0  0  0  0  0  0  0  0
  -12.3408  -39.3585   -8.5549 C   0  0  0  0  0  0  0  0  0  0  0  0
  -14.6013  -40.2357   -8.4849 N   0  0  0  0  0  0  0  0  0  0  0  0
  -15.2267  -38.9937   -8.1926 C   0  0  0  0  0  0  0  0  0  0  0  0
  -16.5937  -39.0267   -7.6116 C   0  0  1  0  0  0  0  0  0  0  0  0
  -17.3419  -37.9396   -8.1697 O   0  0  0  0  0  0  0  0  0  0  0  0
  -17.3864  -40.2744   -7.6975 C   0  0  2  0  0  0  0  0  0  0  0  0
  -18.3867  -40.4063   -6.6016 C   0  0  0  0  0  0  0  0  0  0  0  0
  -19.6458  -39.6034   -6.8575 C   0  0  0  0  0  0  0  0  0  0  0  0
  -20.6126  -39.7815   -7.8029 C   0  0  0  0  0  0  0  0  0  0  0  0
  -21.6793  -38.8928   -7.8195 C   0  0  0  0  0  0  0  0  0  0  0  0
  -21.7337  -37.8476   -6.8777 C   0  0  0  0  0  0  0  0  0  0  0  0
  -20.7784  -37.6393   -5.9133 C   0  0  0  0  0  0  0  0  0  0  0  0
  -19.7459  -38.5397   -5.9333 C   0  0  0  0  0  0  0  0  0  0  0  0
  -22.7692  -38.8469   -8.6524 O   0  0  0  0  0  0  0  0  0  0  0  0
  -23.7278  -39.6446   -9.1977 C   0  0  0  0  0  0  0  0  0  0  0  0
  -23.3927  -41.1423   -9.1545 C   0  0  0  0  0  0  0  0  0  0  0  0
  -22.6243  -41.5146  -10.3769 C   0  0  0  0  0  0  0  0  0  0  0  0
  -21.6465  -42.6487  -10.2066 C   0  0  0  0  0  0  0  0  0  0  0  0
  -21.7338  -43.3050   -8.9499 N   0  0  0  0  0  0  0  0  0  0  0  0
  -20.5362  -43.6981   -8.2748 C   0  0  0  0  0  0  0  0  0  0  0  0
  -20.6451  -44.7981   -7.4130 C   0  0  0  0  0  0  0  0  0  0  0  0
  -19.5413  -45.2314   -6.7223 C   0  0  0  0  0  0  0  0  0  0  0  0
  -18.3654  -44.5489   -6.9166 C   0  0  0  0  0  0  0  0  0  0  0  0
  -18.2824  -43.4598   -7.7764 C   0  0  0  0  0  0  0  0  0  0  0  0
  -19.3730  -43.0775   -8.4228 N   0  0  0  0  0  0  0  0  0  0  0  0
  -16.9773  -42.7871   -7.9275 C   0  0  0  0  0  0  0  0  0  0  0  0
  -15.9832  -43.5976   -7.8563 O   0  0  0  0  0  0  0  0  0  0  0  0
  -16.7081  -41.4455   -8.1292 N   0  0  0  0  0  0  0  0  0  0  0  0
  1  2  1  0
  2  3  1  0
  2  4  1  0
  4  5  2  0
  5  6  1  0
  6  7  2  0
  7  8  1  0
  8  9  2  0
  6 10  1  0
 10 11  1  0
 10 12  1  0
 10 13  1  0
 13 14  1  0
 14 15  1  0
 15 16  1  6
 15 17  1  0
 17 18  1  1
 18 19  1  0
 19 20  2  0
 20 21  1  0
 21 22  2  0
 22 23  1  0
 23 24  2  0
 21 25  1  0
 25 26  1  0
 26 27  1  0
 27 28  1  0
 28 29  1  0
 29 30  1  0
 30 31  1  0
 31 32  2  0
 32 33  1  0
 33 34  2  0
 34 35  1  0
 35 36  2  0
 35 37  1  0
 37 38  2  0
 37 39  1  0
  9  4  1  0
 24 19  1  0
 36 31  1  0
 39 17  1  0
M  END
$$$$
