
     RDKit          3D

 39 42  0  0  0  0  0  0  0  0999 V2000
  -13.8629  -42.7472   -8.9069 C   0  0  0  0  0  0  0  0  0  0  0  0
  -12.8185  -41.6392   -8.9014 C   0  0  0  0  0  0  0  0  0  0  0  0
  -11.4623  -42.2379   -8.6962 C   0  0  0  0  0  0  0  0  0  0  0  0
  -12.9204  -40.7847  -10.0988 C   0  0  0  0  0  0  0  0  0  0  0  0
  -13.6384  -39.5997  -10.0928 C   0  0  0  0  0  0  0  0  0  0  0  0
  -13.7450  -38.7871  -11.2210 C   0  0  0  0  0  0  0  0  0  0  0  0
  -13.1121  -39.1923  -12.3576 C   0  0  0  0  0  0  0  0  0  0  0  0
  -12.3860  -40.3895  -12.3642 C   0  0  0  0  0  0  0  0  0  0  0  0
  -12.2882  -41.1790  -11.2529 C   0  0  0  0  0  0  0  0  0  0  0  0
  -14.5411  -37.5672  -11.1172 C   0  0  0  0  0  0  0  0  0  0  0  0
  -13.8577  -36.6995  -10.0452 C   0  0  0  0  0  0  0  0  0  0  0  0
  -14.5071  -36.8339  -12.4646 C   0  0  0  0  0  0  0  0  0  0  0  0
  -15.9013  -37.7122  -10.6844 N   0  0  0  0  0  0  0  0  0  0  0  0
  -16.1773  -37.1608   -9.4043 C   0  0  0  0  0  0  0  0  0  0  0  0
  -16.5643  -38.0958   -8.3164 C   0  0  1  0  0  0  0  0  0  0  0  0
  -17.3384  -37.3668   -7.3560 O   0  0  0  0  0  0  0  0  0  0  0  0
  -17.2563  -39.3589   -8.6602 C   0  0  2  0  0  0  0  0  0  0  0  0
  -17.7406  -40.1026   -7.4640 C   0  0  0  0  0  0  0  0  0  0  0  0
  -19.0427  -39.5522   -6.9188 C   0  0  0  0  0  0  0  0  0  0  0  0
  -20.2900  -39.5656   -7.4703 C   0  0  0  0  0  0  0  0  0  0  0  0
  -21.3267  -38.9862   -6.7509 C   0  0  0  0  0  0  0  0  0  0  0  0
  -21.0678  -38.4079   -5.4935 C   0  0  0  0  0  0  0  0  0  0  0  0
  -19.8253  -38.3767   -4.9094 C   0  0  0  0  0  0  0  0  0  0  0  0
  -18.8337  -38.9603   -5.6533 C   0  0  0  0  0  0  0  0  0  0  0  0
  -22.6560  -38.8660   -7.0710 O   0  0  0  0  0  0  0  0  0  0  0  0
  -23.7049  -39.5866   -7.5537 C   0  0  0  0  0  0  0  0  0  0  0  0
  -23.2961  -40.8821   -8.2691 C   0  0  0  0  0  0  0  0  0  0  0  0
  -23.0461  -40.5953   -9.7109 C   0  0  0  0  0  0  0  0  0  0  0  0
  -22.0173  -41.4729  -10.3766 C   0  0  0  0  0  0  0  0  0  0  0  0
  -21.5704  -42.5544   -9.5716 N   0  0  0  0  0  0  0  0  0  0  0  0
  -20.1843  -42.9055   -9.5684 C   0  0  0  0  0  0  0  0  0  0  0  0
  -19.8863  -44.2441   -9.2783 C   0  0  0  0  0  0  0  0  0  0  0  0
  -18.5782  -44.6574   -9.2480 C   0  0  0  0  0  0  0  0  0  0  0  0
  -17.6116  -43.7170   -9.5086 C   0  0  0  0  0  0  0  0  0  0  0  0
  -17.9318  -42.3947   -9.7931 C   0  0  0  0  0  0  0  0  0  0  0  0
  -19.2078  -42.0412   -9.8122 N   0  0  0  0  0  0  0  0  0  0  0  0
  -16.8291  -41.4517  -10.0643 C   0  0  0  0  0  0  0  0  0  0  0  0
  -15.8423  -41.9967  -10.6802 O   0  0  0  0  0  0  0  0  0  0  0  0
  -16.7357  -40.1083   -9.7490 N   0  0  0  0  0  0  0  0  0  0  0  0
  1  2  1  0
  2  3  1  0
  2  4  1  0
  4  5  2  0
  5  6  1  0
  6  7  2  0
  7  8  1  0
  8  9  2  0
  6 10  1  0
 10 11  1  0
 10 12  1  0
 10 13  1  0
 13 14  1  0
 14 15  1  0
 15 16  1  1
 15 17  1  0
 17 18  1  1
 18 19  1  0
 19 20  2  0
 20 21  1  0
 21 22  2  0
 22 23  1  0
 23 24  2  0
 21 25  1  0
 25 26  1  0
 26 27  1  0
 27 28  1  0
 28 29  1  0
 29 30  1  0
 30 31  1  0
 31 32  2  0
 32 33  1  0
 33 34  2  0
 34 35  1  0
 35 36  2  0
 35 37  1  0
 37 38  2  0
 37 39  1  0
  9  4  1  0
 24 19  1  0
 36 31  1  0
 39 17  1  0
M  END
$$$$
