
     RDKit          3D

 39 42  0  0  0  0  0  0  0  0999 V2000
  -21.0442  -37.2599   -9.0755 C   0  0  0  0  0  0  0  0  0  0  0  0
  -19.8376  -36.4997   -9.6091 C   0  0  0  0  0  0  0  0  0  0  0  0
  -20.1317  -35.0324   -9.5969 C   0  0  0  0  0  0  0  0  0  0  0  0
  -18.5999  -36.8679   -8.8972 C   0  0  0  0  0  0  0  0  0  0  0  0
  -17.5080  -37.4062   -9.5588 C   0  0  0  0  0  0  0  0  0  0  0  0
  -16.3350  -37.7621   -8.8941 C   0  0  0  0  0  0  0  0  0  0  0  0
  -16.2832  -37.5640   -7.5470 C   0  0  0  0  0  0  0  0  0  0  0  0
  -17.3861  -37.0197   -6.8779 C   0  0  0  0  0  0  0  0  0  0  0  0
  -18.5315  -36.6746   -7.5388 C   0  0  0  0  0  0  0  0  0  0  0  0
  -15.2477  -38.3398   -9.6796 C   0  0  0  0  0  0  0  0  0  0  0  0
  -14.3180  -37.1702  -10.0496 C   0  0  0  0  0  0  0  0  0  0  0  0
  -14.4819  -39.3437   -8.8076 C   0  0  0  0  0  0  0  0  0  0  0  0
  -15.6013  -38.9584  -10.9248 N   0  0  0  0  0  0  0  0  0  0  0  0
  -16.0151  -40.3134  -10.8163 C   0  0  0  0  0  0  0  0  0  0  0  0
  -17.4712  -40.6004  -10.8860 C   0  0  1  0  0  0  0  0  0  0  0  0
  -17.6458  -41.8655  -11.5358 O   0  0  0  0  0  0  0  0  0  0  0  0
  -18.2764  -40.5618   -9.6440 C   0  0  2  0  0  0  0  0  0  0  0  0
  -19.7198  -40.2911   -9.8932 C   0  0  0  0  0  0  0  0  0  0  0  0
  -20.4803  -41.5255  -10.3330 C   0  0  0  0  0  0  0  0  0  0  0  0
  -20.7817  -42.6559   -9.6319 C   0  0  0  0  0  0  0  0  0  0  0  0
  -21.5021  -43.6512  -10.2787 C   0  0  0  0  0  0  0  0  0  0  0  0
  -21.8943  -43.4720  -11.6190 C   0  0  0  0  0  0  0  0  0  0  0  0
  -21.6079  -42.3478  -12.3540 C   0  0  0  0  0  0  0  0  0  0  0  0
  -20.8973  -41.3925  -11.6761 C   0  0  0  0  0  0  0  0  0  0  0  0
  -21.9299  -44.8686   -9.8110 O   0  0  0  0  0  0  0  0  0  0  0  0
  -22.5454  -45.4425   -8.7413 C   0  0  0  0  0  0  0  0  0  0  0  0
  -22.5381  -44.5729   -7.4760 C   0  0  0  0  0  0  0  0  0  0  0  0
  -21.2971  -44.8433   -6.6949 C   0  0  0  0  0  0  0  0  0  0  0  0
  -20.7740  -43.6824   -5.8884 C   0  0  0  0  0  0  0  0  0  0  0  0
  -21.6431  -42.5594   -5.8588 N   0  0  0  0  0  0  0  0  0  0  0  0
  -21.0968  -41.2419   -5.9617 C   0  0  0  0  0  0  0  0  0  0  0  0
  -21.8387  -40.2163   -5.3597 C   0  0  0  0  0  0  0  0  0  0  0  0
  -21.3845  -38.9230   -5.4225 C   0  0  0  0  0  0  0  0  0  0  0  0
  -20.2030  -38.6990   -6.0863 C   0  0  0  0  0  0  0  0  0  0  0  0
  -19.4853  -39.7328   -6.6763 C   0  0  0  0  0  0  0  0  0  0  0  0
  -19.9614  -40.9654   -6.5899 N   0  0  0  0  0  0  0  0  0  0  0  0
  -18.2234  -39.4018   -7.3668 C   0  0  0  0  0  0  0  0  0  0  0  0
  -17.5799  -38.4427   -6.8046 O   0  0  0  0  0  0  0  0  0  0  0  0
  -17.6738  -39.9772   -8.4981 N   0  0  0  0  0  0  0  0  0  0  0  0
  1  2  1  0
  2  3  1  0
  2  4  1  0
  4  5  2  0
  5  6  1  0
  6  7  2  0
  7  8  1  0
  8  9  2  0
  6 10  1  0
 10 11  1  0
 10 12  1  0
 10 13  1  0
 13 14  1  0
 14 15  1  0
 15 16  1  1
 15 17  1  0
 17 18  1  6
 18 19  1  0
 19 20  2  0
 20 21  1  0
 21 22  2  0
 22 23  1  0
 23 24  2  0
 21 25  1  0
 25 26  1  0
 26 27  1  0
 27 28  1  0
 28 29  1  0
 29 30  1  0
 30 31  1  0
 31 32  2  0
 32 33  1  0
 33 34  2  0
 34 35  1  0
 35 36  2  0
 35 37  1  0
 37 38  2  0
 37 39  1  0
  9  4  1  0
 24 19  1  0
 36 31  1  0
 39 17  1  0
M  END
$$$$
