
     RDKit          3D

 41 44  0  0  0  0  0  0  0  0999 V2000
  -17.0967  -34.1013  -13.4369 C   0  0  0  0  0  0  0  0  0  0  0  0
  -16.3525  -35.2111  -13.0651 O   0  0  0  0  0  0  0  0  0  0  0  0
  -16.5264  -35.8750  -11.8221 C   0  0  0  0  0  0  0  0  0  0  0  0
  -17.8367  -36.0782  -11.4589 C   0  0  0  0  0  0  0  0  0  0  0  0
  -18.0036  -36.7175  -10.2549 C   0  0  0  0  0  0  0  0  0  0  0  0
  -16.9436  -37.1432   -9.4328 C   0  0  0  0  0  0  0  0  0  0  0  0
  -17.4631  -37.8342   -8.1941 C   0  0  0  0  0  0  0  0  0  0  0  0
  -17.0446  -39.2383   -7.9796 C   0  0  2  0  0  0  0  0  0  0  0  0
  -18.0434  -40.1631   -8.4230 N   0  0  0  0  0  0  0  0  0  0  0  0
  -17.8848  -41.0875   -9.4928 C   0  0  0  0  0  0  0  0  0  0  0  0
  -19.0129  -41.6867   -9.7604 O   0  0  0  0  0  0  0  0  0  0  0  0
  -16.7200  -41.4613  -10.3001 C   0  0  0  0  0  0  0  0  0  0  0  0
  -16.6765  -42.8813  -10.4179 C   0  0  0  0  0  0  0  0  0  0  0  0
  -15.6967  -43.5569  -11.0845 C   0  0  0  0  0  0  0  0  0  0  0  0
  -15.6817  -45.0477  -11.1803 C   0  0  0  0  0  0  0  0  0  0  0  0
  -15.6335  -45.4555  -12.5043 O   0  0  0  0  0  0  0  0  0  0  0  0
  -14.7282  -42.7909  -11.6529 C   0  0  0  0  0  0  0  0  0  0  0  0
  -14.7022  -41.3694  -11.5794 C   0  0  0  0  0  0  0  0  0  0  0  0
  -15.7137  -40.7142  -10.8971 C   0  0  0  0  0  0  0  0  0  0  0  0
  -13.5384  -40.8969  -12.2551 N   0  0  0  0  0  0  0  0  0  0  0  0
  -12.5061  -39.9469  -11.8309 C   0  0  0  0  0  0  0  0  0  0  0  0
  -12.2647  -38.8543  -12.8113 C   0  0  0  0  0  0  0  0  0  0  0  0
  -13.4219  -37.8904  -12.9157 C   0  0  0  0  0  0  0  0  0  0  0  0
  -13.1213  -36.7148  -12.0559 C   0  0  0  0  0  0  0  0  0  0  0  0
  -14.2343  -35.9607  -11.6413 O   0  0  0  0  0  0  0  0  0  0  0  0
  -15.4366  -36.2832  -11.0357 C   0  0  0  0  0  0  0  0  0  0  0  0
  -15.6550  -36.9270   -9.8153 C   0  0  0  0  0  0  0  0  0  0  0  0
  -16.6405  -39.5271   -6.5740 C   0  0  2  0  0  0  0  0  0  0  0  0
  -15.2110  -39.6487   -6.4980 O   0  0  0  0  0  0  0  0  0  0  0  0
  -17.2217  -40.6875   -5.8735 C   0  0  0  0  0  0  0  0  0  0  0  0
  -18.3124  -41.3737   -6.5032 N   0  0  0  0  0  0  0  0  0  0  0  0
  -19.2416  -41.9155   -5.5211 C   0  0  0  0  0  0  0  0  0  0  0  0
  -20.4928  -41.1568   -5.3849 C   0  0  0  0  0  0  0  0  0  0  0  0
  -21.3938  -40.9739   -6.4404 C   0  0  0  0  0  0  0  0  0  0  0  0
  -22.5281  -40.2328   -6.2962 C   0  0  0  0  0  0  0  0  0  0  0  0
  -22.8503  -39.6253   -5.1025 C   0  0  0  0  0  0  0  0  0  0  0  0
  -21.9728  -39.8004   -4.0599 C   0  0  0  0  0  0  0  0  0  0  0  0
  -20.8143  -40.5440   -4.1728 C   0  0  0  0  0  0  0  0  0  0  0  0
  -23.4506  -40.0764   -7.4589 C   0  0  0  0  0  0  0  0  0  0  0  0
  -24.5698  -41.0829   -7.4070 C   0  0  0  0  0  0  0  0  0  0  0  0
  -23.9899  -38.6393   -7.4548 C   0  0  0  0  0  0  0  0  0  0  0  0
  1  2  1  0
  2  3  1  0
  3  4  2  0
  4  5  1  0
  5  6  2  0
  6  7  1  0
  8  7  1  1
  8  9  1  0
  9 10  1  0
 10 11  2  0
 10 12  1  0
 12 13  2  0
 13 14  1  0
 14 15  1  0
 15 16  1  0
 14 17  2  0
 17 18  1  0
 18 19  2  0
 18 20  1  0
 20 21  1  0
 21 22  1  0
 22 23  1  0
 23 24  1  0
 24 25  1  0
 25 26  1  0
 26 27  2  0
  8 28  1  0
 28 29  1  6
 28 30  1  0
 30 31  1  0
 31 32  1  0
 32 33  1  0
 33 34  2  0
 34 35  1  0
 35 36  2  0
 36 37  1  0
 37 38  2  0
 35 39  1  0
 39 40  1  0
 39 41  1  0
 19 12  1  0
 26  3  1  0
 27  6  1  0
 38 33  1  0
M  END
$$$$
