
     RDKit          3D

 41 44  0  0  0  0  0  0  0  0999 V2000
  -15.8865  -34.9609  -13.3455 C   0  0  0  0  0  0  0  0  0  0  0  0
  -15.3574  -36.1823  -12.9558 O   0  0  0  0  0  0  0  0  0  0  0  0
  -15.6643  -36.7941  -11.7118 C   0  0  0  0  0  0  0  0  0  0  0  0
  -17.0054  -36.8456  -11.4135 C   0  0  0  0  0  0  0  0  0  0  0  0
  -17.3007  -37.4346  -10.2085 C   0  0  0  0  0  0  0  0  0  0  0  0
  -16.3357  -37.9531   -9.3249 C   0  0  0  0  0  0  0  0  0  0  0  0
  -16.9884  -38.5544   -8.1026 C   0  0  0  0  0  0  0  0  0  0  0  0
  -16.7370  -39.9901   -7.8415 C   0  0  2  0  0  0  0  0  0  0  0  0
  -17.8076  -40.8116   -8.3193 N   0  0  0  0  0  0  0  0  0  0  0  0
  -17.6980  -41.7726   -9.3627 C   0  0  0  0  0  0  0  0  0  0  0  0
  -18.8701  -42.2524   -9.6776 O   0  0  0  0  0  0  0  0  0  0  0  0
  -16.5424  -42.2892  -10.1016 C   0  0  0  0  0  0  0  0  0  0  0  0
  -16.6485  -43.7079  -10.1913 C   0  0  0  0  0  0  0  0  0  0  0  0
  -15.7165  -44.5011  -10.7939 C   0  0  0  0  0  0  0  0  0  0  0  0
  -15.8598  -45.9866  -10.8620 C   0  0  0  0  0  0  0  0  0  0  0  0
  -16.6691  -46.3549  -11.9255 O   0  0  0  0  0  0  0  0  0  0  0  0
  -14.6431  -43.8580  -11.3249 C   0  0  0  0  0  0  0  0  0  0  0  0
  -14.4657  -42.4463  -11.2759 C   0  0  0  0  0  0  0  0  0  0  0  0
  -15.4321  -41.6696  -10.6589 C   0  0  0  0  0  0  0  0  0  0  0  0
  -13.2250  -42.1186  -11.8986 N   0  0  0  0  0  0  0  0  0  0  0  0
  -12.1175  -41.2760  -11.4386 C   0  0  0  0  0  0  0  0  0  0  0  0
  -11.7098  -40.2394  -12.4246 C   0  0  0  0  0  0  0  0  0  0  0  0
  -12.7482  -39.1587  -12.6063 C   0  0  0  0  0  0  0  0  0  0  0  0
  -12.3640  -38.0026  -11.7533 C   0  0  0  0  0  0  0  0  0  0  0  0
  -13.4071  -37.1229  -11.4108 O   0  0  0  0  0  0  0  0  0  0  0  0
  -14.6660  -37.2991  -10.8627 C   0  0  0  0  0  0  0  0  0  0  0  0
  -15.0138  -37.8866   -9.6438 C   0  0  0  0  0  0  0  0  0  0  0  0
  -16.4371  -40.2878   -6.4118 C   0  0  2  0  0  0  0  0  0  0  0  0
  -15.0219  -40.1892   -6.1847 O   0  0  0  0  0  0  0  0  0  0  0  0
  -16.8928  -41.5605   -5.8223 C   0  0  0  0  0  0  0  0  0  0  0  0
  -18.1294  -41.5584   -5.0958 N   0  0  0  0  0  0  0  0  0  0  0  0
  -18.9549  -40.4114   -5.4483 C   0  0  0  0  0  0  0  0  0  0  0  0
  -20.2076  -40.7526   -6.1366 C   0  0  0  0  0  0  0  0  0  0  0  0
  -20.9715  -39.8151   -6.8416 C   0  0  0  0  0  0  0  0  0  0  0  0
  -22.1495  -40.1512   -7.4382 C   0  0  0  0  0  0  0  0  0  0  0  0
  -22.6512  -41.4330   -7.3812 C   0  0  0  0  0  0  0  0  0  0  0  0
  -21.9078  -42.3608   -6.6928 C   0  0  0  0  0  0  0  0  0  0  0  0
  -20.7108  -42.0530   -6.0760 C   0  0  0  0  0  0  0  0  0  0  0  0
  -22.9174  -39.1066   -8.1775 C   0  0  0  0  0  0  0  0  0  0  0  0
  -22.9695  -37.8163   -7.4024 C   0  0  0  0  0  0  0  0  0  0  0  0
  -22.2603  -38.9084   -9.5506 C   0  0  0  0  0  0  0  0  0  0  0  0
  1  2  1  0
  2  3  1  0
  3  4  2  0
  4  5  1  0
  5  6  2  0
  6  7  1  0
  8  7  1  1
  8  9  1  0
  9 10  1  0
 10 11  2  0
 10 12  1  0
 12 13  2  0
 13 14  1  0
 14 15  1  0
 15 16  1  0
 14 17  2  0
 17 18  1  0
 18 19  2  0
 18 20  1  0
 20 21  1  0
 21 22  1  0
 22 23  1  0
 23 24  1  0
 24 25  1  0
 25 26  1  0
 26 27  2  0
  8 28  1  0
 28 29  1  6
 28 30  1  0
 30 31  1  0
 31 32  1  0
 32 33  1  0
 33 34  2  0
 34 35  1  0
 35 36  2  0
 36 37  1  0
 37 38  2  0
 35 39  1  0
 39 40  1  0
 39 41  1  0
 19 12  1  0
 26  3  1  0
 27  6  1  0
 38 33  1  0
M  END
$$$$
