
     RDKit          3D

 41 44  0  0  0  0  0  0  0  0999 V2000
  -16.8724  -33.7278  -13.3677 C   0  0  0  0  0  0  0  0  0  0  0  0
  -16.0531  -34.7682  -12.9553 O   0  0  0  0  0  0  0  0  0  0  0  0
  -16.2392  -35.4559  -11.7271 C   0  0  0  0  0  0  0  0  0  0  0  0
  -17.5504  -35.5821  -11.3335 C   0  0  0  0  0  0  0  0  0  0  0  0
  -17.7289  -36.2446  -10.1437 C   0  0  0  0  0  0  0  0  0  0  0  0
  -16.6790  -36.7643   -9.3637 C   0  0  0  0  0  0  0  0  0  0  0  0
  -17.2117  -37.4559   -8.1309 C   0  0  0  0  0  0  0  0  0  0  0  0
  -16.8834  -38.8905   -7.9676 C   0  0  2  0  0  0  0  0  0  0  0  0
  -17.9533  -39.7331   -8.4088 N   0  0  0  0  0  0  0  0  0  0  0  0
  -17.8850  -40.6336   -9.5082 C   0  0  0  0  0  0  0  0  0  0  0  0
  -19.0574  -41.1481   -9.7611 O   0  0  0  0  0  0  0  0  0  0  0  0
  -16.7693  -41.0598  -10.3577 C   0  0  0  0  0  0  0  0  0  0  0  0
  -16.8245  -42.4754  -10.5165 C   0  0  0  0  0  0  0  0  0  0  0  0
  -15.9100  -43.1945  -11.2288 C   0  0  0  0  0  0  0  0  0  0  0  0
  -15.9980  -44.6795  -11.3668 C   0  0  0  0  0  0  0  0  0  0  0  0
  -17.2273  -45.0536  -11.8869 O   0  0  0  0  0  0  0  0  0  0  0  0
  -14.9071  -42.4781  -11.8021 C   0  0  0  0  0  0  0  0  0  0  0  0
  -14.7836  -41.0643  -11.6895 C   0  0  0  0  0  0  0  0  0  0  0  0
  -15.7306  -40.3638  -10.9612 C   0  0  0  0  0  0  0  0  0  0  0  0
  -13.6084  -40.6504  -12.3837 N   0  0  0  0  0  0  0  0  0  0  0  0
  -12.5038  -39.7842  -11.9619 C   0  0  0  0  0  0  0  0  0  0  0  0
  -12.2148  -38.6813  -12.9175 C   0  0  0  0  0  0  0  0  0  0  0  0
  -13.3068  -37.6399  -12.9627 C   0  0  0  0  0  0  0  0  0  0  0  0
  -12.9056  -36.5131  -12.0788 C   0  0  0  0  0  0  0  0  0  0  0  0
  -13.9542  -35.6993  -11.6125 O   0  0  0  0  0  0  0  0  0  0  0  0
  -15.1595  -35.9590  -10.9831 C   0  0  0  0  0  0  0  0  0  0  0  0
  -15.3891  -36.6230   -9.7756 C   0  0  0  0  0  0  0  0  0  0  0  0
  -16.4634  -39.2474   -6.5824 C   0  0  2  0  0  0  0  0  0  0  0  0
  -15.0365  -39.4080   -6.5368 O   0  0  0  0  0  0  0  0  0  0  0  0
  -17.0626  -40.4208   -5.9199 C   0  0  0  0  0  0  0  0  0  0  0  0
  -18.2448  -40.9882   -6.5011 N   0  0  0  0  0  0  0  0  0  0  0  0
  -19.1483  -41.5025   -5.4810 C   0  0  0  0  0  0  0  0  0  0  0  0
  -20.4759  -40.8725   -5.4714 C   0  0  0  0  0  0  0  0  0  0  0  0
  -21.4269  -41.0797   -6.4773 C   0  0  0  0  0  0  0  0  0  0  0  0
  -22.6362  -40.4520   -6.4628 C   0  0  0  0  0  0  0  0  0  0  0  0
  -22.9888  -39.5808   -5.4555 C   0  0  0  0  0  0  0  0  0  0  0  0
  -22.0625  -39.3721   -4.4625 C   0  0  0  0  0  0  0  0  0  0  0  0
  -20.8278  -39.9912   -4.4479 C   0  0  0  0  0  0  0  0  0  0  0  0
  -23.6089  -40.7159   -7.5635 C   0  0  0  0  0  0  0  0  0  0  0  0
  -24.5957  -41.7854   -7.1751 C   0  0  0  0  0  0  0  0  0  0  0  0
  -24.3178  -39.3979   -7.9050 C   0  0  0  0  0  0  0  0  0  0  0  0
  1  2  1  0
  2  3  1  0
  3  4  2  0
  4  5  1  0
  5  6  2  0
  6  7  1  0
  8  7  1  1
  8  9  1  0
  9 10  1  0
 10 11  2  0
 10 12  1  0
 12 13  2  0
 13 14  1  0
 14 15  1  0
 15 16  1  0
 14 17  2  0
 17 18  1  0
 18 19  2  0
 18 20  1  0
 20 21  1  0
 21 22  1  0
 22 23  1  0
 23 24  1  0
 24 25  1  0
 25 26  1  0
 26 27  2  0
  8 28  1  0
 28 29  1  6
 28 30  1  0
 30 31  1  0
 31 32  1  0
 32 33  1  0
 33 34  2  0
 34 35  1  0
 35 36  2  0
 36 37  1  0
 37 38  2  0
 35 39  1  0
 39 40  1  0
 39 41  1  0
 19 12  1  0
 26  3  1  0
 27  6  1  0
 38 33  1  0
M  END
$$$$
