
     RDKit          3D

 41 44  0  0  0  0  0  0  0  0999 V2000
  -19.9063  -39.3216  -14.4877 C   0  0  0  0  0  0  0  0  0  0  0  0
  -18.6380  -39.2327  -13.9336 O   0  0  0  0  0  0  0  0  0  0  0  0
  -18.4131  -39.1185  -12.5363 C   0  0  0  0  0  0  0  0  0  0  0  0
  -19.3696  -38.4003  -11.8584 C   0  0  0  0  0  0  0  0  0  0  0  0
  -19.1493  -38.2878  -10.5075 C   0  0  0  0  0  0  0  0  0  0  0  0
  -18.0453  -38.8476   -9.8377 C   0  0  0  0  0  0  0  0  0  0  0  0
  -18.1114  -38.5652   -8.3553 C   0  0  0  0  0  0  0  0  0  0  0  0
  -18.1520  -39.7342   -7.4473 C   0  0  2  0  0  0  0  0  0  0  0  0
  -19.4889  -40.0415   -7.0377 N   0  0  0  0  0  0  0  0  0  0  0  0
  -20.1882  -41.2379   -7.3597 C   0  0  0  0  0  0  0  0  0  0  0  0
  -21.4341  -41.1651   -6.9781 O   0  0  0  0  0  0  0  0  0  0  0  0
  -19.7594  -42.4780   -8.0128 C   0  0  0  0  0  0  0  0  0  0  0  0
  -20.2673  -43.5874   -7.2759 C   0  0  0  0  0  0  0  0  0  0  0  0
  -20.0245  -44.8895   -7.6025 C   0  0  0  0  0  0  0  0  0  0  0  0
  -20.5695  -46.0261   -6.8006 C   0  0  0  0  0  0  0  0  0  0  0  0
  -19.9135  -47.2071   -7.1116 O   0  0  0  0  0  0  0  0  0  0  0  0
  -19.2495  -45.0917   -8.7007 C   0  0  0  0  0  0  0  0  0  0  0  0
  -18.7059  -44.0373   -9.4877 C   0  0  0  0  0  0  0  0  0  0  0  0
  -18.9739  -42.7265   -9.1302 C   0  0  0  0  0  0  0  0  0  0  0  0
  -17.9247  -44.6049  -10.5374 N   0  0  0  0  0  0  0  0  0  0  0  0
  -16.5613  -44.3053  -10.9839 C   0  0  0  0  0  0  0  0  0  0  0  0
  -16.4591  -44.0368  -12.4435 C   0  0  0  0  0  0  0  0  0  0  0  0
  -17.1147  -42.7393  -12.8509 C   0  0  0  0  0  0  0  0  0  0  0  0
  -16.0578  -41.6965  -12.9373 C   0  0  0  0  0  0  0  0  0  0  0  0
  -16.5018  -40.3662  -12.8257 O   0  0  0  0  0  0  0  0  0  0  0  0
  -17.2961  -39.6963  -11.9110 C   0  0  0  0  0  0  0  0  0  0  0  0
  -17.1111  -39.5521  -10.5338 C   0  0  0  0  0  0  0  0  0  0  0  0
  -17.2532  -39.5972   -6.2658 C   0  0  2  0  0  0  0  0  0  0  0  0
  -15.8833  -39.5988   -6.6987 O   0  0  0  0  0  0  0  0  0  0  0  0
  -17.3665  -40.5552   -5.1504 C   0  0  0  0  0  0  0  0  0  0  0  0
  -18.4322  -40.3661   -4.2094 N   0  0  0  0  0  0  0  0  0  0  0  0
  -19.4853  -39.5218   -4.7567 C   0  0  0  0  0  0  0  0  0  0  0  0
  -20.7907  -40.1846   -4.8848 C   0  0  0  0  0  0  0  0  0  0  0  0
  -21.5593  -40.1381   -6.0537 C   0  0  0  0  0  0  0  0  0  0  0  0
  -22.7843  -40.7297   -6.1318 C   0  0  0  0  0  0  0  0  0  0  0  0
  -23.3314  -41.4075   -5.0644 C   0  0  0  0  0  0  0  0  0  0  0  0
  -22.5838  -41.4600   -3.9130 C   0  0  0  0  0  0  0  0  0  0  0  0
  -21.3397  -40.8704   -3.8002 C   0  0  0  0  0  0  0  0  0  0  0  0
  -23.5549  -40.6469   -7.4072 C   0  0  0  0  0  0  0  0  0  0  0  0
  -24.9993  -41.0185   -7.1973 C   0  0  0  0  0  0  0  0  0  0  0  0
  -23.4185  -39.2213   -7.9597 C   0  0  0  0  0  0  0  0  0  0  0  0
  1  2  1  0
  2  3  1  0
  3  4  2  0
  4  5  1  0
  5  6  2  0
  6  7  1  0
  8  7  1  1
  8  9  1  0
  9 10  1  0
 10 11  2  0
 10 12  1  0
 12 13  2  0
 13 14  1  0
 14 15  1  0
 15 16  1  0
 14 17  2  0
 17 18  1  0
 18 19  2  0
 18 20  1  0
 20 21  1  0
 21 22  1  0
 22 23  1  0
 23 24  1  0
 24 25  1  0
 25 26  1  0
 26 27  2  0
  8 28  1  0
 28 29  1  6
 28 30  1  0
 30 31  1  0
 31 32  1  0
 32 33  1  0
 33 34  2  0
 34 35  1  0
 35 36  2  0
 36 37  1  0
 37 38  2  0
 35 39  1  0
 39 40  1  0
 39 41  1  0
 19 12  1  0
 26  3  1  0
 27  6  1  0
 38 33  1  0
M  END
$$$$
