
     RDKit          3D

 41 44  0  0  0  0  0  0  0  0999 V2000
  -25.4685  -41.8665  -12.0294 C   0  0  0  0  0  0  0  0  0  0  0  0
  -24.8442  -41.6481  -10.8103 O   0  0  0  0  0  0  0  0  0  0  0  0
  -23.4475  -41.4233  -10.6885 C   0  0  0  0  0  0  0  0  0  0  0  0
  -23.0563  -40.1212  -10.8924 C   0  0  0  0  0  0  0  0  0  0  0  0
  -21.7048  -39.9057  -10.7774 C   0  0  0  0  0  0  0  0  0  0  0  0
  -20.7671  -40.9115  -10.4779 C   0  0  0  0  0  0  0  0  0  0  0  0
  -19.3701  -40.3426  -10.3978 C   0  0  0  0  0  0  0  0  0  0  0  0
  -18.6506  -40.4999   -9.1132 C   0  0  2  0  0  0  0  0  0  0  0  0
  -18.7413  -39.3206   -8.3066 N   0  0  0  0  0  0  0  0  0  0  0  0
  -19.3966  -39.2402   -7.0464 C   0  0  0  0  0  0  0  0  0  0  0  0
  -19.4448  -38.0058   -6.6255 O   0  0  0  0  0  0  0  0  0  0  0  0
  -19.9927  -40.2652   -6.1848 C   0  0  0  0  0  0  0  0  0  0  0  0
  -19.5826  -40.0329   -4.8395 C   0  0  0  0  0  0  0  0  0  0  0  0
  -19.9404  -40.8277   -3.7900 C   0  0  0  0  0  0  0  0  0  0  0  0
  -19.4846  -40.5552   -2.3937 C   0  0  0  0  0  0  0  0  0  0  0  0
  -18.1061  -40.6637   -2.2957 O   0  0  0  0  0  0  0  0  0  0  0  0
  -20.7337  -41.8892   -4.0923 C   0  0  0  0  0  0  0  0  0  0  0  0
  -21.1845  -42.1875   -5.4094 C   0  0  0  0  0  0  0  0  0  0  0  0
  -20.8051  -41.3587   -6.4521 C   0  0  0  0  0  0  0  0  0  0  0  0
  -21.9673  -43.3790   -5.3669 N   0  0  0  0  0  0  0  0  0  0  0  0
  -21.9031  -44.5947   -6.1830 C   0  0  0  0  0  0  0  0  0  0  0  0
  -23.2109  -44.9817   -6.7772 C   0  0  0  0  0  0  0  0  0  0  0  0
  -23.6789  -44.0233   -7.8456 C   0  0  0  0  0  0  0  0  0  0  0  0
  -23.3035  -44.5893   -9.1687 C   0  0  0  0  0  0  0  0  0  0  0  0
  -23.2111  -43.6644  -10.2248 O   0  0  0  0  0  0  0  0  0  0  0  0
  -22.5490  -42.4595  -10.3862 C   0  0  0  0  0  0  0  0  0  0  0  0
  -21.1813  -42.1937  -10.2833 C   0  0  0  0  0  0  0  0  0  0  0  0
  -17.2303  -40.9219   -9.2783 C   0  0  2  0  0  0  0  0  0  0  0  0
  -16.9075  -41.9235   -8.3002 O   0  0  0  0  0  0  0  0  0  0  0  0
  -16.1608  -39.9072   -9.2429 C   0  0  0  0  0  0  0  0  0  0  0  0
  -15.6860  -39.3892  -10.4933 N   0  0  0  0  0  0  0  0  0  0  0  0
  -16.1039  -38.0084  -10.6934 C   0  0  0  0  0  0  0  0  0  0  0  0
  -15.0102  -37.0284  -10.6392 C   0  0  0  0  0  0  0  0  0  0  0  0
  -14.8822  -35.9756  -11.5528 C   0  0  0  0  0  0  0  0  0  0  0  0
  -13.8361  -35.1040  -11.5021 C   0  0  0  0  0  0  0  0  0  0  0  0
  -12.8489  -35.2109  -10.5472 C   0  0  0  0  0  0  0  0  0  0  0  0
  -12.9666  -36.2402   -9.6449 C   0  0  0  0  0  0  0  0  0  0  0  0
  -14.0132  -37.1414   -9.6690 C   0  0  0  0  0  0  0  0  0  0  0  0
  -13.7565  -34.0003  -12.5035 C   0  0  0  0  0  0  0  0  0  0  0  0
  -14.4219  -32.7498  -11.9918 C   0  0  0  0  0  0  0  0  0  0  0  0
  -12.2771  -33.7532  -12.8302 C   0  0  0  0  0  0  0  0  0  0  0  0
  1  2  1  0
  2  3  1  0
  3  4  2  0
  4  5  1  0
  5  6  2  0
  6  7  1  0
  8  7  1  6
  8  9  1  0
  9 10  1  0
 10 11  2  0
 10 12  1  0
 12 13  2  0
 13 14  1  0
 14 15  1  0
 15 16  1  0
 14 17  2  0
 17 18  1  0
 18 19  2  0
 18 20  1  0
 20 21  1  0
 21 22  1  0
 22 23  1  0
 23 24  1  0
 24 25  1  0
 25 26  1  0
 26 27  2  0
  8 28  1  0
 28 29  1  1
 28 30  1  0
 30 31  1  0
 31 32  1  0
 32 33  1  0
 33 34  2  0
 34 35  1  0
 35 36  2  0
 36 37  1  0
 37 38  2  0
 35 39  1  0
 39 40  1  0
 39 41  1  0
 19 12  1  0
 26  3  1  0
 27  6  1  0
 38 33  1  0
M  END
$$$$
