
     RDKit          3D

 41 44  0  0  0  0  0  0  0  0999 V2000
  -18.4782  -37.0606  -14.7891 C   0  0  0  0  0  0  0  0  0  0  0  0
  -17.7241  -36.7190  -13.6763 O   0  0  0  0  0  0  0  0  0  0  0  0
  -18.1227  -37.0303  -12.3495 C   0  0  0  0  0  0  0  0  0  0  0  0
  -19.4791  -37.1739  -12.1771 C   0  0  0  0  0  0  0  0  0  0  0  0
  -19.8636  -37.4718  -10.8926 C   0  0  0  0  0  0  0  0  0  0  0  0
  -18.9704  -37.6238   -9.8157 C   0  0  0  0  0  0  0  0  0  0  0  0
  -19.7087  -37.9743   -8.5454 C   0  0  0  0  0  0  0  0  0  0  0  0
  -19.3533  -39.2537   -7.8901 C   0  0  2  0  0  0  0  0  0  0  0  0
  -20.2709  -40.2978   -8.2323 N   0  0  0  0  0  0  0  0  0  0  0  0
  -19.9391  -41.4695   -8.9681 C   0  0  0  0  0  0  0  0  0  0  0  0
  -21.0105  -42.1575   -9.2543 O   0  0  0  0  0  0  0  0  0  0  0  0
  -18.6557  -42.0056   -9.4302 C   0  0  0  0  0  0  0  0  0  0  0  0
  -18.6112  -43.4025   -9.1501 C   0  0  0  0  0  0  0  0  0  0  0  0
  -17.5385  -44.1978   -9.4293 C   0  0  0  0  0  0  0  0  0  0  0  0
  -17.5270  -45.6581   -9.1141 C   0  0  0  0  0  0  0  0  0  0  0  0
  -16.4342  -46.2793   -9.6986 O   0  0  0  0  0  0  0  0  0  0  0  0
  -16.4751  -43.5794  -10.0075 C   0  0  0  0  0  0  0  0  0  0  0  0
  -16.4434  -42.1904  -10.3180 C   0  0  0  0  0  0  0  0  0  0  0  0
  -17.5502  -41.4117  -10.0239 C   0  0  0  0  0  0  0  0  0  0  0  0
  -15.1727  -41.8765  -10.8846 N   0  0  0  0  0  0  0  0  0  0  0  0
  -14.2184  -40.8120  -10.5616 C   0  0  0  0  0  0  0  0  0  0  0  0
  -13.7938  -40.0152  -11.7439 C   0  0  0  0  0  0  0  0  0  0  0  0
  -14.9016  -39.1558  -12.3036 C   0  0  0  0  0  0  0  0  0  0  0  0
  -14.7412  -37.7827  -11.7553 C   0  0  0  0  0  0  0  0  0  0  0  0
  -15.8995  -36.9842  -11.7591 O   0  0  0  0  0  0  0  0  0  0  0  0
  -17.1937  -37.1739  -11.3061 C   0  0  0  0  0  0  0  0  0  0  0  0
  -17.6318  -37.4734  -10.0138 C   0  0  0  0  0  0  0  0  0  0  0  0
  -19.2065  -39.1400   -6.4109 C   0  0  2  0  0  0  0  0  0  0  0  0
  -17.8628  -39.4789   -6.0317 O   0  0  0  0  0  0  0  0  0  0  0  0
  -20.1186  -39.8919   -5.5291 C   0  0  0  0  0  0  0  0  0  0  0  0
  -21.5216  -39.8514   -5.8241 N   0  0  0  0  0  0  0  0  0  0  0  0
  -22.3199  -39.7346   -4.6115 C   0  0  0  0  0  0  0  0  0  0  0  0
  -22.3748  -40.9584   -3.7998 C   0  0  0  0  0  0  0  0  0  0  0  0
  -21.7337  -41.0829   -2.5617 C   0  0  0  0  0  0  0  0  0  0  0  0
  -21.7693  -42.2431   -1.8479 C   0  0  0  0  0  0  0  0  0  0  0  0
  -22.4404  -43.3557   -2.3058 C   0  0  0  0  0  0  0  0  0  0  0  0
  -23.0742  -43.2428   -3.5195 C   0  0  0  0  0  0  0  0  0  0  0  0
  -23.0568  -42.0823   -4.2685 C   0  0  0  0  0  0  0  0  0  0  0  0
  -21.0674  -42.3128   -0.5327 C   0  0  0  0  0  0  0  0  0  0  0  0
  -19.6212  -41.9133   -0.6639 C   0  0  0  0  0  0  0  0  0  0  0  0
  -21.8108  -41.4057    0.4577 C   0  0  0  0  0  0  0  0  0  0  0  0
  1  2  1  0
  2  3  1  0
  3  4  2  0
  4  5  1  0
  5  6  2  0
  6  7  1  0
  8  7  1  1
  8  9  1  0
  9 10  1  0
 10 11  2  0
 10 12  1  0
 12 13  2  0
 13 14  1  0
 14 15  1  0
 15 16  1  0
 14 17  2  0
 17 18  1  0
 18 19  2  0
 18 20  1  0
 20 21  1  0
 21 22  1  0
 22 23  1  0
 23 24  1  0
 24 25  1  0
 25 26  1  0
 26 27  2  0
  8 28  1  0
 28 29  1  6
 28 30  1  0
 30 31  1  0
 31 32  1  0
 32 33  1  0
 33 34  2  0
 34 35  1  0
 35 36  2  0
 36 37  1  0
 37 38  2  0
 35 39  1  0
 39 40  1  0
 39 41  1  0
 19 12  1  0
 26  3  1  0
 27  6  1  0
 38 33  1  0
M  END
$$$$
