
     RDKit          3D

 41 44  0  0  0  0  0  0  0  0999 V2000
  -23.8867  -38.9016  -11.1901 C   0  0  0  0  0  0  0  0  0  0  0  0
  -23.3056  -39.9127  -10.4393 O   0  0  0  0  0  0  0  0  0  0  0  0
  -21.9239  -39.9343  -10.1130 C   0  0  0  0  0  0  0  0  0  0  0  0
  -21.4709  -38.8114   -9.4617 C   0  0  0  0  0  0  0  0  0  0  0  0
  -20.1336  -38.8321   -9.1496 C   0  0  0  0  0  0  0  0  0  0  0  0
  -19.2670  -39.8976   -9.4568 C   0  0  0  0  0  0  0  0  0  0  0  0
  -17.8693  -39.6203   -8.9557 C   0  0  0  0  0  0  0  0  0  0  0  0
  -17.2991  -40.5798   -7.9826 C   0  0  2  0  0  0  0  0  0  0  0  0
  -17.4385  -40.1152   -6.6357 N   0  0  0  0  0  0  0  0  0  0  0  0
  -18.2239  -40.7453   -5.6305 C   0  0  0  0  0  0  0  0  0  0  0  0
  -18.2775  -40.0101   -4.5536 O   0  0  0  0  0  0  0  0  0  0  0  0
  -18.9429  -42.0223   -5.6060 C   0  0  0  0  0  0  0  0  0  0  0  0
  -18.6741  -42.6797   -4.3700 C   0  0  0  0  0  0  0  0  0  0  0  0
  -19.1693  -43.9076   -4.0412 C   0  0  0  0  0  0  0  0  0  0  0  0
  -18.8592  -44.5677   -2.7373 C   0  0  0  0  0  0  0  0  0  0  0  0
  -20.0103  -44.7319   -1.9826 O   0  0  0  0  0  0  0  0  0  0  0  0
  -19.9591  -44.4993   -4.9759 C   0  0  0  0  0  0  0  0  0  0  0  0
  -20.2735  -43.9076   -6.2320 C   0  0  0  0  0  0  0  0  0  0  0  0
  -19.7565  -42.6587   -6.5335 C   0  0  0  0  0  0  0  0  0  0  0  0
  -21.0945  -44.8100   -6.9708 N   0  0  0  0  0  0  0  0  0  0  0  0
  -20.9815  -45.2955   -8.3491 C   0  0  0  0  0  0  0  0  0  0  0  0
  -22.2289  -45.1286   -9.1424 C   0  0  0  0  0  0  0  0  0  0  0  0
  -22.5468  -43.6837   -9.4429 C   0  0  0  0  0  0  0  0  0  0  0  0
  -22.0484  -43.3770  -10.8101 C   0  0  0  0  0  0  0  0  0  0  0  0
  -21.8120  -42.0173  -11.0834 O   0  0  0  0  0  0  0  0  0  0  0  0
  -21.0976  -41.0221  -10.4390 C   0  0  0  0  0  0  0  0  0  0  0  0
  -19.7413  -40.9969  -10.1049 C   0  0  0  0  0  0  0  0  0  0  0  0
  -15.8837  -40.9467   -8.2735 C   0  0  2  0  0  0  0  0  0  0  0  0
  -15.3978  -41.8392   -7.2579 O   0  0  0  0  0  0  0  0  0  0  0  0
  -14.8771  -39.8830   -8.4469 C   0  0  0  0  0  0  0  0  0  0  0  0
  -15.1910  -38.5750   -7.9493 N   0  0  0  0  0  0  0  0  0  0  0  0
  -14.5179  -37.5354   -8.7159 C   0  0  0  0  0  0  0  0  0  0  0  0
  -15.0691  -37.3188  -10.0608 C   0  0  0  0  0  0  0  0  0  0  0  0
  -15.3270  -36.0467  -10.5847 C   0  0  0  0  0  0  0  0  0  0  0  0
  -15.8746  -35.8764  -11.8208 C   0  0  0  0  0  0  0  0  0  0  0  0
  -16.2021  -36.9478  -12.6224 C   0  0  0  0  0  0  0  0  0  0  0  0
  -15.9513  -38.2007  -12.1176 C   0  0  0  0  0  0  0  0  0  0  0  0
  -15.3984  -38.4081  -10.8689 C   0  0  0  0  0  0  0  0  0  0  0  0
  -16.1238  -34.4939  -12.3246 C   0  0  0  0  0  0  0  0  0  0  0  0
  -17.4079  -33.9343  -11.7711 C   0  0  0  0  0  0  0  0  0  0  0  0
  -14.9217  -33.6189  -11.9426 C   0  0  0  0  0  0  0  0  0  0  0  0
  1  2  1  0
  2  3  1  0
  3  4  2  0
  4  5  1  0
  5  6  2  0
  6  7  1  0
  8  7  1  6
  8  9  1  0
  9 10  1  0
 10 11  2  0
 10 12  1  0
 12 13  2  0
 13 14  1  0
 14 15  1  0
 15 16  1  0
 14 17  2  0
 17 18  1  0
 18 19  2  0
 18 20  1  0
 20 21  1  0
 21 22  1  0
 22 23  1  0
 23 24  1  0
 24 25  1  0
 25 26  1  0
 26 27  2  0
  8 28  1  0
 28 29  1  1
 28 30  1  0
 30 31  1  0
 31 32  1  0
 32 33  1  0
 33 34  2  0
 34 35  1  0
 35 36  2  0
 36 37  1  0
 37 38  2  0
 35 39  1  0
 39 40  1  0
 39 41  1  0
 19 12  1  0
 26  3  1  0
 27  6  1  0
 38 33  1  0
M  END
$$$$
