
     RDKit          3D

 41 44  0  0  0  0  0  0  0  0999 V2000
  -24.0050  -40.4908   -3.9590 C   0  0  0  0  0  0  0  0  0  0  0  0
  -23.5919  -40.7369   -5.2599 O   0  0  0  0  0  0  0  0  0  0  0  0
  -22.3865  -40.2141   -5.7983 C   0  0  0  0  0  0  0  0  0  0  0  0
  -21.3594  -40.0924   -4.8925 C   0  0  0  0  0  0  0  0  0  0  0  0
  -20.1950  -39.5835   -5.4136 C   0  0  0  0  0  0  0  0  0  0  0  0
  -20.0305  -39.2058   -6.7593 C   0  0  0  0  0  0  0  0  0  0  0  0
  -18.6265  -38.7106   -7.0149 C   0  0  0  0  0  0  0  0  0  0  0  0
  -17.8281  -39.4395   -8.0267 C   0  0  2  0  0  0  0  0  0  0  0  0
  -16.9482  -40.3930   -7.4217 N   0  0  0  0  0  0  0  0  0  0  0  0
  -17.0292  -41.8032   -7.5913 C   0  0  0  0  0  0  0  0  0  0  0  0
  -16.1928  -42.4155   -6.7984 O   0  0  0  0  0  0  0  0  0  0  0  0
  -17.8535  -42.6388   -8.4691 C   0  0  0  0  0  0  0  0  0  0  0  0
  -17.0293  -43.6399   -9.0610 C   0  0  0  0  0  0  0  0  0  0  0  0
  -17.4837  -44.5651   -9.9545 C   0  0  0  0  0  0  0  0  0  0  0  0
  -16.5866  -45.5956  -10.5589 C   0  0  0  0  0  0  0  0  0  0  0  0
  -16.4852  -46.7049   -9.7340 O   0  0  0  0  0  0  0  0  0  0  0  0
  -18.8042  -44.4895  -10.2680 C   0  0  0  0  0  0  0  0  0  0  0  0
  -19.6909  -43.5199   -9.7199 C   0  0  0  0  0  0  0  0  0  0  0  0
  -19.1978  -42.5965   -8.8132 C   0  0  0  0  0  0  0  0  0  0  0  0
  -20.9858  -43.7112  -10.2864 N   0  0  0  0  0  0  0  0  0  0  0  0
  -21.9104  -42.7555  -10.9029 C   0  0  0  0  0  0  0  0  0  0  0  0
  -23.2821  -42.8004  -10.3288 C   0  0  0  0  0  0  0  0  0  0  0  0
  -23.3444  -42.2846   -8.9113 C   0  0  0  0  0  0  0  0  0  0  0  0
  -23.7846  -40.8647   -8.9567 C   0  0  0  0  0  0  0  0  0  0  0  0
  -23.4491  -40.0850   -7.8348 O   0  0  0  0  0  0  0  0  0  0  0  0
  -22.2688  -39.8519   -7.1500 C   0  0  0  0  0  0  0  0  0  0  0  0
  -21.0651  -39.3344   -7.6349 C   0  0  0  0  0  0  0  0  0  0  0  0
  -17.0810  -38.5397   -8.9512 C   0  0  2  0  0  0  0  0  0  0  0  0
  -17.5999  -38.6780  -10.2837 O   0  0  0  0  0  0  0  0  0  0  0  0
  -15.6121  -38.6401   -9.0352 C   0  0  0  0  0  0  0  0  0  0  0  0
  -14.8577  -38.4663   -7.8278 N   0  0  0  0  0  0  0  0  0  0  0  0
  -13.4819  -38.9169   -7.9873 C   0  0  0  0  0  0  0  0  0  0  0  0
  -13.0235  -38.9886   -9.3817 C   0  0  0  0  0  0  0  0  0  0  0  0
  -13.8507  -38.6997  -10.4733 C   0  0  0  0  0  0  0  0  0  0  0  0
  -13.4101  -38.8118  -11.7578 C   0  0  0  0  0  0  0  0  0  0  0  0
  -12.1255  -39.2138  -12.0511 C   0  0  0  0  0  0  0  0  0  0  0  0
  -11.3054  -39.4981  -10.9862 C   0  0  0  0  0  0  0  0  0  0  0  0
  -11.7207  -39.3959   -9.6728 C   0  0  0  0  0  0  0  0  0  0  0  0
  -14.3397  -38.4873  -12.8793 C   0  0  0  0  0  0  0  0  0  0  0  0
  -14.3534  -39.5838  -13.9117 C   0  0  0  0  0  0  0  0  0  0  0  0
  -15.7388  -38.2543  -12.2920 C   0  0  0  0  0  0  0  0  0  0  0  0
  1  2  1  0
  2  3  1  0
  3  4  2  0
  4  5  1  0
  5  6  2  0
  6  7  1  0
  8  7  1  1
  8  9  1  0
  9 10  1  0
 10 11  2  0
 10 12  1  0
 12 13  2  0
 13 14  1  0
 14 15  1  0
 15 16  1  0
 14 17  2  0
 17 18  1  0
 18 19  2  0
 18 20  1  0
 20 21  1  0
 21 22  1  0
 22 23  1  0
 23 24  1  0
 24 25  1  0
 25 26  1  0
 26 27  2  0
  8 28  1  0
 28 29  1  6
 28 30  1  0
 30 31  1  0
 31 32  1  0
 32 33  1  0
 33 34  2  0
 34 35  1  0
 35 36  2  0
 36 37  1  0
 37 38  2  0
 35 39  1  0
 39 40  1  0
 39 41  1  0
 19 12  1  0
 26  3  1  0
 27  6  1  0
 38 33  1  0
M  END
$$$$
