
     RDKit          3D

 41 44  0  0  0  0  0  0  0  0999 V2000
  -21.5299  -42.6274   -1.8793 C   0  0  0  0  0  0  0  0  0  0  0  0
  -21.9825  -42.1640   -3.1057 O   0  0  0  0  0  0  0  0  0  0  0  0
  -21.2307  -41.2766   -3.9201 C   0  0  0  0  0  0  0  0  0  0  0  0
  -20.0125  -40.9117   -3.3975 C   0  0  0  0  0  0  0  0  0  0  0  0
  -19.2876  -40.0507   -4.1846 C   0  0  0  0  0  0  0  0  0  0  0  0
  -19.7247  -39.5604   -5.4293 C   0  0  0  0  0  0  0  0  0  0  0  0
  -18.6852  -38.6577   -6.0508 C   0  0  0  0  0  0  0  0  0  0  0  0
  -18.1508  -39.0551   -7.3733 C   0  0  2  0  0  0  0  0  0  0  0  0
  -16.8995  -39.7406   -7.2556 N   0  0  0  0  0  0  0  0  0  0  0  0
  -16.6742  -41.0988   -7.6144 C   0  0  0  0  0  0  0  0  0  0  0  0
  -15.4808  -41.4833   -7.2524 O   0  0  0  0  0  0  0  0  0  0  0  0
  -17.5185  -42.0858   -8.2934 C   0  0  0  0  0  0  0  0  0  0  0  0
  -16.7392  -42.7607   -9.2779 C   0  0  0  0  0  0  0  0  0  0  0  0
  -17.2349  -43.7230  -10.1081 C   0  0  0  0  0  0  0  0  0  0  0  0
  -16.3873  -44.4034  -11.1331 C   0  0  0  0  0  0  0  0  0  0  0  0
  -15.0435  -44.2975  -10.8099 O   0  0  0  0  0  0  0  0  0  0  0  0
  -18.5514  -44.0223   -9.9511 C   0  0  0  0  0  0  0  0  0  0  0  0
  -19.3945  -43.3934   -8.9918 C   0  0  0  0  0  0  0  0  0  0  0  0
  -18.8591  -42.4222   -8.1623 C   0  0  0  0  0  0  0  0  0  0  0  0
  -20.7119  -43.9243   -9.1216 N   0  0  0  0  0  0  0  0  0  0  0  0
  -22.0079  -43.2492   -9.2349 C   0  0  0  0  0  0  0  0  0  0  0  0
  -23.0177  -43.7324   -8.2551 C   0  0  0  0  0  0  0  0  0  0  0  0
  -22.6908  -43.3450   -6.8330 C   0  0  0  0  0  0  0  0  0  0  0  0
  -23.4638  -42.1187   -6.5003 C   0  0  0  0  0  0  0  0  0  0  0  0
  -22.9549  -41.3442   -5.4419 O   0  0  0  0  0  0  0  0  0  0  0  0
  -21.7080  -40.8145   -5.1574 C   0  0  0  0  0  0  0  0  0  0  0  0
  -20.9369  -39.9358   -5.9224 C   0  0  0  0  0  0  0  0  0  0  0  0
  -18.0459  -37.9203   -8.3344 C   0  0  2  0  0  0  0  0  0  0  0  0
  -18.6618  -38.2844   -9.5803 O   0  0  0  0  0  0  0  0  0  0  0  0
  -16.7220  -37.3496   -8.6448 C   0  0  0  0  0  0  0  0  0  0  0  0
  -15.6618  -38.2566   -8.9773 N   0  0  0  0  0  0  0  0  0  0  0  0
  -15.6876  -38.6149  -10.3888 C   0  0  0  0  0  0  0  0  0  0  0  0
  -14.8734  -37.7472  -11.2511 C   0  0  0  0  0  0  0  0  0  0  0  0
  -14.4681  -36.4610  -10.8757 C   0  0  0  0  0  0  0  0  0  0  0  0
  -13.7457  -35.6631  -11.7112 C   0  0  0  0  0  0  0  0  0  0  0  0
  -13.3734  -36.0805  -12.9702 C   0  0  0  0  0  0  0  0  0  0  0  0
  -13.7651  -37.3422  -13.3473 C   0  0  0  0  0  0  0  0  0  0  0  0
  -14.4985  -38.1756  -12.5254 C   0  0  0  0  0  0  0  0  0  0  0  0
  -13.3416  -34.3017  -11.2522 C   0  0  0  0  0  0  0  0  0  0  0  0
  -13.8897  -33.2338  -12.1619 C   0  0  0  0  0  0  0  0  0  0  0  0
  -13.8336  -34.1149   -9.8101 C   0  0  0  0  0  0  0  0  0  0  0  0
  1  2  1  0
  2  3  1  0
  3  4  2  0
  4  5  1  0
  5  6  2  0
  6  7  1  0
  8  7  1  1
  8  9  1  0
  9 10  1  0
 10 11  2  0
 10 12  1  0
 12 13  2  0
 13 14  1  0
 14 15  1  0
 15 16  1  0
 14 17  2  0
 17 18  1  0
 18 19  2  0
 18 20  1  0
 20 21  1  0
 21 22  1  0
 22 23  1  0
 23 24  1  0
 24 25  1  0
 25 26  1  0
 26 27  2  0
  8 28  1  0
 28 29  1  6
 28 30  1  0
 30 31  1  0
 31 32  1  0
 32 33  1  0
 33 34  2  0
 34 35  1  0
 35 36  2  0
 36 37  1  0
 37 38  2  0
 35 39  1  0
 39 40  1  0
 39 41  1  0
 19 12  1  0
 26  3  1  0
 27  6  1  0
 38 33  1  0
M  END
$$$$
