
     RDKit          3D

 41 44  0  0  0  0  0  0  0  0999 V2000
  -22.7781  -41.4036   -3.1964 C   0  0  0  0  0  0  0  0  0  0  0  0
  -22.8811  -40.8291   -4.4546 O   0  0  0  0  0  0  0  0  0  0  0  0
  -21.8051  -40.1470   -5.0814 C   0  0  0  0  0  0  0  0  0  0  0  0
  -20.6647  -40.0522   -4.3194 C   0  0  0  0  0  0  0  0  0  0  0  0
  -19.6257  -39.3893   -4.9255 C   0  0  0  0  0  0  0  0  0  0  0  0
  -19.6876  -38.8380   -6.2189 C   0  0  0  0  0  0  0  0  0  0  0  0
  -18.3718  -38.2012   -6.5995 C   0  0  0  0  0  0  0  0  0  0  0  0
  -17.6877  -38.7329   -7.8003 C   0  0  2  0  0  0  0  0  0  0  0  0
  -16.6684  -39.6771   -7.4556 N   0  0  0  0  0  0  0  0  0  0  0  0
  -16.6834  -41.0581   -7.7977 C   0  0  0  0  0  0  0  0  0  0  0  0
  -15.7009  -41.6913   -7.2173 O   0  0  0  0  0  0  0  0  0  0  0  0
  -17.5739  -41.8454   -8.6552 C   0  0  0  0  0  0  0  0  0  0  0  0
  -16.7844  -42.6955   -9.4835 C   0  0  0  0  0  0  0  0  0  0  0  0
  -17.3065  -43.5391  -10.4198 C   0  0  0  0  0  0  0  0  0  0  0  0
  -16.4451  -44.4106  -11.2745 C   0  0  0  0  0  0  0  0  0  0  0  0
  -16.2336  -43.8291  -12.5149 O   0  0  0  0  0  0  0  0  0  0  0  0
  -18.6610  -43.5351  -10.5336 C   0  0  0  0  0  0  0  0  0  0  0  0
  -19.5165  -42.7161   -9.7436 C   0  0  0  0  0  0  0  0  0  0  0  0
  -18.9543  -41.8725   -8.8001 C   0  0  0  0  0  0  0  0  0  0  0  0
  -20.8663  -42.9430  -10.1446 N   0  0  0  0  0  0  0  0  0  0  0  0
  -21.9315  -41.9989  -10.4941 C   0  0  0  0  0  0  0  0  0  0  0  0
  -23.1969  -42.2264   -9.7457 C   0  0  0  0  0  0  0  0  0  0  0  0
  -23.0807  -41.8942   -8.2776 C   0  0  0  0  0  0  0  0  0  0  0  0
  -23.6127  -40.5206   -8.0725 C   0  0  0  0  0  0  0  0  0  0  0  0
  -23.1647  -39.8585   -6.9149 O   0  0  0  0  0  0  0  0  0  0  0  0
  -21.9131  -39.6141   -6.3763 C   0  0  0  0  0  0  0  0  0  0  0  0
  -20.8305  -38.9438   -6.9511 C   0  0  0  0  0  0  0  0  0  0  0  0
  -17.1454  -37.6685   -8.6922 C   0  0  2  0  0  0  0  0  0  0  0  0
  -18.0820  -37.4000   -9.7481 O   0  0  0  0  0  0  0  0  0  0  0  0
  -15.8184  -37.8440   -9.3112 C   0  0  0  0  0  0  0  0  0  0  0  0
  -14.7801  -36.9253   -8.9436 N   0  0  0  0  0  0  0  0  0  0  0  0
  -13.5773  -37.1319   -9.7385 C   0  0  0  0  0  0  0  0  0  0  0  0
  -13.4016  -38.5059  -10.2293 C   0  0  0  0  0  0  0  0  0  0  0  0
  -12.7910  -39.5143   -9.4745 C   0  0  0  0  0  0  0  0  0  0  0  0
  -12.6065  -40.7703   -9.9696 C   0  0  0  0  0  0  0  0  0  0  0  0
  -13.0132  -41.1158  -11.2397 C   0  0  0  0  0  0  0  0  0  0  0  0
  -13.6151  -40.1332  -11.9878 C   0  0  0  0  0  0  0  0  0  0  0  0
  -13.8162  -38.8504  -11.5167 C   0  0  0  0  0  0  0  0  0  0  0  0
  -11.9507  -41.8029   -9.1147 C   0  0  0  0  0  0  0  0  0  0  0  0
  -12.9711  -42.6812   -8.4397 C   0  0  0  0  0  0  0  0  0  0  0  0
  -11.0009  -42.6250   -9.9970 C   0  0  0  0  0  0  0  0  0  0  0  0
  1  2  1  0
  2  3  1  0
  3  4  2  0
  4  5  1  0
  5  6  2  0
  6  7  1  0
  8  7  1  1
  8  9  1  0
  9 10  1  0
 10 11  2  0
 10 12  1  0
 12 13  2  0
 13 14  1  0
 14 15  1  0
 15 16  1  0
 14 17  2  0
 17 18  1  0
 18 19  2  0
 18 20  1  0
 20 21  1  0
 21 22  1  0
 22 23  1  0
 23 24  1  0
 24 25  1  0
 25 26  1  0
 26 27  2  0
  8 28  1  0
 28 29  1  6
 28 30  1  0
 30 31  1  0
 31 32  1  0
 32 33  1  0
 33 34  2  0
 34 35  1  0
 35 36  2  0
 36 37  1  0
 37 38  2  0
 35 39  1  0
 39 40  1  0
 39 41  1  0
 19 12  1  0
 26  3  1  0
 27  6  1  0
 38 33  1  0
M  END
$$$$
