
     RDKit          3D

 41 44  0  0  0  0  0  0  0  0999 V2000
  -22.9360  -40.2924   -2.5547 C   0  0  0  0  0  0  0  0  0  0  0  0
  -22.6630  -40.8699   -3.7858 O   0  0  0  0  0  0  0  0  0  0  0  0
  -21.7130  -40.3345   -4.6952 C   0  0  0  0  0  0  0  0  0  0  0  0
  -20.5144  -39.9742   -4.1262 C   0  0  0  0  0  0  0  0  0  0  0  0
  -19.5975  -39.4534   -5.0062 C   0  0  0  0  0  0  0  0  0  0  0  0
  -19.8313  -39.2864   -6.3840 C   0  0  0  0  0  0  0  0  0  0  0  0
  -18.6156  -38.7140   -7.0738 C   0  0  0  0  0  0  0  0  0  0  0  0
  -18.0124  -39.5223   -8.1580 C   0  0  2  0  0  0  0  0  0  0  0  0
  -16.8908  -40.2807   -7.6930 N   0  0  0  0  0  0  0  0  0  0  0  0
  -16.8274  -41.7012   -7.6453 C   0  0  0  0  0  0  0  0  0  0  0  0
  -15.7443  -42.0978   -7.0348 O   0  0  0  0  0  0  0  0  0  0  0  0
  -17.7313  -42.7398   -8.1478 C   0  0  0  0  0  0  0  0  0  0  0  0
  -16.9610  -43.7449   -8.8024 C   0  0  0  0  0  0  0  0  0  0  0  0
  -17.5028  -44.8406   -9.4082 C   0  0  0  0  0  0  0  0  0  0  0  0
  -16.6621  -45.8699  -10.0906 C   0  0  0  0  0  0  0  0  0  0  0  0
  -16.6907  -47.0688   -9.3953 O   0  0  0  0  0  0  0  0  0  0  0  0
  -18.8577  -44.9372   -9.3592 C   0  0  0  0  0  0  0  0  0  0  0  0
  -19.6948  -43.9759   -8.7252 C   0  0  0  0  0  0  0  0  0  0  0  0
  -19.1125  -42.8763   -8.1172 C   0  0  0  0  0  0  0  0  0  0  0  0
  -21.0547  -44.3736   -8.8889 N   0  0  0  0  0  0  0  0  0  0  0  0
  -22.2223  -43.6189   -9.3531 C   0  0  0  0  0  0  0  0  0  0  0  0
  -23.3849  -43.6941   -8.4280 C   0  0  0  0  0  0  0  0  0  0  0  0
  -23.1517  -42.9623   -7.1284 C   0  0  0  0  0  0  0  0  0  0  0  0
  -23.7707  -41.6146   -7.2410 C   0  0  0  0  0  0  0  0  0  0  0  0
  -23.2659  -40.6355   -6.3660 O   0  0  0  0  0  0  0  0  0  0  0  0
  -21.9912  -40.1879   -6.0640 C   0  0  0  0  0  0  0  0  0  0  0  0
  -21.0286  -39.6491   -6.9212 C   0  0  0  0  0  0  0  0  0  0  0  0
  -17.6490  -38.7209   -9.3614 C   0  0  2  0  0  0  0  0  0  0  0  0
  -18.8327  -38.4253  -10.1201 O   0  0  0  0  0  0  0  0  0  0  0  0
  -16.6377  -39.2381  -10.3019 C   0  0  0  0  0  0  0  0  0  0  0  0
  -15.3362  -39.5468   -9.7843 N   0  0  0  0  0  0  0  0  0  0  0  0
  -14.3642  -39.7269  -10.8540 C   0  0  0  0  0  0  0  0  0  0  0  0
  -14.0507  -38.5021  -11.6031 C   0  0  0  0  0  0  0  0  0  0  0  0
  -14.3369  -37.2188  -11.1228 C   0  0  0  0  0  0  0  0  0  0  0  0
  -14.0703  -36.1016  -11.8559 C   0  0  0  0  0  0  0  0  0  0  0  0
  -13.5024  -36.1751  -13.1089 C   0  0  0  0  0  0  0  0  0  0  0  0
  -13.2164  -37.4304  -13.5884 C   0  0  0  0  0  0  0  0  0  0  0  0
  -13.4748  -38.5827  -12.8719 C   0  0  0  0  0  0  0  0  0  0  0  0
  -14.3968  -34.7607  -11.2878 C   0  0  0  0  0  0  0  0  0  0  0  0
  -13.1607  -33.9119  -11.1467 C   0  0  0  0  0  0  0  0  0  0  0  0
  -15.4339  -34.0915  -12.2005 C   0  0  0  0  0  0  0  0  0  0  0  0
  1  2  1  0
  2  3  1  0
  3  4  2  0
  4  5  1  0
  5  6  2  0
  6  7  1  0
  8  7  1  1
  8  9  1  0
  9 10  1  0
 10 11  2  0
 10 12  1  0
 12 13  2  0
 13 14  1  0
 14 15  1  0
 15 16  1  0
 14 17  2  0
 17 18  1  0
 18 19  2  0
 18 20  1  0
 20 21  1  0
 21 22  1  0
 22 23  1  0
 23 24  1  0
 24 25  1  0
 25 26  1  0
 26 27  2  0
  8 28  1  0
 28 29  1  6
 28 30  1  0
 30 31  1  0
 31 32  1  0
 32 33  1  0
 33 34  2  0
 34 35  1  0
 35 36  2  0
 36 37  1  0
 37 38  2  0
 35 39  1  0
 39 40  1  0
 39 41  1  0
 19 12  1  0
 26  3  1  0
 27  6  1  0
 38 33  1  0
M  END
$$$$
