
     RDKit          3D

 41 44  0  0  0  0  0  0  0  0999 V2000
  -22.2947  -41.8514   -1.6836 C   0  0  0  0  0  0  0  0  0  0  0  0
  -22.2797  -41.8635   -3.0705 O   0  0  0  0  0  0  0  0  0  0  0  0
  -21.4604  -40.9963   -3.8404 C   0  0  0  0  0  0  0  0  0  0  0  0
  -20.1781  -40.8485   -3.3668 C   0  0  0  0  0  0  0  0  0  0  0  0
  -19.3876  -40.0070   -4.1106 C   0  0  0  0  0  0  0  0  0  0  0  0
  -19.8209  -39.3332   -5.2677 C   0  0  0  0  0  0  0  0  0  0  0  0
  -18.7045  -38.5086   -5.8639 C   0  0  0  0  0  0  0  0  0  0  0  0
  -18.2996  -38.8256   -7.2525 C   0  0  2  0  0  0  0  0  0  0  0  0
  -17.1469  -39.6737   -7.2883 N   0  0  0  0  0  0  0  0  0  0  0  0
  -17.1249  -41.0027   -7.7957 C   0  0  0  0  0  0  0  0  0  0  0  0
  -15.9761  -41.5732   -7.5551 O   0  0  0  0  0  0  0  0  0  0  0  0
  -18.1289  -41.7947   -8.5120 C   0  0  0  0  0  0  0  0  0  0  0  0
  -17.5006  -42.4530   -9.6093 C   0  0  0  0  0  0  0  0  0  0  0  0
  -18.1642  -43.2486  -10.4967 C   0  0  0  0  0  0  0  0  0  0  0  0
  -17.4714  -43.9168  -11.6393 C   0  0  0  0  0  0  0  0  0  0  0  0
  -16.7986  -45.0509  -11.2119 O   0  0  0  0  0  0  0  0  0  0  0  0
  -19.4988  -43.3928  -10.2825 C   0  0  0  0  0  0  0  0  0  0  0  0
  -20.1976  -42.7690   -9.2105 C   0  0  0  0  0  0  0  0  0  0  0  0
  -19.4934  -41.9694   -8.3257 C   0  0  0  0  0  0  0  0  0  0  0  0
  -21.5793  -43.1102   -9.3041 N   0  0  0  0  0  0  0  0  0  0  0  0
  -22.7774  -42.2671   -9.2620 C   0  0  0  0  0  0  0  0  0  0  0  0
  -23.7890  -42.7206   -8.2699 C   0  0  0  0  0  0  0  0  0  0  0  0
  -23.3377  -42.5342   -6.8414 C   0  0  0  0  0  0  0  0  0  0  0  0
  -23.9207  -41.2626   -6.3363 C   0  0  0  0  0  0  0  0  0  0  0  0
  -23.2569  -40.6784   -5.2422 O   0  0  0  0  0  0  0  0  0  0  0  0
  -21.9368  -40.3460   -4.9904 C   0  0  0  0  0  0  0  0  0  0  0  0
  -21.0970  -39.4953   -5.7134 C   0  0  0  0  0  0  0  0  0  0  0  0
  -18.0951  -37.6161   -8.0999 C   0  0  2  0  0  0  0  0  0  0  0  0
  -19.3214  -36.8723   -8.1833 O   0  0  0  0  0  0  0  0  0  0  0  0
  -17.5749  -37.7681   -9.4714 C   0  0  0  0  0  0  0  0  0  0  0  0
  -16.5188  -36.8922   -9.8890 N   0  0  0  0  0  0  0  0  0  0  0  0
  -15.2318  -37.3120   -9.3515 C   0  0  0  0  0  0  0  0  0  0  0  0
  -14.2615  -37.7456  -10.3664 C   0  0  0  0  0  0  0  0  0  0  0  0
  -13.2707  -36.9036  -10.8848 C   0  0  0  0  0  0  0  0  0  0  0  0
  -12.4083  -37.3209  -11.8537 C   0  0  0  0  0  0  0  0  0  0  0  0
  -12.4639  -38.5954  -12.3738 C   0  0  0  0  0  0  0  0  0  0  0  0
  -13.4321  -39.4299  -11.8702 C   0  0  0  0  0  0  0  0  0  0  0  0
  -14.3223  -39.0383  -10.8893 C   0  0  0  0  0  0  0  0  0  0  0  0
  -11.3718  -36.3763  -12.3644 C   0  0  0  0  0  0  0  0  0  0  0  0
  -11.5612  -36.1001  -13.8328 C   0  0  0  0  0  0  0  0  0  0  0  0
  -11.4488  -35.0852  -11.5377 C   0  0  0  0  0  0  0  0  0  0  0  0
  1  2  1  0
  2  3  1  0
  3  4  2  0
  4  5  1  0
  5  6  2  0
  6  7  1  0
  8  7  1  1
  8  9  1  0
  9 10  1  0
 10 11  2  0
 10 12  1  0
 12 13  2  0
 13 14  1  0
 14 15  1  0
 15 16  1  0
 14 17  2  0
 17 18  1  0
 18 19  2  0
 18 20  1  0
 20 21  1  0
 21 22  1  0
 22 23  1  0
 23 24  1  0
 24 25  1  0
 25 26  1  0
 26 27  2  0
  8 28  1  0
 28 29  1  6
 28 30  1  0
 30 31  1  0
 31 32  1  0
 32 33  1  0
 33 34  2  0
 34 35  1  0
 35 36  2  0
 36 37  1  0
 37 38  2  0
 35 39  1  0
 39 40  1  0
 39 41  1  0
 19 12  1  0
 26  3  1  0
 27  6  1  0
 38 33  1  0
M  END
$$$$
