
     RDKit          3D

 41 44  0  0  0  0  0  0  0  0999 V2000
  -23.6243  -40.8910   -3.4320 C   0  0  0  0  0  0  0  0  0  0  0  0
  -23.3042  -41.0535   -4.7717 O   0  0  0  0  0  0  0  0  0  0  0  0
  -22.2452  -40.3487   -5.4025 C   0  0  0  0  0  0  0  0  0  0  0  0
  -21.1927  -40.0347   -4.5755 C   0  0  0  0  0  0  0  0  0  0  0  0
  -20.1705  -39.3501   -5.1860 C   0  0  0  0  0  0  0  0  0  0  0  0
  -20.1668  -38.9821   -6.5444 C   0  0  0  0  0  0  0  0  0  0  0  0
  -18.8882  -38.2644   -6.9074 C   0  0  0  0  0  0  0  0  0  0  0  0
  -18.0507  -38.8727   -7.9662 C   0  0  2  0  0  0  0  0  0  0  0  0
  -16.9820  -39.6503   -7.4161 N   0  0  0  0  0  0  0  0  0  0  0  0
  -16.8350  -41.0578   -7.5629 C   0  0  0  0  0  0  0  0  0  0  0  0
  -15.8537  -41.5019   -6.8262 O   0  0  0  0  0  0  0  0  0  0  0  0
  -17.5654  -42.0404   -8.3686 C   0  0  0  0  0  0  0  0  0  0  0  0
  -16.6271  -42.9027   -9.0074 C   0  0  0  0  0  0  0  0  0  0  0  0
  -16.9798  -43.9120   -9.8546 C   0  0  0  0  0  0  0  0  0  0  0  0
  -15.9658  -44.7912  -10.5109 C   0  0  0  0  0  0  0  0  0  0  0  0
  -15.6920  -44.3521  -11.7969 O   0  0  0  0  0  0  0  0  0  0  0  0
  -18.3127  -44.0666  -10.0719 C   0  0  0  0  0  0  0  0  0  0  0  0
  -19.3101  -43.2470   -9.4718 C   0  0  0  0  0  0  0  0  0  0  0  0
  -18.9182  -42.2326   -8.6142 C   0  0  0  0  0  0  0  0  0  0  0  0
  -20.5904  -43.6663   -9.9401 N   0  0  0  0  0  0  0  0  0  0  0  0
  -21.7042  -42.8943  -10.4985 C   0  0  0  0  0  0  0  0  0  0  0  0
  -23.0049  -43.1553   -9.8254 C   0  0  0  0  0  0  0  0  0  0  0  0
  -23.0543  -42.6237   -8.4132 C   0  0  0  0  0  0  0  0  0  0  0  0
  -23.7305  -41.2994   -8.4428 C   0  0  0  0  0  0  0  0  0  0  0  0
  -23.4541  -40.4481   -7.3575 O   0  0  0  0  0  0  0  0  0  0  0  0
  -22.2853  -40.0040   -6.7633 C   0  0  0  0  0  0  0  0  0  0  0  0
  -21.2234  -39.3033   -7.3406 C   0  0  0  0  0  0  0  0  0  0  0  0
  -17.5331  -37.8824   -8.9531 C   0  0  2  0  0  0  0  0  0  0  0  0
  -18.3986  -37.8453  -10.0992 O   0  0  0  0  0  0  0  0  0  0  0  0
  -16.1488  -38.0028   -9.4471 C   0  0  0  0  0  0  0  0  0  0  0  0
  -15.1224  -38.3187   -8.4963 N   0  0  0  0  0  0  0  0  0  0  0  0
  -13.7975  -38.0136   -9.0186 C   0  0  0  0  0  0  0  0  0  0  0  0
  -13.7930  -37.0956  -10.1661 C   0  0  0  0  0  0  0  0  0  0  0  0
  -13.2398  -37.4282  -11.4081 C   0  0  0  0  0  0  0  0  0  0  0  0
  -13.2150  -36.5429  -12.4436 C   0  0  0  0  0  0  0  0  0  0  0  0
  -13.7353  -35.2729  -12.3242 C   0  0  0  0  0  0  0  0  0  0  0  0
  -14.2820  -34.9374  -11.1093 C   0  0  0  0  0  0  0  0  0  0  0  0
  -14.3221  -35.8102  -10.0394 C   0  0  0  0  0  0  0  0  0  0  0  0
  -12.6128  -36.9579  -13.7445 C   0  0  0  0  0  0  0  0  0  0  0  0
  -11.1917  -37.4232  -13.5646 C   0  0  0  0  0  0  0  0  0  0  0  0
  -13.4905  -38.0621  -14.3501 C   0  0  0  0  0  0  0  0  0  0  0  0
  1  2  1  0
  2  3  1  0
  3  4  2  0
  4  5  1  0
  5  6  2  0
  6  7  1  0
  8  7  1  1
  8  9  1  0
  9 10  1  0
 10 11  2  0
 10 12  1  0
 12 13  2  0
 13 14  1  0
 14 15  1  0
 15 16  1  0
 14 17  2  0
 17 18  1  0
 18 19  2  0
 18 20  1  0
 20 21  1  0
 21 22  1  0
 22 23  1  0
 23 24  1  0
 24 25  1  0
 25 26  1  0
 26 27  2  0
  8 28  1  0
 28 29  1  6
 28 30  1  0
 30 31  1  0
 31 32  1  0
 32 33  1  0
 33 34  2  0
 34 35  1  0
 35 36  2  0
 36 37  1  0
 37 38  2  0
 35 39  1  0
 39 40  1  0
 39 41  1  0
 19 12  1  0
 26  3  1  0
 27  6  1  0
 38 33  1  0
M  END
$$$$
