
     RDKit          3D

 30 32  0  0  0  0  0  0  0  0999 V2000
  -16.0309  -46.9561  -10.5161 C   0  0  0  0  0  0  0  0  0  0  0  0
  -16.4615  -46.3562   -9.3356 O   0  0  0  0  0  0  0  0  0  0  0  0
  -17.8518  -46.3678   -9.3561 C   0  0  0  0  0  0  0  0  0  0  0  0
  -18.4410  -45.2888   -8.5210 C   0  0  0  0  0  0  0  0  0  0  0  0
  -19.7529  -45.2945   -8.1368 C   0  0  0  0  0  0  0  0  0  0  0  0
  -20.3507  -44.2809   -7.3384 C   0  0  0  0  0  0  0  0  0  0  0  0
  -19.5796  -43.2215   -6.9167 C   0  0  0  0  0  0  0  0  0  0  0  0
  -18.2568  -43.1740   -7.2799 C   0  0  0  0  0  0  0  0  0  0  0  0
  -17.7155  -44.2164   -8.0782 C   0  0  0  0  0  0  0  0  0  0  0  0
  -17.1978  -42.1886   -6.9888 C   0  0  0  0  0  0  0  0  0  0  0  0
  -15.9909  -42.6564   -6.6822 O   0  0  0  0  0  0  0  0  0  0  0  0
  -17.1573  -40.7896   -6.9583 N   0  0  0  0  0  0  0  0  0  0  0  0
  -17.5197  -39.8940   -8.0788 C   0  0  1  0  0  0  0  0  0  0  0  0
  -18.2007  -38.7110   -7.4201 C   0  0  0  0  0  0  0  0  0  0  0  0
  -19.7005  -38.8496   -7.3873 C   0  0  0  0  0  0  0  0  0  0  0  0
  -20.2947  -38.0728   -8.4089 C   0  0  0  0  0  0  0  0  0  0  0  0
  -21.6382  -38.0550   -8.6651 C   0  0  0  0  0  0  0  0  0  0  0  0
  -22.3997  -38.8587   -7.8530 C   0  0  0  0  0  0  0  0  0  0  0  0
  -21.8503  -39.6530   -6.8216 C   0  0  0  0  0  0  0  0  0  0  0  0
  -20.4777  -39.6371   -6.5899 C   0  0  0  0  0  0  0  0  0  0  0  0
  -22.8367  -40.3710   -6.1708 O   0  0  0  0  0  0  0  0  0  0  0  0
  -23.1370  -41.7067   -5.9430 C   0  0  0  0  0  0  0  0  0  0  0  0
  -22.4873  -42.3009   -4.7488 C   0  0  0  0  0  0  0  0  0  0  0  0
  -22.1381  -43.7545   -4.8372 C   0  0  0  0  0  0  0  0  0  0  0  0
  -22.6343  -44.4934   -6.0242 C   0  0  0  0  0  0  0  0  0  0  0  0
  -21.7306  -44.5886   -7.1442 N   0  0  0  0  0  0  0  0  0  0  0  0
  -16.2689  -39.4807   -8.8118 C   0  0  2  0  0  0  0  0  0  0  0  0
  -16.5003  -39.1465  -10.1433 O   0  0  0  0  0  0  0  0  0  0  0  0
  -15.1080  -40.3909   -8.7011 C   0  0  0  0  0  0  0  0  0  0  0  0
  -14.8013  -40.9239   -7.4216 N   0  0  0  0  0  0  0  0  0  0  0  0
  1  2  1  0
  2  3  1  0
  3  4  1  0
  4  5  2  0
  5  6  1  0
  6  7  2  0
  7  8  1  0
  8  9  2  0
  8 10  1  0
 10 11  2  0
 10 12  1  0
 12 13  1  0
 13 14  1  1
 14 15  1  0
 15 16  2  0
 16 17  1  0
 17 18  2  0
 18 19  1  0
 19 20  2  0
 19 21  1  0
 21 22  1  0
 22 23  1  0
 23 24  1  0
 24 25  1  0
 25 26  1  0
 13 27  1  0
 27 28  1  6
 27 29  1  0
 29 30  1  0
  9  4  1  0
 20 15  1  0
 26  6  1  0
M  END
$$$$
