
     RDKit          3D

 30 32  0  0  0  0  0  0  0  0999 V2000
  -15.1894  -46.7659  -10.0902 C   0  0  0  0  0  0  0  0  0  0  0  0
  -15.6992  -45.4913   -9.8573 O   0  0  0  0  0  0  0  0  0  0  0  0
  -17.0740  -45.5600  -10.0540 C   0  0  0  0  0  0  0  0  0  0  0  0
  -17.8259  -44.6842   -9.1178 C   0  0  0  0  0  0  0  0  0  0  0  0
  -19.1562  -44.8621   -8.8580 C   0  0  0  0  0  0  0  0  0  0  0  0
  -19.9075  -44.0453   -7.9688 C   0  0  0  0  0  0  0  0  0  0  0  0
  -19.2765  -43.0077   -7.3209 C   0  0  0  0  0  0  0  0  0  0  0  0
  -17.9412  -42.7912   -7.5527 C   0  0  0  0  0  0  0  0  0  0  0  0
  -17.2430  -43.6409   -8.4512 C   0  0  0  0  0  0  0  0  0  0  0  0
  -17.0074  -41.7808   -7.0189 C   0  0  0  0  0  0  0  0  0  0  0  0
  -15.7873  -42.1895   -6.6819 O   0  0  0  0  0  0  0  0  0  0  0  0
  -17.1052  -40.4070   -6.7685 N   0  0  0  0  0  0  0  0  0  0  0  0
  -17.4678  -39.3749   -7.7646 C   0  0  1  0  0  0  0  0  0  0  0  0
  -18.3077  -38.3758   -6.9942 C   0  0  0  0  0  0  0  0  0  0  0  0
  -19.7852  -38.6431   -7.1174 C   0  0  0  0  0  0  0  0  0  0  0  0
  -20.3738  -37.7633   -8.0553 C   0  0  0  0  0  0  0  0  0  0  0  0
  -21.6897  -37.8168   -8.4247 C   0  0  0  0  0  0  0  0  0  0  0  0
  -22.4284  -38.8026   -7.8183 C   0  0  0  0  0  0  0  0  0  0  0  0
  -21.8833  -39.7050   -6.8775 C   0  0  0  0  0  0  0  0  0  0  0  0
  -20.5399  -39.6120   -6.5243 C   0  0  0  0  0  0  0  0  0  0  0  0
  -22.8414  -40.5993   -6.4365 O   0  0  0  0  0  0  0  0  0  0  0  0
  -23.0270  -41.9747   -6.4462 C   0  0  0  0  0  0  0  0  0  0  0  0
  -22.4140  -42.6984   -5.3053 C   0  0  0  0  0  0  0  0  0  0  0  0
  -21.9198  -44.0839   -5.5862 C   0  0  0  0  0  0  0  0  0  0  0  0
  -22.2517  -44.6591   -6.9129 C   0  0  0  0  0  0  0  0  0  0  0  0
  -21.2618  -44.4951   -7.9488 N   0  0  0  0  0  0  0  0  0  0  0  0
  -16.2117  -38.7447   -8.3100 C   0  0  2  0  0  0  0  0  0  0  0  0
  -16.3786  -38.2039   -9.5819 O   0  0  0  0  0  0  0  0  0  0  0  0
  -14.9832  -39.5670   -8.2547 C   0  0  0  0  0  0  0  0  0  0  0  0
  -14.5155  -40.1449   -9.4640 N   0  0  0  0  0  0  0  0  0  0  0  0
  1  2  1  0
  2  3  1  0
  3  4  1  0
  4  5  2  0
  5  6  1  0
  6  7  2  0
  7  8  1  0
  8  9  2  0
  8 10  1  0
 10 11  2  0
 10 12  1  0
 12 13  1  0
 13 14  1  1
 14 15  1  0
 15 16  2  0
 16 17  1  0
 17 18  2  0
 18 19  1  0
 19 20  2  0
 19 21  1  0
 21 22  1  0
 22 23  1  0
 23 24  1  0
 24 25  1  0
 25 26  1  0
 13 27  1  0
 27 28  1  6
 27 29  1  0
 29 30  1  0
  9  4  1  0
 20 15  1  0
 26  6  1  0
M  END
$$$$
