
     RDKit          3D

 30 32  0  0  0  0  0  0  0  0999 V2000
  -15.6527  -47.2653   -9.4159 C   0  0  0  0  0  0  0  0  0  0  0  0
  -15.5434  -45.8912   -9.6125 O   0  0  0  0  0  0  0  0  0  0  0  0
  -16.7657  -45.4520  -10.1090 C   0  0  0  0  0  0  0  0  0  0  0  0
  -17.5170  -44.6314   -9.1236 C   0  0  0  0  0  0  0  0  0  0  0  0
  -18.8192  -44.8896   -8.7977 C   0  0  0  0  0  0  0  0  0  0  0  0
  -19.5690  -44.1274   -7.8601 C   0  0  0  0  0  0  0  0  0  0  0  0
  -18.9661  -43.0613   -7.2319 C   0  0  0  0  0  0  0  0  0  0  0  0
  -17.6595  -42.7646   -7.5295 C   0  0  0  0  0  0  0  0  0  0  0  0
  -16.9614  -43.5627   -8.4742 C   0  0  0  0  0  0  0  0  0  0  0  0
  -16.7592  -41.7068   -7.0314 C   0  0  0  0  0  0  0  0  0  0  0  0
  -15.5014  -42.0467   -6.7634 O   0  0  0  0  0  0  0  0  0  0  0  0
  -16.9232  -40.3438   -6.7580 N   0  0  0  0  0  0  0  0  0  0  0  0
  -17.3967  -39.3244   -7.7201 C   0  0  1  0  0  0  0  0  0  0  0  0
  -18.2516  -38.3842   -6.8940 C   0  0  0  0  0  0  0  0  0  0  0  0
  -19.7155  -38.7364   -6.9442 C   0  0  0  0  0  0  0  0  0  0  0  0
  -20.4025  -37.8829   -7.8386 C   0  0  0  0  0  0  0  0  0  0  0  0
  -21.7306  -38.0096   -8.1401 C   0  0  0  0  0  0  0  0  0  0  0  0
  -22.3781  -39.0432   -7.5095 C   0  0  0  0  0  0  0  0  0  0  0  0
  -21.7331  -39.9217   -6.6102 C   0  0  0  0  0  0  0  0  0  0  0  0
  -20.3807  -39.7539   -6.3258 C   0  0  0  0  0  0  0  0  0  0  0  0
  -22.6133  -40.8751   -6.1322 O   0  0  0  0  0  0  0  0  0  0  0  0
  -22.7191  -42.2588   -6.1506 C   0  0  0  0  0  0  0  0  0  0  0  0
  -22.0062  -42.9570   -5.0527 C   0  0  0  0  0  0  0  0  0  0  0  0
  -21.4480  -44.3083   -5.3773 C   0  0  0  0  0  0  0  0  0  0  0  0
  -21.8151  -44.8883   -6.6925 C   0  0  0  0  0  0  0  0  0  0  0  0
  -20.8920  -44.6559   -7.7760 N   0  0  0  0  0  0  0  0  0  0  0  0
  -16.2095  -38.6161   -8.3214 C   0  0  2  0  0  0  0  0  0  0  0  0
  -16.5274  -37.8902   -9.4658 O   0  0  0  0  0  0  0  0  0  0  0  0
  -14.9981  -39.4345   -8.5477 C   0  0  0  0  0  0  0  0  0  0  0  0
  -14.8273  -40.6012   -7.7573 N   0  0  0  0  0  0  0  0  0  0  0  0
  1  2  1  0
  2  3  1  0
  3  4  1  0
  4  5  2  0
  5  6  1  0
  6  7  2  0
  7  8  1  0
  8  9  2  0
  8 10  1  0
 10 11  2  0
 10 12  1  0
 12 13  1  0
 13 14  1  1
 14 15  1  0
 15 16  2  0
 16 17  1  0
 17 18  2  0
 18 19  1  0
 19 20  2  0
 19 21  1  0
 21 22  1  0
 22 23  1  0
 23 24  1  0
 24 25  1  0
 25 26  1  0
 13 27  1  0
 27 28  1  6
 27 29  1  0
 29 30  1  0
  9  4  1  0
 20 15  1  0
 26  6  1  0
M  END
$$$$
