
     RDKit          3D

 30 32  0  0  0  0  0  0  0  0999 V2000
  -20.7914  -41.3049   -2.0970 C   0  0  0  0  0  0  0  0  0  0  0  0
  -20.5530  -42.2831   -3.0587 O   0  0  0  0  0  0  0  0  0  0  0  0
  -21.6478  -42.2874   -3.9160 C   0  0  0  0  0  0  0  0  0  0  0  0
  -21.2480  -42.2967   -5.3474 C   0  0  0  0  0  0  0  0  0  0  0  0
  -20.8094  -43.4278   -5.9774 C   0  0  0  0  0  0  0  0  0  0  0  0
  -20.4195  -43.4747   -7.3441 C   0  0  0  0  0  0  0  0  0  0  0  0
  -20.4796  -42.3231   -8.0956 C   0  0  0  0  0  0  0  0  0  0  0  0
  -20.9129  -41.1631   -7.5036 C   0  0  0  0  0  0  0  0  0  0  0  0
  -21.2900  -41.1781   -6.1345 C   0  0  0  0  0  0  0  0  0  0  0  0
  -21.0832  -39.7977   -8.0368 C   0  0  0  0  0  0  0  0  0  0  0  0
  -22.1748  -39.1289   -7.6755 O   0  0  0  0  0  0  0  0  0  0  0  0
  -20.3203  -38.9861   -8.8847 N   0  0  0  0  0  0  0  0  0  0  0  0
  -18.9099  -38.5976   -8.6638 C   0  0  1  0  0  0  0  0  0  0  0  0
  -18.2911  -38.5947  -10.0474 C   0  0  0  0  0  0  0  0  0  0  0  0
  -17.6092  -39.8961  -10.3804 C   0  0  0  0  0  0  0  0  0  0  0  0
  -16.2086  -39.7786  -10.2241 C   0  0  0  0  0  0  0  0  0  0  0  0
  -15.3359  -40.8186  -10.3906 C   0  0  0  0  0  0  0  0  0  0  0  0
  -15.9127  -42.0188  -10.7253 C   0  0  0  0  0  0  0  0  0  0  0  0
  -17.3062  -42.1842  -10.8903 C   0  0  0  0  0  0  0  0  0  0  0  0
  -18.1593  -41.0977  -10.7178 C   0  0  0  0  0  0  0  0  0  0  0  0
  -17.6148  -43.4931  -11.2125 O   0  0  0  0  0  0  0  0  0  0  0  0
  -18.3689  -44.5221  -10.6660 C   0  0  0  0  0  0  0  0  0  0  0  0
  -19.8026  -44.5203  -11.0479 C   0  0  0  0  0  0  0  0  0  0  0  0
  -20.7636  -45.0366  -10.0218 C   0  0  0  0  0  0  0  0  0  0  0  0
  -20.1800  -45.6617   -8.8095 C   0  0  0  0  0  0  0  0  0  0  0  0
  -19.9991  -44.7997   -7.6674 N   0  0  0  0  0  0  0  0  0  0  0  0
  -18.8623  -37.2314   -8.0285 C   0  0  2  0  0  0  0  0  0  0  0  0
  -17.5762  -36.8411   -7.6658 O   0  0  0  0  0  0  0  0  0  0  0  0
  -19.8095  -36.9864   -6.9187 C   0  0  0  0  0  0  0  0  0  0  0  0
  -21.1202  -37.5193   -7.0342 N   0  0  0  0  0  0  0  0  0  0  0  0
  1  2  1  0
  2  3  1  0
  3  4  1  0
  4  5  2  0
  5  6  1  0
  6  7  2  0
  7  8  1  0
  8  9  2  0
  8 10  1  0
 10 11  2  0
 10 12  1  0
 12 13  1  0
 13 14  1  6
 14 15  1  0
 15 16  2  0
 16 17  1  0
 17 18  2  0
 18 19  1  0
 19 20  2  0
 19 21  1  0
 21 22  1  0
 22 23  1  0
 23 24  1  0
 24 25  1  0
 25 26  1  0
 13 27  1  0
 27 28  1  1
 27 29  1  0
 29 30  1  0
  9  4  1  0
 20 15  1  0
 26  6  1  0
M  END
$$$$
