
     RDKit          3D

 30 32  0  0  0  0  0  0  0  0999 V2000
  -15.0280  -45.5331   -9.2962 C   0  0  0  0  0  0  0  0  0  0  0  0
  -15.8376  -46.1702  -10.2328 O   0  0  0  0  0  0  0  0  0  0  0  0
  -16.6241  -45.1890  -10.8264 C   0  0  0  0  0  0  0  0  0  0  0  0
  -17.4715  -44.4677   -9.8412 C   0  0  0  0  0  0  0  0  0  0  0  0
  -18.7758  -44.8063   -9.6112 C   0  0  0  0  0  0  0  0  0  0  0  0
  -19.6159  -44.1401   -8.6770 C   0  0  0  0  0  0  0  0  0  0  0  0
  -19.1048  -43.0885   -7.9508 C   0  0  0  0  0  0  0  0  0  0  0  0
  -17.7998  -42.7131   -8.1501 C   0  0  0  0  0  0  0  0  0  0  0  0
  -17.0089  -43.4170   -9.0965 C   0  0  0  0  0  0  0  0  0  0  0  0
  -16.9842  -41.6477   -7.5357 C   0  0  0  0  0  0  0  0  0  0  0  0
  -15.7285  -41.9447   -7.2125 O   0  0  0  0  0  0  0  0  0  0  0  0
  -17.2321  -40.3136   -7.1919 N   0  0  0  0  0  0  0  0  0  0  0  0
  -17.6998  -39.2592   -8.1184 C   0  0  1  0  0  0  0  0  0  0  0  0
  -18.6473  -38.4135   -7.2912 C   0  0  0  0  0  0  0  0  0  0  0  0
  -20.0863  -38.8298   -7.4513 C   0  0  0  0  0  0  0  0  0  0  0  0
  -20.7624  -37.9550   -8.3332 C   0  0  0  0  0  0  0  0  0  0  0  0
  -22.0628  -38.1244   -8.7220 C   0  0  0  0  0  0  0  0  0  0  0  0
  -22.6929  -39.2245   -8.1949 C   0  0  0  0  0  0  0  0  0  0  0  0
  -22.0576  -40.1266   -7.3121 C   0  0  0  0  0  0  0  0  0  0  0  0
  -20.7341  -39.9140   -6.9365 C   0  0  0  0  0  0  0  0  0  0  0  0
  -22.9149  -41.1481   -6.9464 O   0  0  0  0  0  0  0  0  0  0  0  0
  -22.9497  -42.5313   -7.0539 C   0  0  0  0  0  0  0  0  0  0  0  0
  -22.2674  -43.2630   -5.9583 C   0  0  0  0  0  0  0  0  0  0  0  0
  -21.6240  -44.5637   -6.3285 C   0  0  0  0  0  0  0  0  0  0  0  0
  -21.8847  -45.0767   -7.6959 C   0  0  0  0  0  0  0  0  0  0  0  0
  -20.9133  -44.7340   -8.7054 N   0  0  0  0  0  0  0  0  0  0  0  0
  -16.5170  -38.4600   -8.6029 C   0  0  2  0  0  0  0  0  0  0  0  0
  -16.1839  -38.7244   -9.9285 O   0  0  0  0  0  0  0  0  0  0  0  0
  -15.3082  -38.4876   -7.7504 C   0  0  0  0  0  0  0  0  0  0  0  0
  -15.2331  -39.4779   -6.7361 N   0  0  0  0  0  0  0  0  0  0  0  0
  1  2  1  0
  2  3  1  0
  3  4  1  0
  4  5  2  0
  5  6  1  0
  6  7  2  0
  7  8  1  0
  8  9  2  0
  8 10  1  0
 10 11  2  0
 10 12  1  0
 12 13  1  0
 13 14  1  1
 14 15  1  0
 15 16  2  0
 16 17  1  0
 17 18  2  0
 18 19  1  0
 19 20  2  0
 19 21  1  0
 21 22  1  0
 22 23  1  0
 23 24  1  0
 24 25  1  0
 25 26  1  0
 13 27  1  0
 27 28  1  6
 27 29  1  0
 29 30  1  0
  9  4  1  0
 20 15  1  0
 26  6  1  0
M  END
$$$$
