
     RDKit          3D

 30 32  0  0  0  0  0  0  0  0999 V2000
  -18.0119  -48.4231   -9.1098 C   0  0  0  0  0  0  0  0  0  0  0  0
  -17.3735  -47.4744   -8.3153 O   0  0  0  0  0  0  0  0  0  0  0  0
  -17.4629  -46.2575   -8.9822 C   0  0  0  0  0  0  0  0  0  0  0  0
  -18.2151  -45.2381   -8.2051 C   0  0  0  0  0  0  0  0  0  0  0  0
  -19.5649  -45.3198   -8.0048 C   0  0  0  0  0  0  0  0  0  0  0  0
  -20.3171  -44.3648   -7.2670 C   0  0  0  0  0  0  0  0  0  0  0  0
  -19.6664  -43.2856   -6.7134 C   0  0  0  0  0  0  0  0  0  0  0  0
  -18.3109  -43.1624   -6.8902 C   0  0  0  0  0  0  0  0  0  0  0  0
  -17.6129  -44.1488   -7.6364 C   0  0  0  0  0  0  0  0  0  0  0  0
  -17.3537  -42.1387   -6.4284 C   0  0  0  0  0  0  0  0  0  0  0  0
  -16.1769  -42.5592   -5.9728 O   0  0  0  0  0  0  0  0  0  0  0  0
  -17.3905  -40.7414   -6.3525 N   0  0  0  0  0  0  0  0  0  0  0  0
  -17.6437  -39.8247   -7.4858 C   0  0  1  0  0  0  0  0  0  0  0  0
  -18.4682  -38.6996   -6.8931 C   0  0  0  0  0  0  0  0  0  0  0  0
  -19.9494  -38.9104   -7.0703 C   0  0  0  0  0  0  0  0  0  0  0  0
  -20.4392  -38.1270   -8.1409 C   0  0  0  0  0  0  0  0  0  0  0  0
  -21.7347  -38.1640   -8.5783 C   0  0  0  0  0  0  0  0  0  0  0  0
  -22.5564  -39.0313   -7.9018 C   0  0  0  0  0  0  0  0  0  0  0  0
  -22.1113  -39.8347   -6.8280 C   0  0  0  0  0  0  0  0  0  0  0  0
  -20.7855  -39.7619   -6.4099 C   0  0  0  0  0  0  0  0  0  0  0  0
  -23.1382  -40.6215   -6.3395 O   0  0  0  0  0  0  0  0  0  0  0  0
  -23.3968  -41.9772   -6.1935 C   0  0  0  0  0  0  0  0  0  0  0  0
  -22.8849  -42.5820   -4.9391 C   0  0  0  0  0  0  0  0  0  0  0  0
  -22.4519  -44.0133   -5.0205 C   0  0  0  0  0  0  0  0  0  0  0  0
  -22.7436  -44.7323   -6.2850 C   0  0  0  0  0  0  0  0  0  0  0  0
  -21.6928  -44.7445   -7.2729 N   0  0  0  0  0  0  0  0  0  0  0  0
  -16.3283  -39.3266   -8.0283 C   0  0  2  0  0  0  0  0  0  0  0  0
  -16.4446  -38.7247   -9.2781 O   0  0  0  0  0  0  0  0  0  0  0  0
  -15.2044  -40.2886   -8.0199 C   0  0  0  0  0  0  0  0  0  0  0  0
  -15.0662  -41.1390   -6.8917 N   0  0  0  0  0  0  0  0  0  0  0  0
  1  2  1  0
  2  3  1  0
  3  4  1  0
  4  5  2  0
  5  6  1  0
  6  7  2  0
  7  8  1  0
  8  9  2  0
  8 10  1  0
 10 11  2  0
 10 12  1  0
 12 13  1  0
 13 14  1  1
 14 15  1  0
 15 16  2  0
 16 17  1  0
 17 18  2  0
 18 19  1  0
 19 20  2  0
 19 21  1  0
 21 22  1  0
 22 23  1  0
 23 24  1  0
 24 25  1  0
 25 26  1  0
 13 27  1  0
 27 28  1  6
 27 29  1  0
 29 30  1  0
  9  4  1  0
 20 15  1  0
 26  6  1  0
M  END
$$$$
