
     RDKit          3D

 30 32  0  0  0  0  0  0  0  0999 V2000
  -14.5675  -45.5759   -9.2122 C   0  0  0  0  0  0  0  0  0  0  0  0
  -15.5504  -46.0683  -10.0667 O   0  0  0  0  0  0  0  0  0  0  0  0
  -16.2207  -44.9695  -10.5930 C   0  0  0  0  0  0  0  0  0  0  0  0
  -17.1138  -44.3195   -9.5986 C   0  0  0  0  0  0  0  0  0  0  0  0
  -18.3907  -44.7506   -9.3699 C   0  0  0  0  0  0  0  0  0  0  0  0
  -19.2729  -44.1546   -8.4271 C   0  0  0  0  0  0  0  0  0  0  0  0
  -18.8345  -43.0776   -7.6905 C   0  0  0  0  0  0  0  0  0  0  0  0
  -17.5593  -42.6100   -7.8882 C   0  0  0  0  0  0  0  0  0  0  0  0
  -16.7236  -43.2470   -8.8436 C   0  0  0  0  0  0  0  0  0  0  0  0
  -16.8183  -41.4970   -7.2639 C   0  0  0  0  0  0  0  0  0  0  0  0
  -15.5442  -41.7090   -6.9462 O   0  0  0  0  0  0  0  0  0  0  0  0
  -17.1578  -40.1871   -6.9053 N   0  0  0  0  0  0  0  0  0  0  0  0
  -17.7002  -39.1581   -7.8197 C   0  0  1  0  0  0  0  0  0  0  0  0
  -18.7022  -38.3894   -6.9817 C   0  0  0  0  0  0  0  0  0  0  0  0
  -20.1091  -38.9032   -7.1437 C   0  0  0  0  0  0  0  0  0  0  0  0
  -20.8468  -38.0684   -8.0149 C   0  0  0  0  0  0  0  0  0  0  0  0
  -22.1332  -38.3239   -8.4032 C   0  0  0  0  0  0  0  0  0  0  0  0
  -22.6837  -39.4708   -7.8867 C   0  0  0  0  0  0  0  0  0  0  0  0
  -21.9849  -40.3357   -7.0148 C   0  0  0  0  0  0  0  0  0  0  0  0
  -20.6784  -40.0353   -6.6393 C   0  0  0  0  0  0  0  0  0  0  0  0
  -22.7679  -41.4183   -6.6586 O   0  0  0  0  0  0  0  0  0  0  0  0
  -22.7065  -42.7994   -6.7808 C   0  0  0  0  0  0  0  0  0  0  0  0
  -21.9721  -43.4932   -5.6943 C   0  0  0  0  0  0  0  0  0  0  0  0
  -21.2406  -44.7419   -6.0796 C   0  0  0  0  0  0  0  0  0  0  0  0
  -21.4684  -45.2574   -7.4520 C   0  0  0  0  0  0  0  0  0  0  0  0
  -20.5258  -44.8371   -8.4595 N   0  0  0  0  0  0  0  0  0  0  0  0
  -16.5772  -38.2733   -8.2977 C   0  0  2  0  0  0  0  0  0  0  0  0
  -16.8760  -37.6000   -9.4789 O   0  0  0  0  0  0  0  0  0  0  0  0
  -15.2373  -38.8949   -8.3813 C   0  0  0  0  0  0  0  0  0  0  0  0
  -15.0072  -40.0803   -7.6349 N   0  0  0  0  0  0  0  0  0  0  0  0
  1  2  1  0
  2  3  1  0
  3  4  1  0
  4  5  2  0
  5  6  1  0
  6  7  2  0
  7  8  1  0
  8  9  2  0
  8 10  1  0
 10 11  2  0
 10 12  1  0
 12 13  1  0
 13 14  1  1
 14 15  1  0
 15 16  2  0
 16 17  1  0
 17 18  2  0
 18 19  1  0
 19 20  2  0
 19 21  1  0
 21 22  1  0
 22 23  1  0
 23 24  1  0
 24 25  1  0
 25 26  1  0
 13 27  1  0
 27 28  1  6
 27 29  1  0
 29 30  1  0
  9  4  1  0
 20 15  1  0
 26  6  1  0
M  END
$$$$
