
     RDKit          3D

 30 32  0  0  0  0  0  0  0  0999 V2000
  -16.4434  -47.9040   -8.6988 C   0  0  0  0  0  0  0  0  0  0  0  0
  -16.2124  -46.5322   -8.6407 O   0  0  0  0  0  0  0  0  0  0  0  0
  -17.2381  -45.9158   -9.3489 C   0  0  0  0  0  0  0  0  0  0  0  0
  -18.0018  -44.9498   -8.5168 C   0  0  0  0  0  0  0  0  0  0  0  0
  -19.3385  -45.0935   -8.2696 C   0  0  0  0  0  0  0  0  0  0  0  0
  -20.1011  -44.1907   -7.4786 C   0  0  0  0  0  0  0  0  0  0  0  0
  -19.4750  -43.0999   -6.9194 C   0  0  0  0  0  0  0  0  0  0  0  0
  -18.1334  -42.9150   -7.1424 C   0  0  0  0  0  0  0  0  0  0  0  0
  -17.4240  -43.8512   -7.9406 C   0  0  0  0  0  0  0  0  0  0  0  0
  -17.2024  -41.8643   -6.6877 C   0  0  0  0  0  0  0  0  0  0  0  0
  -15.9929  -42.2465   -6.2873 O   0  0  0  0  0  0  0  0  0  0  0  0
  -17.2939  -40.4722   -6.5718 N   0  0  0  0  0  0  0  0  0  0  0  0
  -17.6272  -39.5377   -7.6693 C   0  0  1  0  0  0  0  0  0  0  0  0
  -18.4745  -38.4643   -7.0158 C   0  0  0  0  0  0  0  0  0  0  0  0
  -19.9513  -38.7328   -7.1444 C   0  0  0  0  0  0  0  0  0  0  0  0
  -20.5131  -37.9429   -8.1742 C   0  0  0  0  0  0  0  0  0  0  0  0
  -21.8215  -38.0231   -8.5648 C   0  0  0  0  0  0  0  0  0  0  0  0
  -22.5807  -38.9418   -7.8829 C   0  0  0  0  0  0  0  0  0  0  0  0
  -22.0627  -39.7535   -6.8488 C   0  0  0  0  0  0  0  0  0  0  0  0
  -20.7261  -39.6357   -6.4777 C   0  0  0  0  0  0  0  0  0  0  0  0
  -23.0370  -40.5955   -6.3450 O   0  0  0  0  0  0  0  0  0  0  0  0
  -23.2339  -41.9642   -6.2273 C   0  0  0  0  0  0  0  0  0  0  0  0
  -22.6506  -42.5794   -5.0097 C   0  0  0  0  0  0  0  0  0  0  0  0
  -22.1623  -43.9886   -5.1466 C   0  0  0  0  0  0  0  0  0  0  0  0
  -22.4716  -44.6859   -6.4190 C   0  0  0  0  0  0  0  0  0  0  0  0
  -21.4592  -44.6279   -7.4446 N   0  0  0  0  0  0  0  0  0  0  0  0
  -16.3549  -38.9705   -8.2455 C   0  0  2  0  0  0  0  0  0  0  0  0
  -16.5455  -38.3289   -9.4661 O   0  0  0  0  0  0  0  0  0  0  0  0
  -15.1971  -39.8885   -8.3188 C   0  0  0  0  0  0  0  0  0  0  0  0
  -15.0901  -40.9030   -7.3317 N   0  0  0  0  0  0  0  0  0  0  0  0
  1  2  1  0
  2  3  1  0
  3  4  1  0
  4  5  2  0
  5  6  1  0
  6  7  2  0
  7  8  1  0
  8  9  2  0
  8 10  1  0
 10 11  2  0
 10 12  1  0
 12 13  1  0
 13 14  1  1
 14 15  1  0
 15 16  2  0
 16 17  1  0
 17 18  2  0
 18 19  1  0
 19 20  2  0
 19 21  1  0
 21 22  1  0
 22 23  1  0
 23 24  1  0
 24 25  1  0
 25 26  1  0
 13 27  1  0
 27 28  1  6
 27 29  1  0
 29 30  1  0
  9  4  1  0
 20 15  1  0
 26  6  1  0
M  END
$$$$
