
     RDKit          3D

 30 32  0  0  0  0  0  0  0  0999 V2000
  -15.0730  -44.7873  -11.7655 C   0  0  0  0  0  0  0  0  0  0  0  0
  -15.4116  -44.4797  -10.4504 O   0  0  0  0  0  0  0  0  0  0  0  0
  -16.6548  -45.0522  -10.2052 C   0  0  0  0  0  0  0  0  0  0  0  0
  -17.4723  -44.2502   -9.2579 C   0  0  0  0  0  0  0  0  0  0  0  0
  -18.7825  -44.5390   -8.9957 C   0  0  0  0  0  0  0  0  0  0  0  0
  -19.5947  -43.7953   -8.0960 C   0  0  0  0  0  0  0  0  0  0  0  0
  -19.0483  -42.7158   -7.4397 C   0  0  0  0  0  0  0  0  0  0  0  0
  -17.7360  -42.3883   -7.6734 C   0  0  0  0  0  0  0  0  0  0  0  0
  -16.9742  -43.1692   -8.5826 C   0  0  0  0  0  0  0  0  0  0  0  0
  -16.8861  -41.3102   -7.1324 C   0  0  0  0  0  0  0  0  0  0  0  0
  -15.6353  -41.6207   -6.8033 O   0  0  0  0  0  0  0  0  0  0  0  0
  -17.0951  -39.9515   -6.8678 N   0  0  0  0  0  0  0  0  0  0  0  0
  -17.5449  -38.9428   -7.8523 C   0  0  1  0  0  0  0  0  0  0  0  0
  -18.4608  -38.0235   -7.0693 C   0  0  0  0  0  0  0  0  0  0  0  0
  -19.9119  -38.4098   -7.1906 C   0  0  0  0  0  0  0  0  0  0  0  0
  -20.5743  -37.5721   -8.1177 C   0  0  0  0  0  0  0  0  0  0  0  0
  -21.8828  -37.7295   -8.4835 C   0  0  0  0  0  0  0  0  0  0  0  0
  -22.5359  -38.7785   -7.8848 C   0  0  0  0  0  0  0  0  0  0  0  0
  -21.9150  -39.6423   -6.9548 C   0  0  0  0  0  0  0  0  0  0  0  0
  -20.5824  -39.4431   -6.6049 C   0  0  0  0  0  0  0  0  0  0  0  0
  -22.7949  -40.6164   -6.5200 O   0  0  0  0  0  0  0  0  0  0  0  0
  -22.8672  -42.0022   -6.5429 C   0  0  0  0  0  0  0  0  0  0  0  0
  -22.1926  -42.6844   -5.4112 C   0  0  0  0  0  0  0  0  0  0  0  0
  -21.5877  -44.0219   -5.7077 C   0  0  0  0  0  0  0  0  0  0  0  0
  -21.8766  -44.6094   -7.0390 C   0  0  0  0  0  0  0  0  0  0  0  0
  -20.9075  -44.3546   -8.0763 N   0  0  0  0  0  0  0  0  0  0  0  0
  -16.3468  -38.2065   -8.3953 C   0  0  2  0  0  0  0  0  0  0  0  0
  -16.3969  -38.0214   -9.7741 O   0  0  0  0  0  0  0  0  0  0  0  0
  -15.0189  -38.7173   -7.9898 C   0  0  0  0  0  0  0  0  0  0  0  0
  -14.9755  -39.8091   -7.0835 N   0  0  0  0  0  0  0  0  0  0  0  0
  1  2  1  0
  2  3  1  0
  3  4  1  0
  4  5  2  0
  5  6  1  0
  6  7  2  0
  7  8  1  0
  8  9  2  0
  8 10  1  0
 10 11  2  0
 10 12  1  0
 12 13  1  0
 13 14  1  1
 14 15  1  0
 15 16  2  0
 16 17  1  0
 17 18  2  0
 18 19  1  0
 19 20  2  0
 19 21  1  0
 21 22  1  0
 22 23  1  0
 23 24  1  0
 24 25  1  0
 25 26  1  0
 13 27  1  0
 27 28  1  6
 27 29  1  0
 29 30  1  0
  9  4  1  0
 20 15  1  0
 26  6  1  0
M  END
$$$$
