
     RDKit          3D

 30 32  0  0  0  0  0  0  0  0999 V2000
  -17.3939  -48.4798   -8.3873 C   0  0  0  0  0  0  0  0  0  0  0  0
  -18.0812  -47.5268   -7.6401 O   0  0  0  0  0  0  0  0  0  0  0  0
  -18.2950  -46.4333   -8.4720 C   0  0  0  0  0  0  0  0  0  0  0  0
  -18.8531  -45.2652   -7.7421 C   0  0  0  0  0  0  0  0  0  0  0  0
  -20.1844  -45.1501   -7.4539 C   0  0  0  0  0  0  0  0  0  0  0  0
  -20.7536  -44.0485   -6.7576 C   0  0  0  0  0  0  0  0  0  0  0  0
  -19.9321  -43.0260   -6.3401 C   0  0  0  0  0  0  0  0  0  0  0  0
  -18.5882  -43.0990   -6.6089 C   0  0  0  0  0  0  0  0  0  0  0  0
  -18.0774  -44.2249   -7.3076 C   0  0  0  0  0  0  0  0  0  0  0  0
  -17.4773  -42.1793   -6.2966 C   0  0  0  0  0  0  0  0  0  0  0  0
  -16.3344  -42.7163   -5.8784 O   0  0  0  0  0  0  0  0  0  0  0  0
  -17.3294  -40.7879   -6.3400 N   0  0  0  0  0  0  0  0  0  0  0  0
  -17.5436  -39.9370   -7.5312 C   0  0  1  0  0  0  0  0  0  0  0  0
  -18.1729  -38.6690   -6.9894 C   0  0  0  0  0  0  0  0  0  0  0  0
  -19.6777  -38.6935   -7.0574 C   0  0  0  0  0  0  0  0  0  0  0  0
  -20.1386  -37.9377   -8.1602 C   0  0  0  0  0  0  0  0  0  0  0  0
  -21.4560  -37.8355   -8.5134 C   0  0  0  0  0  0  0  0  0  0  0  0
  -22.3315  -38.5299   -7.7156 C   0  0  0  0  0  0  0  0  0  0  0  0
  -21.9172  -39.2992   -6.6052 C   0  0  0  0  0  0  0  0  0  0  0  0
  -20.5665  -39.3716   -6.2761 C   0  0  0  0  0  0  0  0  0  0  0  0
  -22.9988  -39.9014   -5.9888 O   0  0  0  0  0  0  0  0  0  0  0  0
  -23.4177  -41.1949   -5.7104 C   0  0  0  0  0  0  0  0  0  0  0  0
  -22.8990  -41.7628   -4.4416 C   0  0  0  0  0  0  0  0  0  0  0  0
  -22.6597  -43.2410   -4.4247 C   0  0  0  0  0  0  0  0  0  0  0  0
  -23.1307  -44.0112   -5.6021 C   0  0  0  0  0  0  0  0  0  0  0  0
  -22.1634  -44.2405   -6.6470 N   0  0  0  0  0  0  0  0  0  0  0  0
  -16.2175  -39.6627   -8.1936 C   0  0  2  0  0  0  0  0  0  0  0  0
  -16.3390  -38.9716   -9.3959 O   0  0  0  0  0  0  0  0  0  0  0  0
  -15.3070  -40.8181   -8.3507 C   0  0  0  0  0  0  0  0  0  0  0  0
  -14.8672  -41.4820   -7.1755 N   0  0  0  0  0  0  0  0  0  0  0  0
  1  2  1  0
  2  3  1  0
  3  4  1  0
  4  5  2  0
  5  6  1  0
  6  7  2  0
  7  8  1  0
  8  9  2  0
  8 10  1  0
 10 11  2  0
 10 12  1  0
 12 13  1  0
 13 14  1  1
 14 15  1  0
 15 16  2  0
 16 17  1  0
 17 18  2  0
 18 19  1  0
 19 20  2  0
 19 21  1  0
 21 22  1  0
 22 23  1  0
 23 24  1  0
 24 25  1  0
 25 26  1  0
 13 27  1  0
 27 28  1  6
 27 29  1  0
 29 30  1  0
  9  4  1  0
 20 15  1  0
 26  6  1  0
M  END
$$$$
