
     RDKit          3D

 30 32  0  0  0  0  0  0  0  0999 V2000
  -16.7067  -47.3334   -7.9698 C   0  0  0  0  0  0  0  0  0  0  0  0
  -17.9734  -47.3981   -8.5443 O   0  0  0  0  0  0  0  0  0  0  0  0
  -18.1447  -46.2340   -9.2853 C   0  0  0  0  0  0  0  0  0  0  0  0
  -18.6811  -45.1145   -8.4681 C   0  0  0  0  0  0  0  0  0  0  0  0
  -19.9959  -45.0406   -8.1013 C   0  0  0  0  0  0  0  0  0  0  0  0
  -20.5441  -43.9862   -7.3203 C   0  0  0  0  0  0  0  0  0  0  0  0
  -19.7184  -42.9690   -6.8983 C   0  0  0  0  0  0  0  0  0  0  0  0
  -18.3906  -43.0016   -7.2444 C   0  0  0  0  0  0  0  0  0  0  0  0
  -17.9004  -44.0814   -8.0257 C   0  0  0  0  0  0  0  0  0  0  0  0
  -17.2801  -42.0760   -6.9484 C   0  0  0  0  0  0  0  0  0  0  0  0
  -16.1063  -42.6096   -6.6215 O   0  0  0  0  0  0  0  0  0  0  0  0
  -17.1592  -40.6815   -6.9302 N   0  0  0  0  0  0  0  0  0  0  0  0
  -17.4549  -39.7777   -8.0637 C   0  0  1  0  0  0  0  0  0  0  0  0
  -18.0747  -38.5508   -7.4251 C   0  0  0  0  0  0  0  0  0  0  0  0
  -19.5803  -38.6023   -7.4109 C   0  0  0  0  0  0  0  0  0  0  0  0
  -20.1156  -37.8028   -8.4473 C   0  0  0  0  0  0  0  0  0  0  0  0
  -21.4524  -37.7101   -8.7215 C   0  0  0  0  0  0  0  0  0  0  0  0
  -22.2694  -38.4603   -7.9122 C   0  0  0  0  0  0  0  0  0  0  0  0
  -21.7799  -39.2745   -6.8663 C   0  0  0  0  0  0  0  0  0  0  0  0
  -20.4118  -39.3357   -6.6165 C   0  0  0  0  0  0  0  0  0  0  0  0
  -22.8144  -39.9279   -6.2219 O   0  0  0  0  0  0  0  0  0  0  0  0
  -23.1943  -41.2417   -5.9858 C   0  0  0  0  0  0  0  0  0  0  0  0
  -22.5953  -41.8605   -4.7777 C   0  0  0  0  0  0  0  0  0  0  0  0
  -22.3296  -43.3326   -4.8480 C   0  0  0  0  0  0  0  0  0  0  0  0
  -22.8526  -44.0535   -6.0345 C   0  0  0  0  0  0  0  0  0  0  0  0
  -21.9419  -44.2119   -7.1415 N   0  0  0  0  0  0  0  0  0  0  0  0
  -16.1732  -39.4446   -8.7839 C   0  0  2  0  0  0  0  0  0  0  0  0
  -16.3214  -39.3884  -10.1670 O   0  0  0  0  0  0  0  0  0  0  0  0
  -14.9853  -40.2493   -8.4232 C   0  0  0  0  0  0  0  0  0  0  0  0
  -15.0588  -41.0569   -7.2580 N   0  0  0  0  0  0  0  0  0  0  0  0
  1  2  1  0
  2  3  1  0
  3  4  1  0
  4  5  2  0
  5  6  1  0
  6  7  2  0
  7  8  1  0
  8  9  2  0
  8 10  1  0
 10 11  2  0
 10 12  1  0
 12 13  1  0
 13 14  1  1
 14 15  1  0
 15 16  2  0
 16 17  1  0
 17 18  2  0
 18 19  1  0
 19 20  2  0
 19 21  1  0
 21 22  1  0
 22 23  1  0
 23 24  1  0
 24 25  1  0
 25 26  1  0
 13 27  1  0
 27 28  1  6
 27 29  1  0
 29 30  1  0
  9  4  1  0
 20 15  1  0
 26  6  1  0
M  END
$$$$
