
     RDKit          3D

 30 32  0  0  0  0  0  0  0  0999 V2000
  -15.3761  -46.3259   -9.2608 C   0  0  0  0  0  0  0  0  0  0  0  0
  -16.7019  -46.6965   -9.4698 O   0  0  0  0  0  0  0  0  0  0  0  0
  -17.3288  -45.6286  -10.1022 C   0  0  0  0  0  0  0  0  0  0  0  0
  -18.0983  -44.7802   -9.1552 C   0  0  0  0  0  0  0  0  0  0  0  0
  -19.4398  -44.9444   -8.9496 C   0  0  0  0  0  0  0  0  0  0  0  0
  -20.2081  -44.1530   -8.0520 C   0  0  0  0  0  0  0  0  0  0  0  0
  -19.5828  -43.1562   -7.3378 C   0  0  0  0  0  0  0  0  0  0  0  0
  -18.2366  -42.9547   -7.5135 C   0  0  0  0  0  0  0  0  0  0  0  0
  -17.5217  -43.7777   -8.4237 C   0  0  0  0  0  0  0  0  0  0  0  0
  -17.3052  -41.9859   -6.9040 C   0  0  0  0  0  0  0  0  0  0  0  0
  -16.1049  -42.4313   -6.5432 O   0  0  0  0  0  0  0  0  0  0  0  0
  -17.3883  -40.6227   -6.5972 N   0  0  0  0  0  0  0  0  0  0  0  0
  -17.6978  -39.5419   -7.5590 C   0  0  1  0  0  0  0  0  0  0  0  0
  -18.5473  -38.5616   -6.7751 C   0  0  0  0  0  0  0  0  0  0  0  0
  -20.0238  -38.7958   -6.9610 C   0  0  0  0  0  0  0  0  0  0  0  0
  -20.5638  -37.8655   -7.8792 C   0  0  0  0  0  0  0  0  0  0  0  0
  -21.8665  -37.8785   -8.2959 C   0  0  0  0  0  0  0  0  0  0  0  0
  -22.6429  -38.8757   -7.7592 C   0  0  0  0  0  0  0  0  0  0  0  0
  -22.1469  -39.8279   -6.8405 C   0  0  0  0  0  0  0  0  0  0  0  0
  -20.8154  -39.7753   -6.4374 C   0  0  0  0  0  0  0  0  0  0  0  0
  -23.1351  -40.7224   -6.4726 O   0  0  0  0  0  0  0  0  0  0  0  0
  -23.3437  -42.0924   -6.5490 C   0  0  0  0  0  0  0  0  0  0  0  0
  -22.7839  -42.8760   -5.4203 C   0  0  0  0  0  0  0  0  0  0  0  0
  -22.3038  -44.2570   -5.7445 C   0  0  0  0  0  0  0  0  0  0  0  0
  -22.5983  -44.7682   -7.1057 C   0  0  0  0  0  0  0  0  0  0  0  0
  -21.5697  -44.5779   -8.0986 N   0  0  0  0  0  0  0  0  0  0  0  0
  -16.4126  -38.9121   -8.0325 C   0  0  2  0  0  0  0  0  0  0  0  0
  -16.4549  -38.5195   -9.3674 O   0  0  0  0  0  0  0  0  0  0  0  0
  -15.1683  -39.6619   -7.7530 C   0  0  0  0  0  0  0  0  0  0  0  0
  -14.7447  -40.6251   -8.7059 N   0  0  0  0  0  0  0  0  0  0  0  0
  1  2  1  0
  2  3  1  0
  3  4  1  0
  4  5  2  0
  5  6  1  0
  6  7  2  0
  7  8  1  0
  8  9  2  0
  8 10  1  0
 10 11  2  0
 10 12  1  0
 12 13  1  0
 13 14  1  1
 14 15  1  0
 15 16  2  0
 16 17  1  0
 17 18  2  0
 18 19  1  0
 19 20  2  0
 19 21  1  0
 21 22  1  0
 22 23  1  0
 23 24  1  0
 24 25  1  0
 25 26  1  0
 13 27  1  0
 27 28  1  6
 27 29  1  0
 29 30  1  0
  9  4  1  0
 20 15  1  0
 26  6  1  0
M  END
$$$$
