
     RDKit          3D

 30 32  0  0  0  0  0  0  0  0999 V2000
  -15.0641  -45.2305   -9.6770 C   0  0  0  0  0  0  0  0  0  0  0  0
  -14.9451  -45.1666  -11.0628 O   0  0  0  0  0  0  0  0  0  0  0  0
  -15.8666  -44.2252  -11.5080 C   0  0  0  0  0  0  0  0  0  0  0  0
  -16.8097  -43.8043  -10.4392 C   0  0  0  0  0  0  0  0  0  0  0  0
  -18.0770  -44.3075  -10.3416 C   0  0  0  0  0  0  0  0  0  0  0  0
  -19.0057  -43.9292   -9.3334 C   0  0  0  0  0  0  0  0  0  0  0  0
  -18.6260  -43.0020   -8.3896 C   0  0  0  0  0  0  0  0  0  0  0  0
  -17.3627  -42.4690   -8.4498 C   0  0  0  0  0  0  0  0  0  0  0  0
  -16.4785  -42.8864   -9.4799 C   0  0  0  0  0  0  0  0  0  0  0  0
  -16.6788  -41.4762   -7.5988 C   0  0  0  0  0  0  0  0  0  0  0  0
  -15.4077  -41.7092   -7.2835 O   0  0  0  0  0  0  0  0  0  0  0  0
  -17.0733  -40.2700   -7.0082 N   0  0  0  0  0  0  0  0  0  0  0  0
  -17.6247  -39.1002   -7.7270 C   0  0  1  0  0  0  0  0  0  0  0  0
  -18.6762  -38.5358   -6.7927 C   0  0  0  0  0  0  0  0  0  0  0  0
  -20.0593  -39.0487   -7.0987 C   0  0  0  0  0  0  0  0  0  0  0  0
  -20.8002  -38.0832   -7.8192 C   0  0  0  0  0  0  0  0  0  0  0  0
  -22.0654  -38.2957   -8.2935 C   0  0  0  0  0  0  0  0  0  0  0  0
  -22.5904  -39.5357   -8.0254 C   0  0  0  0  0  0  0  0  0  0  0  0
  -21.8873  -40.5319   -7.3114 C   0  0  0  0  0  0  0  0  0  0  0  0
  -20.6033  -40.2723   -6.8403 C   0  0  0  0  0  0  0  0  0  0  0  0
  -22.6424  -41.6846   -7.1963 O   0  0  0  0  0  0  0  0  0  0  0  0
  -22.5298  -43.0141   -7.5783 C   0  0  0  0  0  0  0  0  0  0  0  0
  -21.8032  -43.8828   -6.6198 C   0  0  0  0  0  0  0  0  0  0  0  0
  -21.0183  -45.0128   -7.2113 C   0  0  0  0  0  0  0  0  0  0  0  0
  -21.1888  -45.2609   -8.6640 C   0  0  0  0  0  0  0  0  0  0  0  0
  -20.2329  -44.6281   -9.5392 N   0  0  0  0  0  0  0  0  0  0  0  0
  -16.5197  -38.1084   -7.9877 C   0  0  2  0  0  0  0  0  0  0  0  0
  -16.8184  -37.2129   -9.0108 O   0  0  0  0  0  0  0  0  0  0  0  0
  -15.1615  -38.6663   -8.1686 C   0  0  0  0  0  0  0  0  0  0  0  0
  -14.9458  -40.0212   -7.8042 N   0  0  0  0  0  0  0  0  0  0  0  0
  1  2  1  0
  2  3  1  0
  3  4  1  0
  4  5  2  0
  5  6  1  0
  6  7  2  0
  7  8  1  0
  8  9  2  0
  8 10  1  0
 10 11  2  0
 10 12  1  0
 12 13  1  0
 13 14  1  1
 14 15  1  0
 15 16  2  0
 16 17  1  0
 17 18  2  0
 18 19  1  0
 19 20  2  0
 19 21  1  0
 21 22  1  0
 22 23  1  0
 23 24  1  0
 24 25  1  0
 25 26  1  0
 13 27  1  0
 27 28  1  6
 27 29  1  0
 29 30  1  0
  9  4  1  0
 20 15  1  0
 26  6  1  0
M  END
$$$$
