
     RDKit          3D

 30 32  0  0  0  0  0  0  0  0999 V2000
  -18.0133  -46.1040  -11.8626 C   0  0  0  0  0  0  0  0  0  0  0  0
  -17.3628  -45.2087  -11.0176 O   0  0  0  0  0  0  0  0  0  0  0  0
  -17.4973  -45.6987   -9.7233 C   0  0  0  0  0  0  0  0  0  0  0  0
  -18.0982  -44.7022   -8.7986 C   0  0  0  0  0  0  0  0  0  0  0  0
  -19.4013  -44.7738   -8.3919 C   0  0  0  0  0  0  0  0  0  0  0  0
  -20.0097  -43.8400   -7.5086 C   0  0  0  0  0  0  0  0  0  0  0  0
  -19.2589  -42.7937   -7.0226 C   0  0  0  0  0  0  0  0  0  0  0  0
  -17.9456  -42.6818   -7.4054 C   0  0  0  0  0  0  0  0  0  0  0  0
  -17.3928  -43.6458   -8.2897 C   0  0  0  0  0  0  0  0  0  0  0  0
  -16.9077  -41.6912   -7.0604 C   0  0  0  0  0  0  0  0  0  0  0  0
  -15.6827  -42.1463   -6.8121 O   0  0  0  0  0  0  0  0  0  0  0  0
  -16.9042  -40.2979   -6.9253 N   0  0  0  0  0  0  0  0  0  0  0  0
  -17.3134  -39.3316   -7.9684 C   0  0  1  0  0  0  0  0  0  0  0  0
  -18.0124  -38.2209   -7.2102 C   0  0  0  0  0  0  0  0  0  0  0  0
  -19.5069  -38.4041   -7.1604 C   0  0  0  0  0  0  0  0  0  0  0  0
  -20.1425  -37.5703   -8.1095 C   0  0  0  0  0  0  0  0  0  0  0  0
  -21.4909  -37.5714   -8.3390 C   0  0  0  0  0  0  0  0  0  0  0  0
  -22.2139  -38.4548   -7.5759 C   0  0  0  0  0  0  0  0  0  0  0  0
  -21.6223  -39.3081   -6.6175 C   0  0  0  0  0  0  0  0  0  0  0  0
  -20.2462  -39.2707   -6.4104 C   0  0  0  0  0  0  0  0  0  0  0  0
  -22.5756  -40.1004   -6.0046 O   0  0  0  0  0  0  0  0  0  0  0  0
  -22.8352  -41.4574   -5.8726 C   0  0  0  0  0  0  0  0  0  0  0  0
  -22.1455  -42.1206   -4.7386 C   0  0  0  0  0  0  0  0  0  0  0  0
  -21.7592  -43.5530   -4.9426 C   0  0  0  0  0  0  0  0  0  0  0  0
  -22.2595  -44.2149   -6.1725 C   0  0  0  0  0  0  0  0  0  0  0  0
  -21.3766  -44.2004   -7.3129 N   0  0  0  0  0  0  0  0  0  0  0  0
  -16.0894  -38.8294   -8.6911 C   0  0  2  0  0  0  0  0  0  0  0  0
  -16.3048  -38.6175  -10.0500 O   0  0  0  0  0  0  0  0  0  0  0  0
  -14.8387  -39.5903   -8.4780 C   0  0  0  0  0  0  0  0  0  0  0  0
  -14.7089  -40.3315   -7.2743 N   0  0  0  0  0  0  0  0  0  0  0  0
  1  2  1  0
  2  3  1  0
  3  4  1  0
  4  5  2  0
  5  6  1  0
  6  7  2  0
  7  8  1  0
  8  9  2  0
  8 10  1  0
 10 11  2  0
 10 12  1  0
 12 13  1  0
 13 14  1  1
 14 15  1  0
 15 16  2  0
 16 17  1  0
 17 18  2  0
 18 19  1  0
 19 20  2  0
 19 21  1  0
 21 22  1  0
 22 23  1  0
 23 24  1  0
 24 25  1  0
 25 26  1  0
 13 27  1  0
 27 28  1  6
 27 29  1  0
 29 30  1  0
  9  4  1  0
 20 15  1  0
 26  6  1  0
M  END
$$$$
