
     RDKit          3D

 30 32  0  0  0  0  0  0  0  0999 V2000
  -15.0148  -46.1020  -10.2723 C   0  0  0  0  0  0  0  0  0  0  0  0
  -15.4019  -44.8635  -10.7774 O   0  0  0  0  0  0  0  0  0  0  0  0
  -16.7773  -44.9157  -10.9747 C   0  0  0  0  0  0  0  0  0  0  0  0
  -17.5360  -44.3183   -9.8449 C   0  0  0  0  0  0  0  0  0  0  0  0
  -18.7883  -44.7432   -9.4984 C   0  0  0  0  0  0  0  0  0  0  0  0
  -19.5432  -44.1964   -8.4245 C   0  0  0  0  0  0  0  0  0  0  0  0
  -18.9988  -43.1772   -7.6765 C   0  0  0  0  0  0  0  0  0  0  0  0
  -17.7439  -42.7178   -7.9897 C   0  0  0  0  0  0  0  0  0  0  0  0
  -17.0376  -43.3040   -9.0734 C   0  0  0  0  0  0  0  0  0  0  0  0
  -16.9110  -41.6600   -7.3857 C   0  0  0  0  0  0  0  0  0  0  0  0
  -15.6143  -41.9126   -7.2308 O   0  0  0  0  0  0  0  0  0  0  0  0
  -17.1768  -40.3713   -6.9081 N   0  0  0  0  0  0  0  0  0  0  0  0
  -17.7958  -39.2761   -7.6868 C   0  0  1  0  0  0  0  0  0  0  0  0
  -18.6777  -38.5482   -6.6921 C   0  0  0  0  0  0  0  0  0  0  0  0
  -20.1055  -39.0279   -6.7232 C   0  0  0  0  0  0  0  0  0  0  0  0
  -20.9179  -38.1262   -7.4490 C   0  0  0  0  0  0  0  0  0  0  0  0
  -22.2458  -38.3353   -7.7019 C   0  0  0  0  0  0  0  0  0  0  0  0
  -22.7604  -39.5048   -7.1992 C   0  0  0  0  0  0  0  0  0  0  0  0
  -21.9871  -40.4359   -6.4702 C   0  0  0  0  0  0  0  0  0  0  0  0
  -20.6398  -40.1815   -6.2293 C   0  0  0  0  0  0  0  0  0  0  0  0
  -22.7495  -41.5270   -6.0954 O   0  0  0  0  0  0  0  0  0  0  0  0
  -22.7346  -42.8979   -6.3111 C   0  0  0  0  0  0  0  0  0  0  0  0
  -21.8974  -43.6731   -5.3626 C   0  0  0  0  0  0  0  0  0  0  0  0
  -21.2439  -44.9052   -5.9079 C   0  0  0  0  0  0  0  0  0  0  0  0
  -21.6384  -45.3259   -7.2748 C   0  0  0  0  0  0  0  0  0  0  0  0
  -20.8072  -44.8554   -8.3555 N   0  0  0  0  0  0  0  0  0  0  0  0
  -16.7143  -38.3797   -8.2340 C   0  0  2  0  0  0  0  0  0  0  0  0
  -17.1791  -37.4838   -9.1927 O   0  0  0  0  0  0  0  0  0  0  0  0
  -15.4800  -39.0463   -8.7041 C   0  0  0  0  0  0  0  0  0  0  0  0
  -14.8947  -40.0295   -7.8640 N   0  0  0  0  0  0  0  0  0  0  0  0
  1  2  1  0
  2  3  1  0
  3  4  1  0
  4  5  2  0
  5  6  1  0
  6  7  2  0
  7  8  1  0
  8  9  2  0
  8 10  1  0
 10 11  2  0
 10 12  1  0
 12 13  1  0
 13 14  1  1
 14 15  1  0
 15 16  2  0
 16 17  1  0
 17 18  2  0
 18 19  1  0
 19 20  2  0
 19 21  1  0
 21 22  1  0
 22 23  1  0
 23 24  1  0
 24 25  1  0
 25 26  1  0
 13 27  1  0
 27 28  1  6
 27 29  1  0
 29 30  1  0
  9  4  1  0
 20 15  1  0
 26  6  1  0
M  END
$$$$
