
     RDKit          3D

 36 38  0  0  0  0  0  0  0  0999 V2000
  -21.0191  -41.2405   -4.2801 C   0  0  0  0  0  0  0  0  0  0  0  0
  -22.2795  -40.4826   -4.6981 C   0  0  0  0  0  0  0  0  0  0  0  0
  -22.4907  -39.3949   -3.6648 C   0  0  0  0  0  0  0  0  0  0  0  0
  -22.1329  -39.8848   -6.0310 C   0  0  0  0  0  0  0  0  0  0  0  0
  -22.9391  -40.3103   -7.0568 C   0  0  0  0  0  0  0  0  0  0  0  0
  -22.8197  -39.7630   -8.3243 C   0  0  0  0  0  0  0  0  0  0  0  0
  -21.8768  -38.7854   -8.5324 C   0  0  0  0  0  0  0  0  0  0  0  0
  -21.0438  -38.3229   -7.5402 C   0  0  0  0  0  0  0  0  0  0  0  0
  -20.0227  -37.2597   -7.7847 C   0  0  0  0  0  0  0  0  0  0  0  0
  -18.7847  -37.5364   -7.1410 N   0  0  0  0  0  0  0  0  0  0  0  0
  -18.1588  -38.7776   -7.4371 C   0  0  0  0  0  0  0  0  0  0  0  0
  -16.7020  -38.7449   -7.7336 C   0  0  1  0  0  0  0  0  0  0  0  0
  -15.8656  -38.6950   -6.6375 O   0  0  0  0  0  0  0  0  0  0  0  0
  -16.2844  -39.8500   -8.7063 C   0  0  2  0  0  0  0  0  0  0  0  0
  -15.1131  -39.4307   -9.5665 C   0  0  0  0  0  0  0  0  0  0  0  0
  -13.7941  -39.8777   -9.0262 C   0  0  2  0  0  0  0  0  0  0  0  0
  -12.8147  -38.7339   -9.0813 C   0  0  0  0  0  0  0  0  0  0  0  0
  -13.2815  -41.0778   -9.7984 C   0  0  0  0  0  0  0  0  0  0  0  0
  -12.9118  -40.7587  -11.2098 C   0  0  0  0  0  0  0  0  0  0  0  0
  -13.2510  -41.8009  -12.0672 O   0  0  0  0  0  0  0  0  0  0  0  0
  -12.0977  -42.3678  -12.5951 C   0  0  0  0  0  0  0  0  0  0  0  0
  -11.9515  -43.8003  -12.1199 C   0  0  0  0  0  0  0  0  0  0  0  0
  -13.1729  -44.6229  -12.4533 C   0  0  0  0  0  0  0  0  0  0  0  0
  -13.7528  -45.2573  -11.1843 C   0  0  0  0  0  0  0  0  0  0  0  0
  -15.1909  -45.3524  -11.2297 N   0  0  0  0  0  0  0  0  0  0  0  0
  -16.1923  -44.5331  -10.6116 C   0  0  0  0  0  0  0  0  0  0  0  0
  -16.4485  -43.1879  -10.6373 C   0  0  0  0  0  0  0  0  0  0  0  0
  -17.5175  -42.7145   -9.9125 C   0  0  0  0  0  0  0  0  0  0  0  0
  -18.2942  -43.6488   -9.1815 C   0  0  0  0  0  0  0  0  0  0  0  0
  -18.0440  -44.9974   -9.1518 C   0  0  0  0  0  0  0  0  0  0  0  0
  -19.0439  -46.1076   -8.2256 Cl  0  0  0  0  0  0  0  0  0  0  0  0
  -17.0137  -45.3739   -9.8618 N   0  0  0  0  0  0  0  0  0  0  0  0
  -18.0614  -41.3707   -9.7189 C   0  0  0  0  0  0  0  0  0  0  0  0
  -19.3738  -41.2148   -9.6869 O   0  0  0  0  0  0  0  0  0  0  0  0
  -17.4454  -40.1086   -9.5423 N   0  0  0  0  0  0  0  0  0  0  0  0
  -21.1858  -38.8855   -6.2909 C   0  0  0  0  0  0  0  0  0  0  0  0
  1  2  1  0
  2  3  1  0
  2  4  1  0
  4  5  2  0
  5  6  1  0
  6  7  2  0
  7  8  1  0
  8  9  1  0
  9 10  1  0
 10 11  1  0
 11 12  1  0
 12 13  1  1
 12 14  1  0
 14 15  1  6
 15 16  1  0
 16 17  1  6
 16 18  1  0
 18 19  1  0
 19 20  1  0
 20 21  1  0
 21 22  1  0
 22 23  1  0
 23 24  1  0
 24 25  1  0
 25 26  1  0
 26 27  2  0
 27 28  1  0
 28 29  2  0
 29 30  1  0
 30 31  1  0
 30 32  2  0
 28 33  1  0
 33 34  2  0
 33 35  1  0
  8 36  2  0
 32 26  1  0
 35 14  1  0
 36  4  1  0
M  END
$$$$
