
     RDKit          3D

 36 38  0  0  0  0  0  0  0  0999 V2000
  -19.0102  -34.1295  -12.5439 C   0  0  0  0  0  0  0  0  0  0  0  0
  -18.1425  -35.0422  -11.6769 C   0  0  0  0  0  0  0  0  0  0  0  0
  -16.9928  -34.1931  -11.1741 C   0  0  0  0  0  0  0  0  0  0  0  0
  -18.8975  -35.5854  -10.5410 C   0  0  0  0  0  0  0  0  0  0  0  0
  -20.2679  -35.6306  -10.5978 C   0  0  0  0  0  0  0  0  0  0  0  0
  -21.0037  -36.1374   -9.5385 C   0  0  0  0  0  0  0  0  0  0  0  0
  -20.3322  -36.5935   -8.4299 C   0  0  0  0  0  0  0  0  0  0  0  0
  -18.9611  -36.5711   -8.3212 C   0  0  0  0  0  0  0  0  0  0  0  0
  -18.2471  -37.0701   -7.1070 C   0  0  0  0  0  0  0  0  0  0  0  0
  -17.0181  -37.7123   -7.4244 N   0  0  0  0  0  0  0  0  0  0  0  0
  -17.0871  -39.0376   -7.9330 C   0  0  0  0  0  0  0  0  0  0  0  0
  -15.8494  -39.8575   -7.8502 C   0  0  1  0  0  0  0  0  0  0  0  0
  -15.2470  -39.9147   -6.6102 O   0  0  0  0  0  0  0  0  0  0  0  0
  -16.0396  -41.2546   -8.4449 C   0  0  2  0  0  0  0  0  0  0  0  0
  -14.7650  -41.7814   -9.0658 C   0  0  0  0  0  0  0  0  0  0  0  0
  -13.9757  -42.6527   -8.1441 C   0  0  2  0  0  0  0  0  0  0  0  0
  -12.5234  -42.2545   -8.1968 C   0  0  0  0  0  0  0  0  0  0  0  0
  -14.1584  -44.1138   -8.5062 C   0  0  0  0  0  0  0  0  0  0  0  0
  -13.5524  -44.4771   -9.8220 C   0  0  0  0  0  0  0  0  0  0  0  0
  -14.3409  -45.4002  -10.5020 O   0  0  0  0  0  0  0  0  0  0  0  0
  -13.6624  -46.6078  -10.6089 C   0  0  0  0  0  0  0  0  0  0  0  0
  -14.3858  -47.6876   -9.8278 C   0  0  0  0  0  0  0  0  0  0  0  0
  -15.8236  -47.8220  -10.2680 C   0  0  0  0  0  0  0  0  0  0  0  0
  -16.7673  -47.6472   -9.0729 C   0  0  0  0  0  0  0  0  0  0  0  0
  -18.0013  -46.9989   -9.4420 N   0  0  0  0  0  0  0  0  0  0  0  0
  -18.4211  -45.6393   -9.2651 C   0  0  0  0  0  0  0  0  0  0  0  0
  -17.8765  -44.4363   -9.6282 C   0  0  0  0  0  0  0  0  0  0  0  0
  -18.5550  -43.2870   -9.2951 C   0  0  0  0  0  0  0  0  0  0  0  0
  -19.7818  -43.4155   -8.5958 C   0  0  0  0  0  0  0  0  0  0  0  0
  -20.3336  -44.6170   -8.2296 C   0  0  0  0  0  0  0  0  0  0  0  0
  -21.8599  -44.7126   -7.3626 Cl  0  0  0  0  0  0  0  0  0  0  0  0
  -19.6340  -45.6641   -8.5779 N   0  0  0  0  0  0  0  0  0  0  0  0
  -18.2672  -41.8706   -9.5190 C   0  0  0  0  0  0  0  0  0  0  0  0
  -19.2639  -41.0620   -9.8361 O   0  0  0  0  0  0  0  0  0  0  0  0
  -17.0682  -41.1205   -9.4635 N   0  0  0  0  0  0  0  0  0  0  0  0
  -18.2566  -36.0620   -9.3898 C   0  0  0  0  0  0  0  0  0  0  0  0
  1  2  1  0
  2  3  1  0
  2  4  1  0
  4  5  2  0
  5  6  1  0
  6  7  2  0
  7  8  1  0
  8  9  1  0
  9 10  1  0
 10 11  1  0
 11 12  1  0
 12 13  1  1
 12 14  1  0
 14 15  1  6
 15 16  1  0
 16 17  1  6
 16 18  1  0
 18 19  1  0
 19 20  1  0
 20 21  1  0
 21 22  1  0
 22 23  1  0
 23 24  1  0
 24 25  1  0
 25 26  1  0
 26 27  2  0
 27 28  1  0
 28 29  2  0
 29 30  1  0
 30 31  1  0
 30 32  2  0
 28 33  1  0
 33 34  2  0
 33 35  1  0
  8 36  2  0
 32 26  1  0
 35 14  1  0
 36  4  1  0
M  END
$$$$
