
     RDKit          3D

 36 38  0  0  0  0  0  0  0  0999 V2000
  -22.5801  -41.9191   -5.8322 C   0  0  0  0  0  0  0  0  0  0  0  0
  -23.0143  -40.4599   -5.6908 C   0  0  0  0  0  0  0  0  0  0  0  0
  -22.8764  -40.1098   -4.2232 C   0  0  0  0  0  0  0  0  0  0  0  0
  -22.1757  -39.5663   -6.4993 C   0  0  0  0  0  0  0  0  0  0  0  0
  -22.7117  -38.9459   -7.5998 C   0  0  0  0  0  0  0  0  0  0  0  0
  -21.9409  -38.0989   -8.3801 C   0  0  0  0  0  0  0  0  0  0  0  0
  -20.6285  -37.8935   -8.0288 C   0  0  0  0  0  0  0  0  0  0  0  0
  -20.0419  -38.4900   -6.9368 C   0  0  0  0  0  0  0  0  0  0  0  0
  -18.6122  -38.2563   -6.5701 C   0  0  0  0  0  0  0  0  0  0  0  0
  -17.7111  -38.7443   -7.5566 N   0  0  0  0  0  0  0  0  0  0  0  0
  -17.6777  -38.0630   -8.8035 C   0  0  0  0  0  0  0  0  0  0  0  0
  -16.3584  -37.5467   -9.2552 C   0  0  1  0  0  0  0  0  0  0  0  0
  -15.5365  -37.0475   -8.2659 O   0  0  0  0  0  0  0  0  0  0  0  0
  -15.6186  -38.5482  -10.1448 C   0  0  2  0  0  0  0  0  0  0  0  0
  -15.1393  -37.9129  -11.4310 C   0  0  0  0  0  0  0  0  0  0  0  0
  -13.7227  -37.4434  -11.3652 C   0  0  2  0  0  0  0  0  0  0  0  0
  -13.6256  -36.0561  -11.9455 C   0  0  0  0  0  0  0  0  0  0  0  0
  -12.8075  -38.4087  -12.0930 C   0  0  0  0  0  0  0  0  0  0  0  0
  -13.0263  -38.4312  -13.5703 C   0  0  0  0  0  0  0  0  0  0  0  0
  -12.8898  -39.7187  -14.0801 O   0  0  0  0  0  0  0  0  0  0  0  0
  -11.7804  -39.7774  -14.9142 C   0  0  0  0  0  0  0  0  0  0  0  0
  -10.7314  -40.7027  -14.3286 C   0  0  0  0  0  0  0  0  0  0  0  0
  -11.2928  -42.0782  -14.0598 C   0  0  0  0  0  0  0  0  0  0  0  0
  -11.0902  -42.4604  -12.5894 C   0  0  0  0  0  0  0  0  0  0  0  0
  -12.1741  -43.2632  -12.0796 N   0  0  0  0  0  0  0  0  0  0  0  0
  -13.2890  -42.8966  -11.2558 C   0  0  0  0  0  0  0  0  0  0  0  0
  -14.2704  -41.9488  -11.3758 C   0  0  0  0  0  0  0  0  0  0  0  0
  -15.2146  -41.8591  -10.3796 C   0  0  0  0  0  0  0  0  0  0  0  0
  -15.1176  -42.7561   -9.2857 C   0  0  0  0  0  0  0  0  0  0  0  0
  -14.1380  -43.7083   -9.1593 C   0  0  0  0  0  0  0  0  0  0  0  0
  -14.0699  -44.7935   -7.7780 Cl  0  0  0  0  0  0  0  0  0  0  0  0
  -13.2765  -43.7343  -10.1414 N   0  0  0  0  0  0  0  0  0  0  0  0
  -16.3704  -40.9830  -10.1908 C   0  0  0  0  0  0  0  0  0  0  0  0
  -17.4823  -41.4962   -9.6929 O   0  0  0  0  0  0  0  0  0  0  0  0
  -16.5731  -39.6045  -10.4397 N   0  0  0  0  0  0  0  0  0  0  0  0
  -20.8326  -39.3264   -6.1802 C   0  0  0  0  0  0  0  0  0  0  0  0
  1  2  1  0
  2  3  1  0
  2  4  1  0
  4  5  2  0
  5  6  1  0
  6  7  2  0
  7  8  1  0
  8  9  1  0
  9 10  1  0
 10 11  1  0
 11 12  1  0
 12 13  1  1
 12 14  1  0
 14 15  1  6
 15 16  1  0
 16 17  1  6
 16 18  1  0
 18 19  1  0
 19 20  1  0
 20 21  1  0
 21 22  1  0
 22 23  1  0
 23 24  1  0
 24 25  1  0
 25 26  1  0
 26 27  2  0
 27 28  1  0
 28 29  2  0
 29 30  1  0
 30 31  1  0
 30 32  2  0
 28 33  1  0
 33 34  2  0
 33 35  1  0
  8 36  2  0
 32 26  1  0
 35 14  1  0
 36  4  1  0
M  END
$$$$
