
     RDKit          3D

 36 38  0  0  0  0  0  0  0  0999 V2000
  -24.6138  -40.9307   -6.8432 C   0  0  0  0  0  0  0  0  0  0  0  0
  -23.8712  -39.6795   -6.3734 C   0  0  0  0  0  0  0  0  0  0  0  0
  -23.8707  -39.7220   -4.8589 C   0  0  0  0  0  0  0  0  0  0  0  0
  -22.4913  -39.6509   -6.8737 C   0  0  0  0  0  0  0  0  0  0  0  0
  -22.2557  -39.3699   -8.1961 C   0  0  0  0  0  0  0  0  0  0  0  0
  -20.9625  -39.3382   -8.6933 C   0  0  0  0  0  0  0  0  0  0  0  0
  -19.9212  -39.5942   -7.8342 C   0  0  0  0  0  0  0  0  0  0  0  0
  -20.1014  -39.8812   -6.5010 C   0  0  0  0  0  0  0  0  0  0  0  0
  -18.9570  -40.1586   -5.5811 C   0  0  0  0  0  0  0  0  0  0  0  0
  -17.7929  -39.4156   -5.9219 N   0  0  0  0  0  0  0  0  0  0  0  0
  -16.8538  -40.0362   -6.7896 C   0  0  0  0  0  0  0  0  0  0  0  0
  -15.8385  -39.1557   -7.4260 C   0  0  1  0  0  0  0  0  0  0  0  0
  -14.8060  -38.7403   -6.6106 O   0  0  0  0  0  0  0  0  0  0  0  0
  -15.3142  -39.7341   -8.7422 C   0  0  2  0  0  0  0  0  0  0  0  0
  -14.8104  -38.6528   -9.6720 C   0  0  0  0  0  0  0  0  0  0  0  0
  -13.3361  -38.4318   -9.5762 C   0  0  2  0  0  0  0  0  0  0  0  0
  -13.0531  -36.9535   -9.5043 C   0  0  0  0  0  0  0  0  0  0  0  0
  -12.6244  -39.0708  -10.7528 C   0  0  0  0  0  0  0  0  0  0  0  0
  -12.9228  -38.4059  -12.0564 C   0  0  0  0  0  0  0  0  0  0  0  0
  -13.0180  -39.3366  -13.0864 O   0  0  0  0  0  0  0  0  0  0  0  0
  -11.9778  -39.1467  -13.9876 C   0  0  0  0  0  0  0  0  0  0  0  0
  -11.0577  -40.3521  -13.9892 C   0  0  0  0  0  0  0  0  0  0  0  0
  -11.8133  -41.6264  -14.2797 C   0  0  0  0  0  0  0  0  0  0  0  0
  -11.5950  -42.6454  -13.1558 C   0  0  0  0  0  0  0  0  0  0  0  0
  -12.7629  -43.4579  -12.9211 N   0  0  0  0  0  0  0  0  0  0  0  0
  -13.7606  -43.3695  -11.8950 C   0  0  0  0  0  0  0  0  0  0  0  0
  -14.5856  -42.3599  -11.4755 C   0  0  0  0  0  0  0  0  0  0  0  0
  -15.4493  -42.6141  -10.4356 C   0  0  0  0  0  0  0  0  0  0  0  0
  -15.4363  -43.9094   -9.8589 C   0  0  0  0  0  0  0  0  0  0  0  0
  -14.6134  -44.9256  -10.2743 C   0  0  0  0  0  0  0  0  0  0  0  0
  -14.6431  -46.5127   -9.5191 Cl  0  0  0  0  0  0  0  0  0  0  0  0
  -13.8204  -44.6115  -11.2642 N   0  0  0  0  0  0  0  0  0  0  0  0
  -16.4411  -41.7854   -9.7509 C   0  0  0  0  0  0  0  0  0  0  0  0
  -17.5917  -42.3325   -9.3979 O   0  0  0  0  0  0  0  0  0  0  0  0
  -16.4374  -40.4276   -9.3515 N   0  0  0  0  0  0  0  0  0  0  0  0
  -21.3976  -39.9055   -6.0356 C   0  0  0  0  0  0  0  0  0  0  0  0
  1  2  1  0
  2  3  1  0
  2  4  1  0
  4  5  2  0
  5  6  1  0
  6  7  2  0
  7  8  1  0
  8  9  1  0
  9 10  1  0
 10 11  1  0
 11 12  1  0
 12 13  1  1
 12 14  1  0
 14 15  1  6
 15 16  1  0
 16 17  1  6
 16 18  1  0
 18 19  1  0
 19 20  1  0
 20 21  1  0
 21 22  1  0
 22 23  1  0
 23 24  1  0
 24 25  1  0
 25 26  1  0
 26 27  2  0
 27 28  1  0
 28 29  2  0
 29 30  1  0
 30 31  1  0
 30 32  2  0
 28 33  1  0
 33 34  2  0
 33 35  1  0
  8 36  2  0
 32 26  1  0
 35 14  1  0
 36  4  1  0
M  END
$$$$
