
     RDKit          3D

 36 38  0  0  0  0  0  0  0  0999 V2000
  -22.3660  -40.0573   -5.6736 C   0  0  0  0  0  0  0  0  0  0  0  0
  -22.8861  -38.7086   -6.1718 C   0  0  0  0  0  0  0  0  0  0  0  0
  -22.4612  -37.6775   -5.1463 C   0  0  0  0  0  0  0  0  0  0  0  0
  -22.3279  -38.3668   -7.4860 C   0  0  0  0  0  0  0  0  0  0  0  0
  -23.0772  -38.5780   -8.6161 C   0  0  0  0  0  0  0  0  0  0  0  0
  -22.5727  -38.2650   -9.8683 C   0  0  0  0  0  0  0  0  0  0  0  0
  -21.3063  -37.7389   -9.9545 C   0  0  0  0  0  0  0  0  0  0  0  0
  -20.5134  -37.5074   -8.8544 C   0  0  0  0  0  0  0  0  0  0  0  0
  -19.1374  -36.9357   -8.9667 C   0  0  0  0  0  0  0  0  0  0  0  0
  -18.1313  -37.9409   -8.9914 N   0  0  0  0  0  0  0  0  0  0  0  0
  -17.5222  -38.2845   -7.7541 C   0  0  0  0  0  0  0  0  0  0  0  0
  -16.3572  -39.2069   -7.8086 C   0  0  1  0  0  0  0  0  0  0  0  0
  -15.5110  -39.1731   -6.7194 O   0  0  0  0  0  0  0  0  0  0  0  0
  -16.7691  -40.6400   -8.1529 C   0  0  2  0  0  0  0  0  0  0  0  0
  -15.8417  -41.2636   -9.1721 C   0  0  0  0  0  0  0  0  0  0  0  0
  -14.7563  -42.0856   -8.5574 C   0  0  2  0  0  0  0  0  0  0  0  0
  -13.4402  -41.7482   -9.2090 C   0  0  0  0  0  0  0  0  0  0  0  0
  -15.0701  -43.5635   -8.6857 C   0  0  0  0  0  0  0  0  0  0  0  0
  -15.0300  -44.0563  -10.0951 C   0  0  0  0  0  0  0  0  0  0  0  0
  -16.0245  -45.0016  -10.3266 O   0  0  0  0  0  0  0  0  0  0  0  0
  -15.4454  -46.2386  -10.5806 C   0  0  0  0  0  0  0  0  0  0  0  0
  -15.8070  -47.2226   -9.4849 C   0  0  0  0  0  0  0  0  0  0  0  0
  -17.3026  -47.3383   -9.3143 C   0  0  0  0  0  0  0  0  0  0  0  0
  -17.7010  -47.0304   -7.8667 C   0  0  0  0  0  0  0  0  0  0  0  0
  -18.9792  -46.3686   -7.7813 N   0  0  0  0  0  0  0  0  0  0  0  0
  -19.2925  -44.9841   -7.5780 C   0  0  0  0  0  0  0  0  0  0  0  0
  -18.9310  -43.8363   -8.2321 C   0  0  0  0  0  0  0  0  0  0  0  0
  -19.4215  -42.6388   -7.7657 C   0  0  0  0  0  0  0  0  0  0  0  0
  -20.2757  -42.6631   -6.6342 C   0  0  0  0  0  0  0  0  0  0  0  0
  -20.6426  -43.8088   -5.9747 C   0  0  0  0  0  0  0  0  0  0  0  0
  -21.7064  -43.7751   -4.5755 Cl  0  0  0  0  0  0  0  0  0  0  0  0
  -20.1385  -44.9066   -6.4725 N   0  0  0  0  0  0  0  0  0  0  0  0
  -19.2411  -41.2575   -8.2111 C   0  0  0  0  0  0  0  0  0  0  0  0
  -20.2802  -40.4406   -8.1853 O   0  0  0  0  0  0  0  0  0  0  0  0
  -18.1146  -40.5512   -8.6964 N   0  0  0  0  0  0  0  0  0  0  0  0
  -21.0417  -37.8282   -7.6234 C   0  0  0  0  0  0  0  0  0  0  0  0
  1  2  1  0
  2  3  1  0
  2  4  1  0
  4  5  2  0
  5  6  1  0
  6  7  2  0
  7  8  1  0
  8  9  1  0
  9 10  1  0
 10 11  1  0
 11 12  1  0
 12 13  1  1
 12 14  1  0
 14 15  1  6
 15 16  1  0
 16 17  1  6
 16 18  1  0
 18 19  1  0
 19 20  1  0
 20 21  1  0
 21 22  1  0
 22 23  1  0
 23 24  1  0
 24 25  1  0
 25 26  1  0
 26 27  2  0
 27 28  1  0
 28 29  2  0
 29 30  1  0
 30 31  1  0
 30 32  2  0
 28 33  1  0
 33 34  2  0
 33 35  1  0
  8 36  2  0
 32 26  1  0
 35 14  1  0
 36  4  1  0
M  END
$$$$
