
     RDKit          3D

 36 38  0  0  0  0  0  0  0  0999 V2000
  -20.9756  -40.1288   -3.6086 C   0  0  0  0  0  0  0  0  0  0  0  0
  -21.9122  -39.1545   -4.3236 C   0  0  0  0  0  0  0  0  0  0  0  0
  -21.5085  -37.7637   -3.8783 C   0  0  0  0  0  0  0  0  0  0  0  0
  -21.7957  -39.2662   -5.7828 C   0  0  0  0  0  0  0  0  0  0  0  0
  -22.9114  -39.1068   -6.5658 C   0  0  0  0  0  0  0  0  0  0  0  0
  -22.8283  -39.2087   -7.9453 C   0  0  0  0  0  0  0  0  0  0  0  0
  -21.6051  -39.4729   -8.5127 C   0  0  0  0  0  0  0  0  0  0  0  0
  -20.4563  -39.6415   -7.7749 C   0  0  0  0  0  0  0  0  0  0  0  0
  -19.1342  -39.9298   -8.4088 C   0  0  0  0  0  0  0  0  0  0  0  0
  -18.0414  -39.6162   -7.5539 N   0  0  0  0  0  0  0  0  0  0  0  0
  -17.3282  -38.4161   -7.8205 C   0  0  0  0  0  0  0  0  0  0  0  0
  -15.8435  -38.4928   -7.7917 C   0  0  1  0  0  0  0  0  0  0  0  0
  -15.3034  -39.3621   -6.8665 O   0  0  0  0  0  0  0  0  0  0  0  0
  -15.2484  -38.7165   -9.1837 C   0  0  2  0  0  0  0  0  0  0  0  0
  -15.1168  -37.4222   -9.9551 C   0  0  0  0  0  0  0  0  0  0  0  0
  -13.7603  -36.8059   -9.8471 C   0  0  2  0  0  0  0  0  0  0  0  0
  -13.8988  -35.3317   -9.5676 C   0  0  0  0  0  0  0  0  0  0  0  0
  -12.9613  -37.0527  -11.1120 C   0  0  0  0  0  0  0  0  0  0  0  0
  -13.5019  -36.3317  -12.3030 C   0  0  0  0  0  0  0  0  0  0  0  0
  -13.3871  -37.1044  -13.4545 O   0  0  0  0  0  0  0  0  0  0  0  0
  -12.4905  -36.5076  -14.3320 C   0  0  0  0  0  0  0  0  0  0  0  0
  -11.2713  -37.3900  -14.5180 C   0  0  0  0  0  0  0  0  0  0  0  0
  -11.6544  -38.7758  -14.9786 C   0  0  0  0  0  0  0  0  0  0  0  0
  -11.1010  -39.8316  -14.0152 C   0  0  0  0  0  0  0  0  0  0  0  0
  -11.9809  -40.9665  -13.8848 N   0  0  0  0  0  0  0  0  0  0  0  0
  -12.9080  -41.3036  -12.8442 C   0  0  0  0  0  0  0  0  0  0  0  0
  -13.9593  -40.6360  -12.2741 C   0  0  0  0  0  0  0  0  0  0  0  0
  -14.6614  -41.2622  -11.2706 C   0  0  0  0  0  0  0  0  0  0  0  0
  -14.2562  -42.5654  -10.8858 C   0  0  0  0  0  0  0  0  0  0  0  0
  -13.2049  -43.2403  -11.4528 C   0  0  0  0  0  0  0  0  0  0  0  0
  -12.7496  -44.8566  -10.9326 Cl  0  0  0  0  0  0  0  0  0  0  0  0
  -12.5848  -42.5841  -12.3973 N   0  0  0  0  0  0  0  0  0  0  0  0
  -15.8079  -40.8492  -10.4618 C   0  0  0  0  0  0  0  0  0  0  0  0
  -16.7393  -41.7430  -10.1766 O   0  0  0  0  0  0  0  0  0  0  0  0
  -16.1632  -39.6126   -9.8720 N   0  0  0  0  0  0  0  0  0  0  0  0
  -20.5699  -39.5344   -6.4064 C   0  0  0  0  0  0  0  0  0  0  0  0
  1  2  1  0
  2  3  1  0
  2  4  1  0
  4  5  2  0
  5  6  1  0
  6  7  2  0
  7  8  1  0
  8  9  1  0
  9 10  1  0
 10 11  1  0
 11 12  1  0
 12 13  1  1
 12 14  1  0
 14 15  1  6
 15 16  1  0
 16 17  1  6
 16 18  1  0
 18 19  1  0
 19 20  1  0
 20 21  1  0
 21 22  1  0
 22 23  1  0
 23 24  1  0
 24 25  1  0
 25 26  1  0
 26 27  2  0
 27 28  1  0
 28 29  2  0
 29 30  1  0
 30 31  1  0
 30 32  2  0
 28 33  1  0
 33 34  2  0
 33 35  1  0
  8 36  2  0
 32 26  1  0
 35 14  1  0
 36  4  1  0
M  END
$$$$
