
     RDKit          3D

 36 38  0  0  0  0  0  0  0  0999 V2000
  -23.2980  -41.0766   -7.8024 C   0  0  0  0  0  0  0  0  0  0  0  0
  -23.0989  -40.2757   -9.0895 C   0  0  0  0  0  0  0  0  0  0  0  0
  -24.4828  -39.9711   -9.6258 C   0  0  0  0  0  0  0  0  0  0  0  0
  -22.3724  -39.0246   -8.8400 C   0  0  0  0  0  0  0  0  0  0  0  0
  -22.9259  -38.0711   -8.0227 C   0  0  0  0  0  0  0  0  0  0  0  0
  -22.2609  -36.8814   -7.7723 C   0  0  0  0  0  0  0  0  0  0  0  0
  -21.0358  -36.6764   -8.3597 C   0  0  0  0  0  0  0  0  0  0  0  0
  -20.4363  -37.5981   -9.1864 C   0  0  0  0  0  0  0  0  0  0  0  0
  -19.1035  -37.3579   -9.8181 C   0  0  0  0  0  0  0  0  0  0  0  0
  -18.1563  -38.3669   -9.4894 N   0  0  0  0  0  0  0  0  0  0  0  0
  -17.0861  -38.0013   -8.6287 C   0  0  0  0  0  0  0  0  0  0  0  0
  -16.1110  -39.0666   -8.2743 C   0  0  1  0  0  0  0  0  0  0  0  0
  -15.4283  -38.8877   -7.0888 O   0  0  0  0  0  0  0  0  0  0  0  0
  -16.7252  -40.4655   -8.3608 C   0  0  2  0  0  0  0  0  0  0  0  0
  -16.3148  -41.1841   -9.6269 C   0  0  0  0  0  0  0  0  0  0  0  0
  -15.1371  -42.0838   -9.4396 C   0  0  2  0  0  0  0  0  0  0  0  0
  -14.1582  -41.8712  -10.5653 C   0  0  0  0  0  0  0  0  0  0  0  0
  -15.5803  -43.5318   -9.3629 C   0  0  0  0  0  0  0  0  0  0  0  0
  -16.1273  -44.0518  -10.6517 C   0  0  0  0  0  0  0  0  0  0  0  0
  -17.1979  -44.9135  -10.4334 O   0  0  0  0  0  0  0  0  0  0  0  0
  -16.8529  -46.1996  -10.8296 C   0  0  0  0  0  0  0  0  0  0  0  0
  -16.8281  -47.1292   -9.6318 C   0  0  0  0  0  0  0  0  0  0  0  0
  -18.1433  -47.1145   -8.8907 C   0  0  0  0  0  0  0  0  0  0  0  0
  -17.9236  -46.7477   -7.4189 C   0  0  0  0  0  0  0  0  0  0  0  0
  -19.0171  -45.9783   -6.8789 N   0  0  0  0  0  0  0  0  0  0  0  0
  -19.1273  -44.5688   -6.6395 C   0  0  0  0  0  0  0  0  0  0  0  0
  -18.9684  -43.4679   -7.4386 C   0  0  0  0  0  0  0  0  0  0  0  0
  -19.1521  -42.2248   -6.8791 C   0  0  0  0  0  0  0  0  0  0  0  0
  -19.4976  -42.1559   -5.5056 C   0  0  0  0  0  0  0  0  0  0  0  0
  -19.6591  -43.2542   -4.6994 C   0  0  0  0  0  0  0  0  0  0  0  0
  -20.0887  -43.1049   -3.0013 Cl  0  0  0  0  0  0  0  0  0  0  0  0
  -19.4680  -44.3997   -5.2981 N   0  0  0  0  0  0  0  0  0  0  0  0
  -19.0617  -40.8721   -7.4278 C   0  0  0  0  0  0  0  0  0  0  0  0
  -19.9478  -39.9697   -7.0429 O   0  0  0  0  0  0  0  0  0  0  0  0
  -18.1661  -40.2729   -8.3454 N   0  0  0  0  0  0  0  0  0  0  0  0
  -21.1208  -38.7710   -9.4166 C   0  0  0  0  0  0  0  0  0  0  0  0
  1  2  1  0
  2  3  1  0
  2  4  1  0
  4  5  2  0
  5  6  1  0
  6  7  2  0
  7  8  1  0
  8  9  1  0
  9 10  1  0
 10 11  1  0
 11 12  1  0
 12 13  1  1
 12 14  1  0
 14 15  1  6
 15 16  1  0
 16 17  1  6
 16 18  1  0
 18 19  1  0
 19 20  1  0
 20 21  1  0
 21 22  1  0
 22 23  1  0
 23 24  1  0
 24 25  1  0
 25 26  1  0
 26 27  2  0
 27 28  1  0
 28 29  2  0
 29 30  1  0
 30 31  1  0
 30 32  2  0
 28 33  1  0
 33 34  2  0
 33 35  1  0
  8 36  2  0
 32 26  1  0
 35 14  1  0
 36  4  1  0
M  END
$$$$
