
     RDKit          3D

 36 38  0  0  0  0  0  0  0  0999 V2000
  -18.8710  -34.9290  -11.4895 C   0  0  0  0  0  0  0  0  0  0  0  0
  -18.4336  -35.9299  -12.5595 C   0  0  0  0  0  0  0  0  0  0  0  0
  -18.5791  -35.2258  -13.8931 C   0  0  0  0  0  0  0  0  0  0  0  0
  -17.0411  -36.3527  -12.3661 C   0  0  0  0  0  0  0  0  0  0  0  0
  -16.1848  -36.3756  -13.4384 C   0  0  0  0  0  0  0  0  0  0  0  0
  -14.8661  -36.7720  -13.2825 C   0  0  0  0  0  0  0  0  0  0  0  0
  -14.4339  -37.1418  -12.0317 C   0  0  0  0  0  0  0  0  0  0  0  0
  -15.2498  -37.1372  -10.9241 C   0  0  0  0  0  0  0  0  0  0  0  0
  -14.7633  -37.5440   -9.5711 C   0  0  0  0  0  0  0  0  0  0  0  0
  -15.5904  -37.0499   -8.5246 N   0  0  0  0  0  0  0  0  0  0  0  0
  -16.8078  -37.7394   -8.2748 C   0  0  0  0  0  0  0  0  0  0  0  0
  -16.8090  -38.7248   -7.1612 C   0  0  1  0  0  0  0  0  0  0  0  0
  -16.9599  -38.2009   -5.8939 O   0  0  0  0  0  0  0  0  0  0  0  0
  -17.7840  -39.8779   -7.4098 C   0  0  2  0  0  0  0  0  0  0  0  0
  -18.3114  -40.4588   -6.1167 C   0  0  0  0  0  0  0  0  0  0  0  0
  -19.6278  -39.8847   -5.7053 C   0  0  2  0  0  0  0  0  0  0  0  0
  -19.5890  -39.5385   -4.2393 C   0  0  0  0  0  0  0  0  0  0  0  0
  -20.7511  -40.8562   -6.0110 C   0  0  0  0  0  0  0  0  0  0  0  0
  -20.7099  -42.0908   -5.1716 C   0  0  0  0  0  0  0  0  0  0  0  0
  -21.0896  -43.2111   -5.9045 O   0  0  0  0  0  0  0  0  0  0  0  0
  -22.2847  -43.7144   -5.4059 C   0  0  0  0  0  0  0  0  0  0  0  0
  -23.3820  -43.5876   -6.4448 C   0  0  0  0  0  0  0  0  0  0  0  0
  -22.9988  -44.2593   -7.7415 C   0  0  0  0  0  0  0  0  0  0  0  0
  -23.0836  -43.2645   -8.9044 C   0  0  0  0  0  0  0  0  0  0  0  0
  -22.0760  -43.5090   -9.9065 N   0  0  0  0  0  0  0  0  0  0  0  0
  -20.8321  -42.8388  -10.1506 C   0  0  0  0  0  0  0  0  0  0  0  0
  -19.7441  -42.5679   -9.3640 C   0  0  0  0  0  0  0  0  0  0  0  0
  -18.6882  -41.8875   -9.9246 C   0  0  0  0  0  0  0  0  0  0  0  0
  -18.7873  -41.5075  -11.2871 C   0  0  0  0  0  0  0  0  0  0  0  0
  -19.8734  -41.7761  -12.0811 C   0  0  0  0  0  0  0  0  0  0  0  0
  -19.9382  -41.2786  -13.7660 Cl  0  0  0  0  0  0  0  0  0  0  0  0
  -20.8372  -42.4234  -11.4816 N   0  0  0  0  0  0  0  0  0  0  0  0
  -17.4036  -41.4415   -9.3861 C   0  0  0  0  0  0  0  0  0  0  0  0
  -16.3279  -41.5349  -10.1488 O   0  0  0  0  0  0  0  0  0  0  0  0
  -17.0333  -40.8885   -8.1369 N   0  0  0  0  0  0  0  0  0  0  0  0
  -16.5551  -36.7384  -11.1098 C   0  0  0  0  0  0  0  0  0  0  0  0
  1  2  1  0
  2  3  1  0
  2  4  1  0
  4  5  2  0
  5  6  1  0
  6  7  2  0
  7  8  1  0
  8  9  1  0
  9 10  1  0
 10 11  1  0
 11 12  1  0
 12 13  1  1
 12 14  1  0
 14 15  1  1
 15 16  1  0
 16 17  1  1
 16 18  1  0
 18 19  1  0
 19 20  1  0
 20 21  1  0
 21 22  1  0
 22 23  1  0
 23 24  1  0
 24 25  1  0
 25 26  1  0
 26 27  2  0
 27 28  1  0
 28 29  2  0
 29 30  1  0
 30 31  1  0
 30 32  2  0
 28 33  1  0
 33 34  2  0
 33 35  1  0
  8 36  2  0
 32 26  1  0
 35 14  1  0
 36  4  1  0
M  END
$$$$
