
     RDKit          3D

 36 38  0  0  0  0  0  0  0  0999 V2000
  -14.3739  -37.9205  -13.3026 C   0  0  0  0  0  0  0  0  0  0  0  0
  -14.5273  -36.4512  -12.9084 C   0  0  0  0  0  0  0  0  0  0  0  0
  -14.8077  -35.6891  -14.1874 C   0  0  0  0  0  0  0  0  0  0  0  0
  -15.6308  -36.2593  -11.9593 C   0  0  0  0  0  0  0  0  0  0  0  0
  -16.8660  -35.8825  -12.4235 C   0  0  0  0  0  0  0  0  0  0  0  0
  -17.9235  -35.6936  -11.5481 C   0  0  0  0  0  0  0  0  0  0  0  0
  -17.7092  -35.8913  -10.2054 C   0  0  0  0  0  0  0  0  0  0  0  0
  -16.4920  -36.2687   -9.6874 C   0  0  0  0  0  0  0  0  0  0  0  0
  -16.2763  -36.4780   -8.2236 C   0  0  0  0  0  0  0  0  0  0  0  0
  -17.4466  -36.9435   -7.5626 N   0  0  0  0  0  0  0  0  0  0  0  0
  -17.3494  -38.1697   -6.8506 C   0  0  0  0  0  0  0  0  0  0  0  0
  -16.5437  -39.2514   -7.4764 C   0  0  1  0  0  0  0  0  0  0  0  0
  -15.4601  -39.6943   -6.7463 O   0  0  0  0  0  0  0  0  0  0  0  0
  -17.4118  -40.4181   -7.9530 C   0  0  2  0  0  0  0  0  0  0  0  0
  -16.5758  -41.5830   -8.4343 C   0  0  0  0  0  0  0  0  0  0  0  0
  -16.3526  -42.6227   -7.3851 C   0  0  2  0  0  0  0  0  0  0  0  0
  -14.8996  -43.0216   -7.3740 C   0  0  0  0  0  0  0  0  0  0  0  0
  -17.2498  -43.8214   -7.6242 C   0  0  0  0  0  0  0  0  0  0  0  0
  -16.8969  -44.5877   -8.8567 C   0  0  0  0  0  0  0  0  0  0  0  0
  -18.0371  -45.0561   -9.5023 O   0  0  0  0  0  0  0  0  0  0  0  0
  -18.0674  -46.4442   -9.4519 C   0  0  0  0  0  0  0  0  0  0  0  0
  -19.2500  -46.9140   -8.6271 C   0  0  0  0  0  0  0  0  0  0  0  0
  -20.5499  -46.3526   -9.1509 C   0  0  0  0  0  0  0  0  0  0  0  0
  -21.2877  -45.5908   -8.0444 C   0  0  0  0  0  0  0  0  0  0  0  0
  -22.0143  -44.4547   -8.5548 N   0  0  0  0  0  0  0  0  0  0  0  0
  -21.6848  -43.0594   -8.5318 C   0  0  0  0  0  0  0  0  0  0  0  0
  -20.5985  -42.3464   -8.9647 C   0  0  0  0  0  0  0  0  0  0  0  0
  -20.6008  -40.9826   -8.7851 C   0  0  0  0  0  0  0  0  0  0  0  0
  -21.7305  -40.3935   -8.1629 C   0  0  0  0  0  0  0  0  0  0  0  0
  -22.8223  -41.1012   -7.7275 C   0  0  0  0  0  0  0  0  0  0  0  0
  -24.1950  -40.3137   -6.9622 Cl  0  0  0  0  0  0  0  0  0  0  0  0
  -22.7496  -42.3900   -7.9301 N   0  0  0  0  0  0  0  0  0  0  0  0
  -19.6285  -39.9416   -9.1169 C   0  0  0  0  0  0  0  0  0  0  0  0
  -20.0698  -38.7823   -9.5740 O   0  0  0  0  0  0  0  0  0  0  0  0
  -18.2155  -39.8992   -9.0479 N   0  0  0  0  0  0  0  0  0  0  0  0
  -15.4599  -36.4491  -10.5816 C   0  0  0  0  0  0  0  0  0  0  0  0
  1  2  1  0
  2  3  1  0
  2  4  1  0
  4  5  2  0
  5  6  1  0
  6  7  2  0
  7  8  1  0
  8  9  1  0
  9 10  1  0
 10 11  1  0
 11 12  1  0
 12 13  1  1
 12 14  1  0
 14 15  1  6
 15 16  1  0
 16 17  1  6
 16 18  1  0
 18 19  1  0
 19 20  1  0
 20 21  1  0
 21 22  1  0
 22 23  1  0
 23 24  1  0
 24 25  1  0
 25 26  1  0
 26 27  2  0
 27 28  1  0
 28 29  2  0
 29 30  1  0
 30 31  1  0
 30 32  2  0
 28 33  1  0
 33 34  2  0
 33 35  1  0
  8 36  2  0
 32 26  1  0
 35 14  1  0
 36  4  1  0
M  END
$$$$
