
     RDKit          3D

 36 38  0  0  0  0  0  0  0  0999 V2000
  -12.1585  -34.8663  -10.8218 C   0  0  0  0  0  0  0  0  0  0  0  0
  -13.3559  -34.8447  -11.7724 C   0  0  0  0  0  0  0  0  0  0  0  0
  -12.8748  -34.2005  -13.0566 C   0  0  0  0  0  0  0  0  0  0  0  0
  -13.8517  -36.1989  -12.0470 C   0  0  0  0  0  0  0  0  0  0  0  0
  -14.3309  -36.5048  -13.2960 C   0  0  0  0  0  0  0  0  0  0  0  0
  -14.8056  -37.7753  -13.5803 C   0  0  0  0  0  0  0  0  0  0  0  0
  -14.7866  -38.7224  -12.5850 C   0  0  0  0  0  0  0  0  0  0  0  0
  -14.3176  -38.4690  -11.3168 C   0  0  0  0  0  0  0  0  0  0  0  0
  -14.3057  -39.5110  -10.2458 C   0  0  0  0  0  0  0  0  0  0  0  0
  -14.3872  -38.9505   -8.9410 N   0  0  0  0  0  0  0  0  0  0  0  0
  -15.6705  -38.5445   -8.4846 C   0  0  0  0  0  0  0  0  0  0  0  0
  -16.2337  -39.2740   -7.3177 C   0  0  1  0  0  0  0  0  0  0  0  0
  -16.2506  -38.5805   -6.1251 O   0  0  0  0  0  0  0  0  0  0  0  0
  -17.5997  -39.8915   -7.6254 C   0  0  2  0  0  0  0  0  0  0  0  0
  -18.3909  -40.1657   -6.3659 C   0  0  0  0  0  0  0  0  0  0  0  0
  -19.3447  -39.0700   -6.0177 C   0  0  2  0  0  0  0  0  0  0  0  0
  -19.2320  -38.7536   -4.5487 C   0  0  0  0  0  0  0  0  0  0  0  0
  -20.7622  -39.4602   -6.3885 C   0  0  0  0  0  0  0  0  0  0  0  0
  -21.3044  -40.5772   -5.5584 C   0  0  0  0  0  0  0  0  0  0  0  0
  -22.0969  -41.4313   -6.3191 O   0  0  0  0  0  0  0  0  0  0  0  0
  -23.4151  -41.3570   -5.8866 C   0  0  0  0  0  0  0  0  0  0  0  0
  -24.2946  -40.7807   -6.9792 C   0  0  0  0  0  0  0  0  0  0  0  0
  -24.1782  -41.5713   -8.2601 C   0  0  0  0  0  0  0  0  0  0  0  0
  -23.7634  -40.6561   -9.4175 C   0  0  0  0  0  0  0  0  0  0  0  0
  -22.9143  -41.3295  -10.3687 N   0  0  0  0  0  0  0  0  0  0  0  0
  -21.4923  -41.2710  -10.5433 C   0  0  0  0  0  0  0  0  0  0  0  0
  -20.4355  -41.4890   -9.6998 C   0  0  0  0  0  0  0  0  0  0  0  0
  -19.1623  -41.3443  -10.1999 C   0  0  0  0  0  0  0  0  0  0  0  0
  -19.0182  -40.9792  -11.5624 C   0  0  0  0  0  0  0  0  0  0  0  0
  -20.0720  -40.7601  -12.4132 C   0  0  0  0  0  0  0  0  0  0  0  0
  -19.8299  -40.3090  -14.0950 Cl  0  0  0  0  0  0  0  0  0  0  0  0
  -21.2499  -40.9146  -11.8692 N   0  0  0  0  0  0  0  0  0  0  0  0
  -17.8402  -41.4938   -9.5926 C   0  0  0  0  0  0  0  0  0  0  0  0
  -16.8760  -42.0573  -10.3001 O   0  0  0  0  0  0  0  0  0  0  0  0
  -17.3286  -41.1387   -8.3216 N   0  0  0  0  0  0  0  0  0  0  0  0
  -13.8521  -37.1975  -11.0640 C   0  0  0  0  0  0  0  0  0  0  0  0
  1  2  1  0
  2  3  1  0
  2  4  1  0
  4  5  2  0
  5  6  1  0
  6  7  2  0
  7  8  1  0
  8  9  1  0
  9 10  1  0
 10 11  1  0
 11 12  1  0
 12 13  1  1
 12 14  1  0
 14 15  1  1
 15 16  1  0
 16 17  1  1
 16 18  1  0
 18 19  1  0
 19 20  1  0
 20 21  1  0
 21 22  1  0
 22 23  1  0
 23 24  1  0
 24 25  1  0
 25 26  1  0
 26 27  2  0
 27 28  1  0
 28 29  2  0
 29 30  1  0
 30 31  1  0
 30 32  2  0
 28 33  1  0
 33 34  2  0
 33 35  1  0
  8 36  2  0
 32 26  1  0
 35 14  1  0
 36  4  1  0
M  END
$$$$
