
     RDKit          3D

 36 38  0  0  0  0  0  0  0  0999 V2000
  -12.9831  -42.8784  -12.5672 C   0  0  0  0  0  0  0  0  0  0  0  0
  -13.8310  -41.6148  -12.7168 C   0  0  0  0  0  0  0  0  0  0  0  0
  -15.2657  -42.0751  -12.8756 C   0  0  0  0  0  0  0  0  0  0  0  0
  -13.7124  -40.7429  -11.5416 C   0  0  0  0  0  0  0  0  0  0  0  0
  -13.1439  -41.2297  -10.3913 C   0  0  0  0  0  0  0  0  0  0  0  0
  -13.0215  -40.4273   -9.2681 C   0  0  0  0  0  0  0  0  0  0  0  0
  -13.4815  -39.1340   -9.3303 C   0  0  0  0  0  0  0  0  0  0  0  0
  -14.0591  -38.5965  -10.4572 C   0  0  0  0  0  0  0  0  0  0  0  0
  -14.5553  -37.1878  -10.5068 C   0  0  0  0  0  0  0  0  0  0  0  0
  -15.8113  -37.0306   -9.8579 N   0  0  0  0  0  0  0  0  0  0  0  0
  -16.4507  -38.2069   -9.3808 C   0  0  0  0  0  0  0  0  0  0  0  0
  -17.3470  -38.0577   -8.2037 C   0  0  1  0  0  0  0  0  0  0  0  0
  -18.2877  -37.0519   -8.2870 O   0  0  0  0  0  0  0  0  0  0  0  0
  -17.9834  -39.3862   -7.7887 C   0  0  2  0  0  0  0  0  0  0  0  0
  -18.9413  -39.2149   -6.6309 C   0  0  0  0  0  0  0  0  0  0  0  0
  -20.3637  -39.0584   -7.0599 C   0  0  2  0  0  0  0  0  0  0  0  0
  -20.9938  -37.9171   -6.3041 C   0  0  0  0  0  0  0  0  0  0  0  0
  -21.1297  -40.3492   -6.8450 C   0  0  0  0  0  0  0  0  0  0  0  0
  -21.3090  -40.6974   -5.4037 C   0  0  0  0  0  0  0  0  0  0  0  0
  -21.2085  -42.0704   -5.2010 O   0  0  0  0  0  0  0  0  0  0  0  0
  -22.4355  -42.5743   -4.7880 C   0  0  0  0  0  0  0  0  0  0  0  0
  -22.9915  -43.5236   -5.8317 C   0  0  0  0  0  0  0  0  0  0  0  0
  -22.0177  -44.6332   -6.1474 C   0  0  0  0  0  0  0  0  0  0  0  0
  -21.7119  -44.6650   -7.6490 C   0  0  0  0  0  0  0  0  0  0  0  0
  -20.3525  -45.0614   -7.9211 N   0  0  0  0  0  0  0  0  0  0  0  0
  -19.2093  -44.2685   -8.2681 C   0  0  0  0  0  0  0  0  0  0  0  0
  -18.5998  -43.1946   -7.6756 C   0  0  0  0  0  0  0  0  0  0  0  0
  -17.4914  -42.6558   -8.2867 C   0  0  0  0  0  0  0  0  0  0  0  0
  -17.0430  -43.2460   -9.4954 C   0  0  0  0  0  0  0  0  0  0  0  0
  -17.6479  -44.3221  -10.0941 C   0  0  0  0  0  0  0  0  0  0  0  0
  -17.0446  -45.0108  -11.5947 Cl  0  0  0  0  0  0  0  0  0  0  0  0
  -18.6940  -44.7794   -9.4585 N   0  0  0  0  0  0  0  0  0  0  0  0
  -16.6197  -41.5340   -7.9389 C   0  0  0  0  0  0  0  0  0  0  0  0
  -15.3186  -41.6543   -8.1395 O   0  0  0  0  0  0  0  0  0  0  0  0
  -16.8837  -40.2531   -7.3977 N   0  0  0  0  0  0  0  0  0  0  0  0
  -14.1670  -39.4176  -11.5578 C   0  0  0  0  0  0  0  0  0  0  0  0
  1  2  1  0
  2  3  1  0
  2  4  1  0
  4  5  2  0
  5  6  1  0
  6  7  2  0
  7  8  1  0
  8  9  1  0
  9 10  1  0
 10 11  1  0
 11 12  1  0
 12 13  1  6
 12 14  1  0
 14 15  1  1
 15 16  1  0
 16 17  1  1
 16 18  1  0
 18 19  1  0
 19 20  1  0
 20 21  1  0
 21 22  1  0
 22 23  1  0
 23 24  1  0
 24 25  1  0
 25 26  1  0
 26 27  2  0
 27 28  1  0
 28 29  2  0
 29 30  1  0
 30 31  1  0
 30 32  2  0
 28 33  1  0
 33 34  2  0
 33 35  1  0
  8 36  2  0
 32 26  1  0
 35 14  1  0
 36  4  1  0
M  END
$$$$
