
     RDKit          3D

 36 38  0  0  0  0  0  0  0  0999 V2000
  -24.4615  -39.1579   -5.6152 C   0  0  0  0  0  0  0  0  0  0  0  0
  -23.9662  -39.9571   -4.4095 C   0  0  0  0  0  0  0  0  0  0  0  0
  -24.7899  -41.2281   -4.3673 C   0  0  0  0  0  0  0  0  0  0  0  0
  -22.5410  -40.2882   -4.5298 C   0  0  0  0  0  0  0  0  0  0  0  0
  -21.7559  -40.3219   -3.4047 C   0  0  0  0  0  0  0  0  0  0  0  0
  -20.4077  -40.6303   -3.4917 C   0  0  0  0  0  0  0  0  0  0  0  0
  -19.8735  -40.9017   -4.7282 C   0  0  0  0  0  0  0  0  0  0  0  0
  -20.6149  -40.8816   -5.8867 C   0  0  0  0  0  0  0  0  0  0  0  0
  -20.0170  -41.1780   -7.2238 C   0  0  0  0  0  0  0  0  0  0  0  0
  -19.6762  -39.9977   -7.9407 N   0  0  0  0  0  0  0  0  0  0  0  0
  -18.2966  -39.6714   -8.0418 C   0  0  0  0  0  0  0  0  0  0  0  0
  -17.9415  -38.4911   -8.8736 C   0  0  1  0  0  0  0  0  0  0  0  0
  -17.9719  -37.2707   -8.2308 O   0  0  0  0  0  0  0  0  0  0  0  0
  -16.6275  -38.6916   -9.6319 C   0  0  2  0  0  0  0  0  0  0  0  0
  -16.5108  -37.7560  -10.8146 C   0  0  0  0  0  0  0  0  0  0  0  0
  -15.7481  -36.5088  -10.5075 C   0  0  2  0  0  0  0  0  0  0  0  0
  -16.4917  -35.3176  -11.0542 C   0  0  0  0  0  0  0  0  0  0  0  0
  -14.3449  -36.5891  -11.0765 C   0  0  0  0  0  0  0  0  0  0  0  0
  -14.3107  -36.5773  -12.5696 C   0  0  0  0  0  0  0  0  0  0  0  0
  -13.3176  -37.4211  -13.0573 O   0  0  0  0  0  0  0  0  0  0  0  0
  -12.3355  -36.6712  -13.6924 C   0  0  0  0  0  0  0  0  0  0  0  0
  -11.0216  -36.7850  -12.9440 C   0  0  0  0  0  0  0  0  0  0  0  0
  -10.5979  -38.2250  -12.7827 C   0  0  0  0  0  0  0  0  0  0  0  0
  -10.3839  -38.5567  -11.3017 C   0  0  0  0  0  0  0  0  0  0  0  0
  -10.7533  -39.9146  -10.9874 N   0  0  0  0  0  0  0  0  0  0  0  0
  -11.9356  -40.4306  -10.3614 C   0  0  0  0  0  0  0  0  0  0  0  0
  -13.2713  -40.3097  -10.6393 C   0  0  0  0  0  0  0  0  0  0  0  0
  -14.1684  -40.9498   -9.8162 C   0  0  0  0  0  0  0  0  0  0  0  0
  -13.6569  -41.7005   -8.7275 C   0  0  0  0  0  0  0  0  0  0  0  0
  -12.3206  -41.8267   -8.4436 C   0  0  0  0  0  0  0  0  0  0  0  0
  -11.7463  -42.7725   -7.0776 Cl  0  0  0  0  0  0  0  0  0  0  0  0
  -11.5287  -41.1915   -9.2662 N   0  0  0  0  0  0  0  0  0  0  0  0
  -15.6289  -41.0289   -9.8197 C   0  0  0  0  0  0  0  0  0  0  0  0
  -16.2037  -42.1810   -9.5201 O   0  0  0  0  0  0  0  0  0  0  0  0
  -16.6353  -40.0712  -10.0905 N   0  0  0  0  0  0  0  0  0  0  0  0
  -21.9519  -40.5720   -5.7690 C   0  0  0  0  0  0  0  0  0  0  0  0
  1  2  1  0
  2  3  1  0
  2  4  1  0
  4  5  2  0
  5  6  1  0
  6  7  2  0
  7  8  1  0
  8  9  1  0
  9 10  1  0
 10 11  1  0
 11 12  1  0
 12 13  1  1
 12 14  1  0
 14 15  1  6
 15 16  1  0
 16 17  1  6
 16 18  1  0
 18 19  1  0
 19 20  1  0
 20 21  1  0
 21 22  1  0
 22 23  1  0
 23 24  1  0
 24 25  1  0
 25 26  1  0
 26 27  2  0
 27 28  1  0
 28 29  2  0
 29 30  1  0
 30 31  1  0
 30 32  2  0
 28 33  1  0
 33 34  2  0
 33 35  1  0
  8 36  2  0
 32 26  1  0
 35 14  1  0
 36  4  1  0
M  END
$$$$
