
     RDKit          3D

 36 38  0  0  0  0  0  0  0  0999 V2000
  -23.8805  -42.2346   -8.8524 C   0  0  0  0  0  0  0  0  0  0  0  0
  -23.6487  -40.7238   -8.8144 C   0  0  0  0  0  0  0  0  0  0  0  0
  -25.0177  -40.0799   -8.7323 C   0  0  0  0  0  0  0  0  0  0  0  0
  -22.8404  -40.3307   -7.6537 C   0  0  0  0  0  0  0  0  0  0  0  0
  -22.9920  -40.9990   -6.4647 C   0  0  0  0  0  0  0  0  0  0  0  0
  -22.2419  -40.6464   -5.3541 C   0  0  0  0  0  0  0  0  0  0  0  0
  -21.3432  -39.6133   -5.4684 C   0  0  0  0  0  0  0  0  0  0  0  0
  -21.1521  -38.9107   -6.6355 C   0  0  0  0  0  0  0  0  0  0  0  0
  -20.1710  -37.7885   -6.7416 C   0  0  0  0  0  0  0  0  0  0  0  0
  -19.0392  -38.1288   -7.5331 N   0  0  0  0  0  0  0  0  0  0  0  0
  -18.3323  -39.3119   -7.1858 C   0  0  0  0  0  0  0  0  0  0  0  0
  -16.8834  -39.3542   -7.5173 C   0  0  1  0  0  0  0  0  0  0  0  0
  -16.0180  -39.1668   -6.4592 O   0  0  0  0  0  0  0  0  0  0  0  0
  -16.5117  -40.5958   -8.3310 C   0  0  2  0  0  0  0  0  0  0  0  0
  -15.4129  -40.3073   -9.3295 C   0  0  0  0  0  0  0  0  0  0  0  0
  -14.0500  -40.6497   -8.8226 C   0  0  2  0  0  0  0  0  0  0  0  0
  -13.1014  -39.5196   -9.1288 C   0  0  0  0  0  0  0  0  0  0  0  0
  -13.5676  -41.9522   -9.4307 C   0  0  0  0  0  0  0  0  0  0  0  0
  -13.3048  -41.8582  -10.8980 C   0  0  0  0  0  0  0  0  0  0  0  0
  -13.6811  -43.0267  -11.5530 O   0  0  0  0  0  0  0  0  0  0  0  0
  -12.5560  -43.6591  -12.0672 C   0  0  0  0  0  0  0  0  0  0  0  0
  -12.3465  -44.9963  -11.3835 C   0  0  0  0  0  0  0  0  0  0  0  0
  -13.5705  -45.8733  -11.4931 C   0  0  0  0  0  0  0  0  0  0  0  0
  -14.0464  -46.3034  -10.1011 C   0  0  0  0  0  0  0  0  0  0  0  0
  -15.4818  -46.4186  -10.0262 N   0  0  0  0  0  0  0  0  0  0  0  0
  -16.4545  -45.5212   -9.4742 C   0  0  0  0  0  0  0  0  0  0  0  0
  -16.7403  -44.1998   -9.6933 C   0  0  0  0  0  0  0  0  0  0  0  0
  -17.7655  -43.6276   -8.9767 C   0  0  0  0  0  0  0  0  0  0  0  0
  -18.4689  -44.4412   -8.0527 C   0  0  0  0  0  0  0  0  0  0  0  0
  -18.1887  -45.7654   -7.8287 C   0  0  0  0  0  0  0  0  0  0  0  0
  -19.0974  -46.7239   -6.6685 Cl  0  0  0  0  0  0  0  0  0  0  0  0
  -17.2031  -46.2401   -8.5432 N   0  0  0  0  0  0  0  0  0  0  0  0
  -18.3228  -42.2755   -8.9587 C   0  0  0  0  0  0  0  0  0  0  0  0
  -19.6327  -42.1293   -8.8564 O   0  0  0  0  0  0  0  0  0  0  0  0
  -17.7229  -40.9955   -9.0290 N   0  0  0  0  0  0  0  0  0  0  0  0
  -21.9115  -39.2838   -7.7224 C   0  0  0  0  0  0  0  0  0  0  0  0
  1  2  1  0
  2  3  1  0
  2  4  1  0
  4  5  2  0
  5  6  1  0
  6  7  2  0
  7  8  1  0
  8  9  1  0
  9 10  1  0
 10 11  1  0
 11 12  1  0
 12 13  1  1
 12 14  1  0
 14 15  1  6
 15 16  1  0
 16 17  1  6
 16 18  1  0
 18 19  1  0
 19 20  1  0
 20 21  1  0
 21 22  1  0
 22 23  1  0
 23 24  1  0
 24 25  1  0
 25 26  1  0
 26 27  2  0
 27 28  1  0
 28 29  2  0
 29 30  1  0
 30 31  1  0
 30 32  2  0
 28 33  1  0
 33 34  2  0
 33 35  1  0
  8 36  2  0
 32 26  1  0
 35 14  1  0
 36  4  1  0
M  END
$$$$
