
     RDKit          3D

 36 38  0  0  0  0  0  0  0  0999 V2000
  -10.3947  -37.6552  -13.0515 C   0  0  0  0  0  0  0  0  0  0  0  0
  -10.9866  -37.5485  -11.6457 C   0  0  0  0  0  0  0  0  0  0  0  0
  -10.7444  -36.1262  -11.1832 C   0  0  0  0  0  0  0  0  0  0  0  0
  -12.4259  -37.8375  -11.6426 C   0  0  0  0  0  0  0  0  0  0  0  0
  -12.9664  -38.5984  -12.6486 C   0  0  0  0  0  0  0  0  0  0  0  0
  -14.3222  -38.8843  -12.6692 C   0  0  0  0  0  0  0  0  0  0  0  0
  -15.1141  -38.3896  -11.6612 C   0  0  0  0  0  0  0  0  0  0  0  0
  -14.6240  -37.6223  -10.6300 C   0  0  0  0  0  0  0  0  0  0  0  0
  -15.5002  -37.0911   -9.5423 C   0  0  0  0  0  0  0  0  0  0  0  0
  -16.8779  -37.1102   -9.8957 N   0  0  0  0  0  0  0  0  0  0  0  0
  -17.7094  -38.0504   -9.2289 C   0  0  0  0  0  0  0  0  0  0  0  0
  -17.1380  -38.7296   -8.0358 C   0  0  1  0  0  0  0  0  0  0  0  0
  -16.6983  -37.9007   -7.0243 O   0  0  0  0  0  0  0  0  0  0  0  0
  -18.0584  -39.8280   -7.4990 C   0  0  2  0  0  0  0  0  0  0  0  0
  -19.0396  -39.2931   -6.4798 C   0  0  0  0  0  0  0  0  0  0  0  0
  -20.3671  -38.9405   -7.0670 C   0  0  2  0  0  0  0  0  0  0  0  0
  -20.8031  -37.5936   -6.5510 C   0  0  0  0  0  0  0  0  0  0  0  0
  -21.3925  -40.0103   -6.7456 C   0  0  0  0  0  0  0  0  0  0  0  0
  -21.7385  -40.0807   -5.2944 C   0  0  0  0  0  0  0  0  0  0  0  0
  -21.9335  -41.3967   -4.8864 O   0  0  0  0  0  0  0  0  0  0  0  0
  -23.2630  -41.5848   -4.5298 C   0  0  0  0  0  0  0  0  0  0  0  0
  -23.9265  -42.5670   -5.4756 C   0  0  0  0  0  0  0  0  0  0  0  0
  -23.1790  -43.8776   -5.5286 C   0  0  0  0  0  0  0  0  0  0  0  0
  -22.7825  -44.2090   -6.9716 C   0  0  0  0  0  0  0  0  0  0  0  0
  -21.5165  -44.8951   -7.0461 N   0  0  0  0  0  0  0  0  0  0  0  0
  -20.2147  -44.4005   -7.3879 C   0  0  0  0  0  0  0  0  0  0  0  0
  -19.4423  -43.3807   -6.8988 C   0  0  0  0  0  0  0  0  0  0  0  0
  -18.2079  -43.1683   -7.4674 C   0  0  0  0  0  0  0  0  0  0  0  0
  -17.8059  -44.0203   -8.5271 C   0  0  0  0  0  0  0  0  0  0  0  0
  -18.5739  -45.0440   -9.0215 C   0  0  0  0  0  0  0  0  0  0  0  0
  -18.0204  -46.0680  -10.3388 Cl  0  0  0  0  0  0  0  0  0  0  0  0
  -19.7326  -45.1855   -8.4344 N   0  0  0  0  0  0  0  0  0  0  0  0
  -17.1527  -42.1914   -7.1999 C   0  0  0  0  0  0  0  0  0  0  0  0
  -15.8925  -42.5876   -7.2498 O   0  0  0  0  0  0  0  0  0  0  0  0
  -17.1877  -40.8134   -6.8787 N   0  0  0  0  0  0  0  0  0  0  0  0
  -13.2728  -37.3548  -10.6361 C   0  0  0  0  0  0  0  0  0  0  0  0
  1  2  1  0
  2  3  1  0
  2  4  1  0
  4  5  2  0
  5  6  1  0
  6  7  2  0
  7  8  1  0
  8  9  1  0
  9 10  1  0
 10 11  1  0
 11 12  1  0
 12 13  1  1
 12 14  1  0
 14 15  1  1
 15 16  1  0
 16 17  1  1
 16 18  1  0
 18 19  1  0
 19 20  1  0
 20 21  1  0
 21 22  1  0
 22 23  1  0
 23 24  1  0
 24 25  1  0
 25 26  1  0
 26 27  2  0
 27 28  1  0
 28 29  2  0
 29 30  1  0
 30 31  1  0
 30 32  2  0
 28 33  1  0
 33 34  2  0
 33 35  1  0
  8 36  2  0
 32 26  1  0
 35 14  1  0
 36  4  1  0
M  END
$$$$
