
     RDKit          3D

 36 38  0  0  0  0  0  0  0  0999 V2000
  -23.2098  -39.7040   -4.8674 C   0  0  0  0  0  0  0  0  0  0  0  0
  -22.6792  -40.5313   -6.0386 C   0  0  0  0  0  0  0  0  0  0  0  0
  -23.8906  -41.1062   -6.7438 C   0  0  0  0  0  0  0  0  0  0  0  0
  -21.9006  -39.7080   -6.9721 C   0  0  0  0  0  0  0  0  0  0  0  0
  -22.3326  -39.5583   -8.2660 C   0  0  0  0  0  0  0  0  0  0  0  0
  -21.6151  -38.7876   -9.1669 C   0  0  0  0  0  0  0  0  0  0  0  0
  -20.4618  -38.1766   -8.7373 C   0  0  0  0  0  0  0  0  0  0  0  0
  -19.9844  -38.2936   -7.4526 C   0  0  0  0  0  0  0  0  0  0  0  0
  -18.7270  -37.6230   -7.0028 C   0  0  0  0  0  0  0  0  0  0  0  0
  -18.0435  -38.3653   -6.0002 N   0  0  0  0  0  0  0  0  0  0  0  0
  -16.8129  -38.9754   -6.3656 C   0  0  0  0  0  0  0  0  0  0  0  0
  -16.3228  -38.7309   -7.7480 C   0  0  1  0  0  0  0  0  0  0  0  0
  -15.2969  -37.8165   -7.8701 O   0  0  0  0  0  0  0  0  0  0  0  0
  -16.0035  -40.0321   -8.4875 C   0  0  2  0  0  0  0  0  0  0  0  0
  -14.7675  -39.9020   -9.3495 C   0  0  0  0  0  0  0  0  0  0  0  0
  -13.5238  -40.3798   -8.6739 C   0  0  2  0  0  0  0  0  0  0  0  0
  -12.4207  -39.3748   -8.8825 C   0  0  0  0  0  0  0  0  0  0  0  0
  -13.1269  -41.7474   -9.1947 C   0  0  0  0  0  0  0  0  0  0  0  0
  -12.6820  -41.7309  -10.6204 C   0  0  0  0  0  0  0  0  0  0  0  0
  -13.1108  -42.8699  -11.2950 O   0  0  0  0  0  0  0  0  0  0  0  0
  -12.0135  -43.6416  -11.6565 C   0  0  0  0  0  0  0  0  0  0  0  0
  -12.0438  -44.9713  -10.9280 C   0  0  0  0  0  0  0  0  0  0  0  0
  -13.3395  -45.7073  -11.1702 C   0  0  0  0  0  0  0  0  0  0  0  0
  -14.0246  -46.0359   -9.8392 C   0  0  0  0  0  0  0  0  0  0  0  0
  -15.4623  -45.9855   -9.9380 N   0  0  0  0  0  0  0  0  0  0  0  0
  -16.3829  -44.9666   -9.5253 C   0  0  0  0  0  0  0  0  0  0  0  0
  -16.4852  -43.6291   -9.8017 C   0  0  0  0  0  0  0  0  0  0  0  0
  -17.5150  -42.9218   -9.2261 C   0  0  0  0  0  0  0  0  0  0  0  0
  -18.4133  -43.6206   -8.3803 C   0  0  0  0  0  0  0  0  0  0  0  0
  -18.3175  -44.9601   -8.0996 C   0  0  0  0  0  0  0  0  0  0  0  0
  -19.4631  -45.7719   -7.0418 Cl  0  0  0  0  0  0  0  0  0  0  0  0
  -17.3156  -45.5659   -8.6797 N   0  0  0  0  0  0  0  0  0  0  0  0
  -17.9097  -41.5155   -9.3009 C   0  0  0  0  0  0  0  0  0  0  0  0
  -19.1965  -41.2190   -9.3620 O   0  0  0  0  0  0  0  0  0  0  0  0
  -17.1610  -40.3145   -9.3208 N   0  0  0  0  0  0  0  0  0  0  0  0
  -20.7187  -39.0657   -6.5797 C   0  0  0  0  0  0  0  0  0  0  0  0
  1  2  1  0
  2  3  1  0
  2  4  1  0
  4  5  2  0
  5  6  1  0
  6  7  2  0
  7  8  1  0
  8  9  1  0
  9 10  1  0
 10 11  1  0
 11 12  1  0
 12 13  1  1
 12 14  1  0
 14 15  1  6
 15 16  1  0
 16 17  1  6
 16 18  1  0
 18 19  1  0
 19 20  1  0
 20 21  1  0
 21 22  1  0
 22 23  1  0
 23 24  1  0
 24 25  1  0
 25 26  1  0
 26 27  2  0
 27 28  1  0
 28 29  2  0
 29 30  1  0
 30 31  1  0
 30 32  2  0
 28 33  1  0
 33 34  2  0
 33 35  1  0
  8 36  2  0
 32 26  1  0
 35 14  1  0
 36  4  1  0
M  END
$$$$
