
     RDKit          3D

 37 38  0  0  0  0  0  0  0  0999 V2000
  -12.3543  -40.8807  -10.1949 C   0  0  0  0  0  0  0  0  0  0  0  0
  -12.9948  -39.7222   -9.4583 C   0  0  2  0  0  0  0  0  0  0  0  0
  -14.0833  -40.1359   -8.6234 N   0  0  0  0  0  0  0  0  0  0  0  0
  -14.6438  -39.0862   -7.8201 C   0  0  0  0  0  0  0  0  0  0  0  0
  -15.9222  -39.5679   -7.1600 C   0  0  1  0  0  0  0  0  0  0  0  0
  -16.3673  -38.4395   -6.4278 O   0  0  0  0  0  0  0  0  0  0  0  0
  -16.9731  -39.9312   -8.2088 C   0  0  2  0  0  0  0  0  0  0  0  0
  -18.2973  -39.3718   -7.9036 C   0  0  0  0  0  0  0  0  0  0  0  0
  -18.8777  -39.5768   -6.5432 C   0  0  2  0  0  0  0  0  0  0  0  0
  -18.5767  -40.8475   -5.8756 C   0  0  0  0  0  0  0  0  0  0  0  0
  -20.3611  -39.3600   -6.6890 C   0  0  0  0  0  0  0  0  0  0  0  0
  -21.2307  -39.9077   -5.6275 C   0  0  0  0  0  0  0  0  0  0  0  0
  -22.0624  -41.0326   -6.2030 C   0  0  0  0  0  0  0  0  0  0  0  0
  -23.4144  -40.6582   -6.6636 C   0  0  0  0  0  0  0  0  0  0  0  0
  -23.5698  -39.5616   -7.6254 C   0  0  0  0  0  0  0  0  0  0  0  0
  -23.1713  -39.7635   -9.0306 C   0  0  0  0  0  0  0  0  0  0  0  0
  -22.9794  -41.1493   -9.5142 C   0  0  0  0  0  0  0  0  0  0  0  0
  -21.6566  -41.2121  -10.2904 C   0  0  0  0  0  0  0  0  0  0  0  0
  -21.1515  -42.5915  -10.3834 C   0  0  0  0  0  0  0  0  0  0  0  0
  -22.0285  -43.4535  -10.7649 O   0  0  0  0  0  0  0  0  0  0  0  0
  -19.8311  -43.0203  -10.0975 N   0  0  0  0  0  0  0  0  0  0  0  0
  -19.2209  -43.9601  -11.0194 C   0  0  0  0  0  0  0  0  0  0  0  0
  -19.0791  -42.5878   -8.9533 C   0  0  1  0  0  0  0  0  0  0  0  0
  -19.0352  -43.8003   -8.0037 C   0  0  0  0  0  0  0  0  0  0  0  0
  -17.6983  -42.1560   -9.2954 C   0  0  0  0  0  0  0  0  0  0  0  0
  -17.2661  -42.6712  -10.3970 O   0  0  0  0  0  0  0  0  0  0  0  0
  -16.8564  -41.2956   -8.5875 N   0  0  0  0  0  0  0  0  0  0  0  0
  -13.4974  -38.7857  -10.5224 C   0  0  0  0  0  0  0  0  0  0  0  0
  -13.1733  -37.4623  -10.6903 C   0  0  0  0  0  0  0  0  0  0  0  0
  -13.8621  -37.0061  -11.7833 C   0  0  0  0  0  0  0  0  0  0  0  0
  -13.8216  -35.6323  -12.3408 C   0  0  0  0  0  0  0  0  0  0  0  0
  -12.7848  -35.4729  -13.4302 C   0  0  0  0  0  0  0  0  0  0  0  0
  -12.7630  -34.0594  -13.9490 C   0  0  0  0  0  0  0  0  0  0  0  0
  -13.0376  -36.4967  -14.5124 C   0  0  0  0  0  0  0  0  0  0  0  0
  -11.4306  -35.7346  -12.7931 C   0  0  0  0  0  0  0  0  0  0  0  0
  -14.5674  -38.0163  -12.2469 O   0  0  0  0  0  0  0  0  0  0  0  0
  -14.3677  -39.0722  -11.5204 N   0  0  0  0  0  0  0  0  0  0  0  0
  2  1  1  6
  2  3  1  0
  3  4  1  0
  4  5  1  0
  5  6  1  1
  5  7  1  0
  7  8  1  1
  8  9  1  0
  9 10  1  6
  9 11  1  0
 11 12  1  0
 12 13  1  0
 13 14  1  0
 14 15  1  0
 15 16  1  0
 16 17  1  0
 17 18  1  0
 18 19  1  0
 19 20  2  0
 19 21  1  0
 21 22  1  0
 21 23  1  0
 23 24  1  1
 23 25  1  0
 25 26  2  0
 25 27  1  0
  2 28  1  0
 28 29  1  0
 29 30  2  0
 30 31  1  0
 31 32  1  0
 32 33  1  0
 32 34  1  0
 32 35  1  0
 30 36  1  0
 36 37  1  0
 27  7  1  0
 37 28  2  0
M  END
$$$$
