
     RDKit          3D

 37 38  0  0  0  0  0  0  0  0999 V2000
  -13.2281  -41.7670   -9.7762 C   0  0  0  0  0  0  0  0  0  0  0  0
  -13.5678  -40.3582   -9.3349 C   0  0  2  0  0  0  0  0  0  0  0  0
  -14.6467  -40.3222   -8.3929 N   0  0  0  0  0  0  0  0  0  0  0  0
  -15.1660  -39.0079   -8.1393 C   0  0  0  0  0  0  0  0  0  0  0  0
  -16.4161  -39.1027   -7.2848 C   0  0  1  0  0  0  0  0  0  0  0  0
  -16.9318  -37.7831   -7.2971 O   0  0  0  0  0  0  0  0  0  0  0  0
  -17.4384  -40.0462   -7.9182 C   0  0  2  0  0  0  0  0  0  0  0  0
  -18.7792  -39.4518   -8.0104 C   0  0  0  0  0  0  0  0  0  0  0  0
  -19.3827  -38.8263   -6.7963 C   0  0  2  0  0  0  0  0  0  0  0  0
  -19.0702  -39.4447   -5.5036 C   0  0  0  0  0  0  0  0  0  0  0  0
  -20.8669  -38.7794   -7.0489 C   0  0  0  0  0  0  0  0  0  0  0  0
  -21.7466  -38.6150   -5.8734 C   0  0  0  0  0  0  0  0  0  0  0  0
  -22.5443  -39.8846   -5.6731 C   0  0  0  0  0  0  0  0  0  0  0  0
  -23.8939  -39.8939   -6.2720 C   0  0  0  0  0  0  0  0  0  0  0  0
  -24.0515  -39.5859   -7.6976 C   0  0  0  0  0  0  0  0  0  0  0  0
  -23.6209  -40.5705   -8.7072 C   0  0  0  0  0  0  0  0  0  0  0  0
  -23.3922  -41.9672   -8.2735 C   0  0  0  0  0  0  0  0  0  0  0  0
  -22.0531  -42.4412   -8.8552 C   0  0  0  0  0  0  0  0  0  0  0  0
  -21.5191  -43.5925   -8.1094 C   0  0  0  0  0  0  0  0  0  0  0  0
  -22.3711  -44.5368   -7.9091 O   0  0  0  0  0  0  0  0  0  0  0  0
  -20.1966  -43.7314   -7.6190 N   0  0  0  0  0  0  0  0  0  0  0  0
  -19.5496  -45.0174   -7.8008 C   0  0  0  0  0  0  0  0  0  0  0  0
  -19.4763  -42.6840   -6.9510 C   0  0  1  0  0  0  0  0  0  0  0  0
  -19.4277  -43.0956   -5.4671 C   0  0  0  0  0  0  0  0  0  0  0  0
  -18.0978  -42.5010   -7.4764 C   0  0  0  0  0  0  0  0  0  0  0  0
  -17.6334  -43.5568   -8.0556 O   0  0  0  0  0  0  0  0  0  0  0  0
  -17.2873  -41.3655   -7.4132 N   0  0  0  0  0  0  0  0  0  0  0  0
  -13.9589  -39.6188  -10.5848 C   0  0  0  0  0  0  0  0  0  0  0  0
  -13.3851  -38.4810  -11.0955 C   0  0  0  0  0  0  0  0  0  0  0  0
  -14.0593  -38.1610  -12.2445 C   0  0  0  0  0  0  0  0  0  0  0  0
  -13.7861  -37.0067  -13.1349 C   0  0  0  0  0  0  0  0  0  0  0  0
  -14.1389  -35.6806  -12.4992 C   0  0  0  0  0  0  0  0  0  0  0  0
  -12.9805  -35.1411  -11.7025 C   0  0  0  0  0  0  0  0  0  0  0  0
  -15.3979  -35.8404  -11.6790 C   0  0  0  0  0  0  0  0  0  0  0  0
  -14.3948  -34.7015  -13.6324 C   0  0  0  0  0  0  0  0  0  0  0  0
  -14.9961  -39.0708  -12.4109 O   0  0  0  0  0  0  0  0  0  0  0  0
  -14.9546  -39.9372  -11.4466 N   0  0  0  0  0  0  0  0  0  0  0  0
  2  1  1  6
  2  3  1  0
  3  4  1  0
  4  5  1  0
  5  6  1  6
  5  7  1  0
  7  8  1  1
  8  9  1  0
  9 10  1  1
  9 11  1  0
 11 12  1  0
 12 13  1  0
 13 14  1  0
 14 15  1  0
 15 16  1  0
 16 17  1  0
 17 18  1  0
 18 19  1  0
 19 20  2  0
 19 21  1  0
 21 22  1  0
 21 23  1  0
 23 24  1  1
 23 25  1  0
 25 26  2  0
 25 27  1  0
  2 28  1  0
 28 29  1  0
 29 30  2  0
 30 31  1  0
 31 32  1  0
 32 33  1  0
 32 34  1  0
 32 35  1  0
 30 36  1  0
 36 37  1  0
 27  7  1  0
 37 28  2  0
M  END
$$$$
