
     RDKit          3D

 37 38  0  0  0  0  0  0  0  0999 V2000
  -13.4798  -40.5534  -10.2045 C   0  0  0  0  0  0  0  0  0  0  0  0
  -14.0109  -39.1811   -9.8446 C   0  0  2  0  0  0  0  0  0  0  0  0
  -15.4427  -39.1291   -9.8413 N   0  0  0  0  0  0  0  0  0  0  0  0
  -16.0470  -39.5648   -8.6141 C   0  0  0  0  0  0  0  0  0  0  0  0
  -17.5379  -39.2852   -8.6449 C   0  0  1  0  0  0  0  0  0  0  0  0
  -17.7226  -38.5837   -9.8620 O   0  0  0  0  0  0  0  0  0  0  0  0
  -18.3354  -40.5884   -8.6917 C   0  0  2  0  0  0  0  0  0  0  0  0
  -19.7681  -40.3872   -8.4340 C   0  0  0  0  0  0  0  0  0  0  0  0
  -20.1884  -39.6034   -7.2346 C   0  0  2  0  0  0  0  0  0  0  0  0
  -19.3577  -39.7292   -6.0324 C   0  0  0  0  0  0  0  0  0  0  0  0
  -21.6195  -39.9904   -6.9677 C   0  0  0  0  0  0  0  0  0  0  0  0
  -22.1535  -39.7117   -5.6186 C   0  0  0  0  0  0  0  0  0  0  0  0
  -22.4175  -41.0230   -4.9122 C   0  0  0  0  0  0  0  0  0  0  0  0
  -23.8018  -41.5293   -4.9985 C   0  0  0  0  0  0  0  0  0  0  0  0
  -24.4285  -41.6922   -6.3148 C   0  0  0  0  0  0  0  0  0  0  0  0
  -23.9951  -42.7916   -7.1967 C   0  0  0  0  0  0  0  0  0  0  0  0
  -23.2232  -43.9062   -6.6023 C   0  0  0  0  0  0  0  0  0  0  0  0
  -22.0126  -44.1902   -7.5022 C   0  0  0  0  0  0  0  0  0  0  0  0
  -20.9579  -44.9139   -6.7739 C   0  0  0  0  0  0  0  0  0  0  0  0
  -21.3753  -45.9368   -6.1127 O   0  0  0  0  0  0  0  0  0  0  0  0
  -19.5800  -44.5827   -6.7488 N   0  0  0  0  0  0  0  0  0  0  0  0
  -18.6300  -45.6711   -6.8850 C   0  0  0  0  0  0  0  0  0  0  0  0
  -19.0807  -43.2461   -6.5874 C   0  0  1  0  0  0  0  0  0  0  0  0
  -18.5041  -43.1887   -5.1598 C   0  0  0  0  0  0  0  0  0  0  0  0
  -18.0293  -42.8954   -7.5780 C   0  0  0  0  0  0  0  0  0  0  0  0
  -17.4262  -43.9288   -8.0620 O   0  0  0  0  0  0  0  0  0  0  0  0
  -17.6396  -41.6294   -8.0204 N   0  0  0  0  0  0  0  0  0  0  0  0
  -13.4701  -38.2439  -10.8893 C   0  0  0  0  0  0  0  0  0  0  0  0
  -12.7289  -37.1064  -10.6866 C   0  0  0  0  0  0  0  0  0  0  0  0
  -12.4550  -36.5698  -11.9172 C   0  0  0  0  0  0  0  0  0  0  0  0
  -11.6784  -35.3356  -12.1880 C   0  0  0  0  0  0  0  0  0  0  0  0
  -12.4870  -34.2818  -12.9108 C   0  0  0  0  0  0  0  0  0  0  0  0
  -11.9277  -32.9069  -12.6571 C   0  0  0  0  0  0  0  0  0  0  0  0
  -13.9401  -34.4115  -12.5170 C   0  0  0  0  0  0  0  0  0  0  0  0
  -12.3401  -34.5551  -14.3981 C   0  0  0  0  0  0  0  0  0  0  0  0
  -13.0105  -37.3555  -12.8154 O   0  0  0  0  0  0  0  0  0  0  0  0
  -13.6124  -38.3458  -12.2327 N   0  0  0  0  0  0  0  0  0  0  0  0
  2  1  1  6
  2  3  1  0
  3  4  1  0
  4  5  1  0
  5  6  1  6
  5  7  1  0
  7  8  1  1
  8  9  1  0
  9 10  1  1
  9 11  1  0
 11 12  1  0
 12 13  1  0
 13 14  1  0
 14 15  1  0
 15 16  1  0
 16 17  1  0
 17 18  1  0
 18 19  1  0
 19 20  2  0
 19 21  1  0
 21 22  1  0
 21 23  1  0
 23 24  1  1
 23 25  1  0
 25 26  2  0
 25 27  1  0
  2 28  1  0
 28 29  1  0
 29 30  2  0
 30 31  1  0
 31 32  1  0
 32 33  1  0
 32 34  1  0
 32 35  1  0
 30 36  1  0
 36 37  1  0
 27  7  1  0
 37 28  2  0
M  END
$$$$
