
     RDKit          3D

 37 38  0  0  0  0  0  0  0  0999 V2000
  -12.8299  -40.7132  -10.2947 C   0  0  0  0  0  0  0  0  0  0  0  0
  -13.2285  -39.6349   -9.3082 C   0  0  2  0  0  0  0  0  0  0  0  0
  -14.3190  -40.0336   -8.4687 N   0  0  0  0  0  0  0  0  0  0  0  0
  -15.0182  -38.9428   -7.8504 C   0  0  0  0  0  0  0  0  0  0  0  0
  -16.0958  -39.4778   -6.9260 C   0  0  1  0  0  0  0  0  0  0  0  0
  -16.7437  -38.3094   -6.4544 O   0  0  0  0  0  0  0  0  0  0  0  0
  -17.1014  -40.3313   -7.6986 C   0  0  2  0  0  0  0  0  0  0  0  0
  -18.4266  -39.7030   -7.7919 C   0  0  0  0  0  0  0  0  0  0  0  0
  -19.0777  -39.1906   -6.5497 C   0  0  2  0  0  0  0  0  0  0  0  0
  -18.8376  -39.9424   -5.3134 C   0  0  0  0  0  0  0  0  0  0  0  0
  -20.5471  -39.0878   -6.8646 C   0  0  0  0  0  0  0  0  0  0  0  0
  -21.4796  -39.0244   -5.7204 C   0  0  0  0  0  0  0  0  0  0  0  0
  -22.3061  -40.2909   -5.6872 C   0  0  0  0  0  0  0  0  0  0  0  0
  -23.6253  -40.2118   -6.3457 C   0  0  0  0  0  0  0  0  0  0  0  0
  -23.7093  -39.7587   -7.7383 C   0  0  0  0  0  0  0  0  0  0  0  0
  -23.2464  -40.6452   -8.8218 C   0  0  0  0  0  0  0  0  0  0  0  0
  -23.0610  -42.0830   -8.5221 C   0  0  0  0  0  0  0  0  0  0  0  0
  -21.7032  -42.5236   -9.0864 C   0  0  0  0  0  0  0  0  0  0  0  0
  -21.2242  -43.7550   -8.4376 C   0  0  0  0  0  0  0  0  0  0  0  0
  -22.0998  -44.6968   -8.3738 O   0  0  0  0  0  0  0  0  0  0  0  0
  -19.9292  -43.9700   -7.9032 N   0  0  0  0  0  0  0  0  0  0  0  0
  -19.2948  -45.2443   -8.1846 C   0  0  0  0  0  0  0  0  0  0  0  0
  -19.2252  -43.0103   -7.0997 C   0  0  1  0  0  0  0  0  0  0  0  0
  -19.2546  -43.5702   -5.6646 C   0  0  0  0  0  0  0  0  0  0  0  0
  -17.8203  -42.8040   -7.5394 C   0  0  0  0  0  0  0  0  0  0  0  0
  -17.3455  -43.8055   -8.2008 O   0  0  0  0  0  0  0  0  0  0  0  0
  -16.9958  -41.6976   -7.3238 N   0  0  0  0  0  0  0  0  0  0  0  0
  -13.6331  -38.4475  -10.1379 C   0  0  0  0  0  0  0  0  0  0  0  0
  -14.2407  -38.4577  -11.3688 C   0  0  0  0  0  0  0  0  0  0  0  0
  -14.4232  -37.1536  -11.7477 C   0  0  0  0  0  0  0  0  0  0  0  0
  -15.0443  -36.6804  -13.0087 C   0  0  0  0  0  0  0  0  0  0  0  0
  -16.4531  -36.1674  -12.8109 C   0  0  0  0  0  0  0  0  0  0  0  0
  -16.6041  -34.7793  -13.3747 C   0  0  0  0  0  0  0  0  0  0  0  0
  -16.8138  -36.2537  -11.3461 C   0  0  0  0  0  0  0  0  0  0  0  0
  -17.3706  -37.0759  -13.6117 C   0  0  0  0  0  0  0  0  0  0  0  0
  -13.9437  -36.3983  -10.7821 O   0  0  0  0  0  0  0  0  0  0  0  0
  -13.4745  -37.1387   -9.8260 N   0  0  0  0  0  0  0  0  0  0  0  0
  2  1  1  6
  2  3  1  0
  3  4  1  0
  4  5  1  0
  5  6  1  6
  5  7  1  0
  7  8  1  1
  8  9  1  0
  9 10  1  1
  9 11  1  0
 11 12  1  0
 12 13  1  0
 13 14  1  0
 14 15  1  0
 15 16  1  0
 16 17  1  0
 17 18  1  0
 18 19  1  0
 19 20  2  0
 19 21  1  0
 21 22  1  0
 21 23  1  0
 23 24  1  1
 23 25  1  0
 25 26  2  0
 25 27  1  0
  2 28  1  0
 28 29  1  0
 29 30  2  0
 30 31  1  0
 31 32  1  0
 32 33  1  0
 32 34  1  0
 32 35  1  0
 30 36  1  0
 36 37  1  0
 27  7  1  0
 37 28  2  0
M  END
$$$$
