
     RDKit          3D

 37 38  0  0  0  0  0  0  0  0999 V2000
  -13.3028  -41.0075   -9.3738 C   0  0  0  0  0  0  0  0  0  0  0  0
  -13.5748  -39.5189   -9.3030 C   0  0  2  0  0  0  0  0  0  0  0  0
  -14.7560  -39.2108   -8.5528 N   0  0  0  0  0  0  0  0  0  0  0  0
  -15.7657  -40.2305   -8.5954 C   0  0  0  0  0  0  0  0  0  0  0  0
  -17.1090  -39.6131   -8.9364 C   0  0  1  0  0  0  0  0  0  0  0  0
  -16.9554  -39.1977  -10.2822 O   0  0  0  0  0  0  0  0  0  0  0  0
  -18.2234  -40.6563   -8.8579 C   0  0  2  0  0  0  0  0  0  0  0  0
  -19.5131  -40.0806   -8.4518 C   0  0  0  0  0  0  0  0  0  0  0  0
  -19.5726  -39.2141   -7.2372 C   0  0  2  0  0  0  0  0  0  0  0  0
  -18.6749  -39.5579   -6.1294 C   0  0  0  0  0  0  0  0  0  0  0  0
  -21.0155  -39.2057   -6.8049 C   0  0  0  0  0  0  0  0  0  0  0  0
  -21.3010  -38.7957   -5.4145 C   0  0  0  0  0  0  0  0  0  0  0  0
  -21.8218  -39.9898   -4.6455 C   0  0  0  0  0  0  0  0  0  0  0  0
  -23.2914  -40.1085   -4.5658 C   0  0  0  0  0  0  0  0  0  0  0  0
  -24.0831  -40.0972   -5.8008 C   0  0  0  0  0  0  0  0  0  0  0  0
  -24.0588  -41.2716   -6.6920 C   0  0  0  0  0  0  0  0  0  0  0  0
  -23.5482  -42.5522   -6.1529 C   0  0  0  0  0  0  0  0  0  0  0  0
  -22.5655  -43.1480   -7.1706 C   0  0  0  0  0  0  0  0  0  0  0  0
  -21.6653  -44.1274   -6.5405 C   0  0  0  0  0  0  0  0  0  0  0  0
  -22.2617  -45.0025   -5.8081 O   0  0  0  0  0  0  0  0  0  0  0  0
  -20.2552  -44.1757   -6.6752 N   0  0  0  0  0  0  0  0  0  0  0  0
  -19.6493  -45.4779   -6.8821 C   0  0  0  0  0  0  0  0  0  0  0  0
  -19.4045  -43.0208   -6.6082 C   0  0  1  0  0  0  0  0  0  0  0  0
  -18.6762  -43.1204   -5.2541 C   0  0  0  0  0  0  0  0  0  0  0  0
  -18.4163  -42.9624   -7.7173 C   0  0  0  0  0  0  0  0  0  0  0  0
  -18.1672  -44.1188   -8.2335 O   0  0  0  0  0  0  0  0  0  0  0  0
  -17.7574  -41.8458   -8.2362 N   0  0  0  0  0  0  0  0  0  0  0  0
  -13.7429  -39.0633  -10.7264 C   0  0  0  0  0  0  0  0  0  0  0  0
  -12.9509  -38.1822  -11.4197 C   0  0  0  0  0  0  0  0  0  0  0  0
  -13.4749  -38.0628  -12.6801 C   0  0  0  0  0  0  0  0  0  0  0  0
  -12.9474  -37.2165  -13.7779 C   0  0  0  0  0  0  0  0  0  0  0  0
  -13.3804  -35.7720  -13.6634 C   0  0  0  0  0  0  0  0  0  0  0  0
  -12.8660  -34.9628  -14.8245 C   0  0  0  0  0  0  0  0  0  0  0  0
  -12.9460  -35.2263  -12.3230 C   0  0  0  0  0  0  0  0  0  0  0  0
  -14.8973  -35.7575  -13.7476 C   0  0  0  0  0  0  0  0  0  0  0  0
  -14.5354  -38.8407  -12.7346 O   0  0  0  0  0  0  0  0  0  0  0  0
  -14.7111  -39.4383  -11.5969 N   0  0  0  0  0  0  0  0  0  0  0  0
  2  1  1  6
  2  3  1  0
  3  4  1  0
  4  5  1  0
  5  6  1  6
  5  7  1  0
  7  8  1  1
  8  9  1  0
  9 10  1  1
  9 11  1  0
 11 12  1  0
 12 13  1  0
 13 14  1  0
 14 15  1  0
 15 16  1  0
 16 17  1  0
 17 18  1  0
 18 19  1  0
 19 20  2  0
 19 21  1  0
 21 22  1  0
 21 23  1  0
 23 24  1  1
 23 25  1  0
 25 26  2  0
 25 27  1  0
  2 28  1  0
 28 29  1  0
 29 30  2  0
 30 31  1  0
 31 32  1  0
 32 33  1  0
 32 34  1  0
 32 35  1  0
 30 36  1  0
 36 37  1  0
 27  7  1  0
 37 28  2  0
M  END
$$$$
