
     RDKit          3D

 37 38  0  0  0  0  0  0  0  0999 V2000
  -13.8406  -41.7395  -10.4659 C   0  0  0  0  0  0  0  0  0  0  0  0
  -14.0775  -40.4082   -9.7830 C   0  0  2  0  0  0  0  0  0  0  0  0
  -15.2459  -40.4158   -8.9538 N   0  0  0  0  0  0  0  0  0  0  0  0
  -15.3471  -39.2928   -8.0651 C   0  0  0  0  0  0  0  0  0  0  0  0
  -16.5975  -39.4180   -7.2150 C   0  0  1  0  0  0  0  0  0  0  0  0
  -17.1800  -38.1282   -7.2831 O   0  0  0  0  0  0  0  0  0  0  0  0
  -17.5650  -40.4372   -7.8164 C   0  0  2  0  0  0  0  0  0  0  0  0
  -18.9287  -39.9092   -7.9617 C   0  0  0  0  0  0  0  0  0  0  0  0
  -19.5822  -39.2508   -6.7916 C   0  0  2  0  0  0  0  0  0  0  0  0
  -19.2677  -39.7885   -5.4638 C   0  0  0  0  0  0  0  0  0  0  0  0
  -21.0619  -39.2835   -7.0714 C   0  0  0  0  0  0  0  0  0  0  0  0
  -21.9704  -39.0996   -5.9209 C   0  0  0  0  0  0  0  0  0  0  0  0
  -22.7152  -40.3920   -5.6692 C   0  0  0  0  0  0  0  0  0  0  0  0
  -24.0513  -40.4922   -6.2896 C   0  0  0  0  0  0  0  0  0  0  0  0
  -24.1950  -40.2640   -7.7315 C   0  0  0  0  0  0  0  0  0  0  0  0
  -23.7022  -41.2780   -8.6819 C   0  0  0  0  0  0  0  0  0  0  0  0
  -23.4205  -42.6393   -8.1733 C   0  0  0  0  0  0  0  0  0  0  0  0
  -22.0510  -43.0815   -8.7072 C   0  0  0  0  0  0  0  0  0  0  0  0
  -21.4813  -44.1684   -7.8944 C   0  0  0  0  0  0  0  0  0  0  0  0
  -22.2946  -45.1388   -7.6603 O   0  0  0  0  0  0  0  0  0  0  0  0
  -20.1636  -44.2229   -7.3752 N   0  0  0  0  0  0  0  0  0  0  0  0
  -19.4573  -45.4861   -7.4799 C   0  0  0  0  0  0  0  0  0  0  0  0
  -19.5030  -43.1118   -6.7498 C   0  0  1  0  0  0  0  0  0  0  0  0
  -19.4648  -43.4453   -5.2461 C   0  0  0  0  0  0  0  0  0  0  0  0
  -18.1240  -42.8938   -7.2604 C   0  0  0  0  0  0  0  0  0  0  0  0
  -17.6027  -43.9556   -7.7768 O   0  0  0  0  0  0  0  0  0  0  0  0
  -17.3657  -41.7213   -7.2419 N   0  0  0  0  0  0  0  0  0  0  0  0
  -14.2450  -39.4028  -10.8889 C   0  0  0  0  0  0  0  0  0  0  0  0
  -13.8597  -38.0853  -10.8843 C   0  0  0  0  0  0  0  0  0  0  0  0
  -14.2080  -37.5511  -12.0970 C   0  0  0  0  0  0  0  0  0  0  0  0
  -13.9857  -36.1537  -12.5416 C   0  0  0  0  0  0  0  0  0  0  0  0
  -12.8055  -36.0178  -13.4775 C   0  0  0  0  0  0  0  0  0  0  0  0
  -11.5500  -36.5524  -12.8406 C   0  0  0  0  0  0  0  0  0  0  0  0
  -12.6799  -34.5770  -13.9151 C   0  0  0  0  0  0  0  0  0  0  0  0
  -13.0978  -36.8898  -14.6868 C   0  0  0  0  0  0  0  0  0  0  0  0
  -14.7775  -38.5112  -12.7947 O   0  0  0  0  0  0  0  0  0  0  0  0
  -14.8094  -39.6081  -12.1033 N   0  0  0  0  0  0  0  0  0  0  0  0
  2  1  1  6
  2  3  1  0
  3  4  1  0
  4  5  1  0
  5  6  1  6
  5  7  1  0
  7  8  1  1
  8  9  1  0
  9 10  1  1
  9 11  1  0
 11 12  1  0
 12 13  1  0
 13 14  1  0
 14 15  1  0
 15 16  1  0
 16 17  1  0
 17 18  1  0
 18 19  1  0
 19 20  2  0
 19 21  1  0
 21 22  1  0
 21 23  1  0
 23 24  1  1
 23 25  1  0
 25 26  2  0
 25 27  1  0
  2 28  1  0
 28 29  1  0
 29 30  2  0
 30 31  1  0
 31 32  1  0
 32 33  1  0
 32 34  1  0
 32 35  1  0
 30 36  1  0
 36 37  1  0
 27  7  1  0
 37 28  2  0
M  END
$$$$
