
     RDKit          3D

 37 38  0  0  0  0  0  0  0  0999 V2000
  -12.9045  -41.0658  -10.5021 C   0  0  0  0  0  0  0  0  0  0  0  0
  -13.5463  -39.8171   -9.9332 C   0  0  2  0  0  0  0  0  0  0  0  0
  -14.6300  -40.1123   -9.0437 N   0  0  0  0  0  0  0  0  0  0  0  0
  -15.1693  -38.9659   -8.3683 C   0  0  0  0  0  0  0  0  0  0  0  0
  -16.1471  -39.4104   -7.2968 C   0  0  1  0  0  0  0  0  0  0  0  0
  -16.7592  -38.2026   -6.8794 O   0  0  0  0  0  0  0  0  0  0  0  0
  -17.2131  -40.3361   -7.8826 C   0  0  2  0  0  0  0  0  0  0  0  0
  -18.5791  -39.9233   -7.5316 C   0  0  0  0  0  0  0  0  0  0  0  0
  -18.9102  -39.6443   -6.1026 C   0  0  2  0  0  0  0  0  0  0  0  0
  -18.2346  -40.4633   -5.0906 C   0  0  0  0  0  0  0  0  0  0  0  0
  -20.4091  -39.7495   -5.9967 C   0  0  0  0  0  0  0  0  0  0  0  0
  -20.9780  -39.9475   -4.6477 C   0  0  0  0  0  0  0  0  0  0  0  0
  -21.5921  -41.3278   -4.5693 C   0  0  0  0  0  0  0  0  0  0  0  0
  -23.0428  -41.3990   -4.8345 C   0  0  0  0  0  0  0  0  0  0  0  0
  -23.5764  -40.8332   -6.0783 C   0  0  0  0  0  0  0  0  0  0  0  0
  -23.3312  -41.5252   -7.3571 C   0  0  0  0  0  0  0  0  0  0  0  0
  -22.8861  -42.9365   -7.3180 C   0  0  0  0  0  0  0  0  0  0  0  0
  -21.7000  -43.0965   -8.2791 C   0  0  0  0  0  0  0  0  0  0  0  0
  -20.9030  -44.2913   -7.9571 C   0  0  0  0  0  0  0  0  0  0  0  0
  -21.5965  -45.3635   -7.7919 O   0  0  0  0  0  0  0  0  0  0  0  0
  -19.4931  -44.3456   -7.8225 N   0  0  0  0  0  0  0  0  0  0  0  0
  -18.8075  -45.4681   -8.4352 C   0  0  0  0  0  0  0  0  0  0  0  0
  -18.7186  -43.3671   -7.1122 C   0  0  1  0  0  0  0  0  0  0  0  0
  -18.2670  -44.0600   -5.8122 C   0  0  0  0  0  0  0  0  0  0  0  0
  -17.5349  -42.8959   -7.8783 C   0  0  0  0  0  0  0  0  0  0  0  0
  -17.1438  -43.7395   -8.7734 O   0  0  0  0  0  0  0  0  0  0  0  0
  -16.8316  -41.6973   -7.7407 N   0  0  0  0  0  0  0  0  0  0  0  0
  -14.0564  -39.0412  -11.1164 C   0  0  0  0  0  0  0  0  0  0  0  0
  -13.9011  -37.7001  -11.3647 C   0  0  0  0  0  0  0  0  0  0  0  0
  -14.5254  -37.4274  -12.5534 C   0  0  0  0  0  0  0  0  0  0  0  0
  -14.6148  -36.1052  -13.2195 C   0  0  0  0  0  0  0  0  0  0  0  0
  -15.7774  -35.2761  -12.7216 C   0  0  0  0  0  0  0  0  0  0  0  0
  -15.4541  -34.6376  -11.3967 C   0  0  0  0  0  0  0  0  0  0  0  0
  -17.0194  -36.1356  -12.6769 C   0  0  0  0  0  0  0  0  0  0  0  0
  -15.9777  -34.1502  -13.7218 C   0  0  0  0  0  0  0  0  0  0  0  0
  -15.0317  -38.5596  -12.9945 O   0  0  0  0  0  0  0  0  0  0  0  0
  -14.7675  -39.5211  -12.1649 N   0  0  0  0  0  0  0  0  0  0  0  0
  2  1  1  6
  2  3  1  0
  3  4  1  0
  4  5  1  0
  5  6  1  6
  5  7  1  0
  7  8  1  1
  8  9  1  0
  9 10  1  1
  9 11  1  0
 11 12  1  0
 12 13  1  0
 13 14  1  0
 14 15  1  0
 15 16  1  0
 16 17  1  0
 17 18  1  0
 18 19  1  0
 19 20  2  0
 19 21  1  0
 21 22  1  0
 21 23  1  0
 23 24  1  1
 23 25  1  0
 25 26  2  0
 25 27  1  0
  2 28  1  0
 28 29  1  0
 29 30  2  0
 30 31  1  0
 31 32  1  0
 32 33  1  0
 32 34  1  0
 32 35  1  0
 30 36  1  0
 36 37  1  0
 27  7  1  0
 37 28  2  0
M  END
$$$$
