
     RDKit          3D

 37 38  0  0  0  0  0  0  0  0999 V2000
  -15.8852  -38.1188   -5.8508 C   0  0  0  0  0  0  0  0  0  0  0  0
  -16.7396  -39.3372   -6.1338 C   0  0  2  0  0  0  0  0  0  0  0  0
  -17.2707  -39.3393   -7.4646 N   0  0  0  0  0  0  0  0  0  0  0  0
  -16.3865  -39.8895   -8.4528 C   0  0  0  0  0  0  0  0  0  0  0  0
  -17.1444  -40.1361   -9.7438 C   0  0  1  0  0  0  0  0  0  0  0  0
  -16.1294  -40.1447  -10.7323 O   0  0  0  0  0  0  0  0  0  0  0  0
  -17.8319  -41.5011   -9.7194 C   0  0  2  0  0  0  0  0  0  0  0  0
  -18.7405  -41.7000  -10.8572 C   0  0  0  0  0  0  0  0  0  0  0  0
  -19.7556  -40.6504  -11.1695 C   0  0  2  0  0  0  0  0  0  0  0  0
  -20.3394  -39.9297  -10.0333 C   0  0  0  0  0  0  0  0  0  0  0  0
  -20.8112  -41.3301  -12.0018 C   0  0  0  0  0  0  0  0  0  0  0  0
  -22.1288  -40.6678  -12.0928 C   0  0  0  0  0  0  0  0  0  0  0  0
  -23.1583  -41.5186  -11.3825 C   0  0  0  0  0  0  0  0  0  0  0  0
  -23.9284  -42.4412  -12.2404 C   0  0  0  0  0  0  0  0  0  0  0  0
  -23.2138  -43.3833  -13.1085 C   0  0  0  0  0  0  0  0  0  0  0  0
  -22.5275  -44.5449  -12.5135 C   0  0  0  0  0  0  0  0  0  0  0  0
  -22.8795  -44.9357  -11.1298 C   0  0  0  0  0  0  0  0  0  0  0  0
  -21.5795  -45.1711  -10.3482 C   0  0  0  0  0  0  0  0  0  0  0  0
  -21.8009  -45.0834   -8.8956 C   0  0  0  0  0  0  0  0  0  0  0  0
  -22.8043  -45.7683   -8.4691 O   0  0  0  0  0  0  0  0  0  0  0  0
  -21.0257  -44.3354   -7.9745 N   0  0  0  0  0  0  0  0  0  0  0  0
  -20.6796  -44.9760   -6.7194 C   0  0  0  0  0  0  0  0  0  0  0  0
  -20.5794  -42.9910   -8.2102 C   0  0  1  0  0  0  0  0  0  0  0  0
  -21.4365  -42.1023   -7.2885 C   0  0  0  0  0  0  0  0  0  0  0  0
  -19.1364  -42.7972   -7.9099 C   0  0  0  0  0  0  0  0  0  0  0  0
  -18.6725  -43.6668   -7.0766 O   0  0  0  0  0  0  0  0  0  0  0  0
  -18.2689  -41.8219   -8.4062 N   0  0  0  0  0  0  0  0  0  0  0  0
  -17.8650  -39.2909   -5.1371 C   0  0  0  0  0  0  0  0  0  0  0  0
  -18.3956  -40.3399   -4.4282 C   0  0  0  0  0  0  0  0  0  0  0  0
  -19.3988  -39.8383   -3.6413 C   0  0  0  0  0  0  0  0  0  0  0  0
  -20.2530  -40.6079   -2.7043 C   0  0  0  0  0  0  0  0  0  0  0  0
  -19.8572  -40.4142   -1.2576 C   0  0  0  0  0  0  0  0  0  0  0  0
  -20.9379  -39.6929   -0.4964 C   0  0  0  0  0  0  0  0  0  0  0  0
  -18.5207  -39.7119   -1.1964 C   0  0  0  0  0  0  0  0  0  0  0  0
  -19.7292  -41.7988   -0.6454 C   0  0  0  0  0  0  0  0  0  0  0  0
  -19.4628  -38.5440   -3.8724 O   0  0  0  0  0  0  0  0  0  0  0  0
  -18.5699  -38.2012   -4.7485 N   0  0  0  0  0  0  0  0  0  0  0  0
  2  1  1  6
  2  3  1  0
  3  4  1  0
  4  5  1  0
  5  6  1  6
  5  7  1  0
  7  8  1  6
  8  9  1  0
  9 10  1  1
  9 11  1  0
 11 12  1  0
 12 13  1  0
 13 14  1  0
 14 15  1  0
 15 16  1  0
 16 17  1  0
 17 18  1  0
 18 19  1  0
 19 20  2  0
 19 21  1  0
 21 22  1  0
 21 23  1  0
 23 24  1  1
 23 25  1  0
 25 26  2  0
 25 27  1  0
  2 28  1  0
 28 29  1  0
 29 30  2  0
 30 31  1  0
 31 32  1  0
 32 33  1  0
 32 34  1  0
 32 35  1  0
 30 36  1  0
 36 37  1  0
 27  7  1  0
 37 28  2  0
M  END
$$$$
