
     RDKit          3D

 37 38  0  0  0  0  0  0  0  0999 V2000
  -14.4111  -41.5126  -11.1117 C   0  0  0  0  0  0  0  0  0  0  0  0
  -14.4734  -40.2202  -10.3240 C   0  0  2  0  0  0  0  0  0  0  0  0
  -15.7003  -40.0775   -9.5978 N   0  0  0  0  0  0  0  0  0  0  0  0
  -15.6363  -39.1464   -8.5068 C   0  0  0  0  0  0  0  0  0  0  0  0
  -16.9887  -39.0560   -7.8251 C   0  0  1  0  0  0  0  0  0  0  0  0
  -17.5876  -37.9169   -8.4178 O   0  0  0  0  0  0  0  0  0  0  0  0
  -17.8385  -40.2880   -8.1359 C   0  0  2  0  0  0  0  0  0  0  0  0
  -19.2800  -40.0023   -8.1210 C   0  0  0  0  0  0  0  0  0  0  0  0
  -19.8682  -39.2898   -6.9480 C   0  0  2  0  0  0  0  0  0  0  0  0
  -19.2828  -39.5748   -5.6338 C   0  0  0  0  0  0  0  0  0  0  0  0
  -21.3440  -39.5895   -6.9790 C   0  0  0  0  0  0  0  0  0  0  0  0
  -22.1010  -39.3828   -5.7272 C   0  0  0  0  0  0  0  0  0  0  0  0
  -22.5672  -40.7240   -5.2056 C   0  0  0  0  0  0  0  0  0  0  0  0
  -23.9389  -41.1170   -5.5854 C   0  0  0  0  0  0  0  0  0  0  0  0
  -24.3199  -41.1248   -7.0019 C   0  0  0  0  0  0  0  0  0  0  0  0
  -23.7958  -42.1778   -7.8912 C   0  0  0  0  0  0  0  0  0  0  0  0
  -23.2136  -43.3916   -7.2755 C   0  0  0  0  0  0  0  0  0  0  0  0
  -21.8762  -43.6906   -7.9669 C   0  0  0  0  0  0  0  0  0  0  0  0
  -21.0184  -44.5479   -7.1327 C   0  0  0  0  0  0  0  0  0  0  0  0
  -21.6099  -45.5874   -6.6558 O   0  0  0  0  0  0  0  0  0  0  0  0
  -19.6519  -44.3236   -6.8306 N   0  0  0  0  0  0  0  0  0  0  0  0
  -18.7584  -45.4650   -6.8961 C   0  0  0  0  0  0  0  0  0  0  0  0
  -19.1139  -43.0455   -6.4577 C   0  0  1  0  0  0  0  0  0  0  0  0
  -18.8087  -43.1479   -4.9509 C   0  0  0  0  0  0  0  0  0  0  0  0
  -17.8788  -42.6945   -7.2069 C   0  0  0  0  0  0  0  0  0  0  0  0
  -17.2580  -43.7271   -7.6698 O   0  0  0  0  0  0  0  0  0  0  0  0
  -17.3408  -41.4293   -7.4516 N   0  0  0  0  0  0  0  0  0  0  0  0
  -14.3501  -39.1150  -11.3365 C   0  0  0  0  0  0  0  0  0  0  0  0
  -14.1887  -37.7738  -11.0925 C   0  0  0  0  0  0  0  0  0  0  0  0
  -14.1223  -37.1406  -12.3057 C   0  0  0  0  0  0  0  0  0  0  0  0
  -13.9505  -35.6849  -12.5324 C   0  0  0  0  0  0  0  0  0  0  0  0
  -12.5232  -35.3079  -12.8604 C   0  0  0  0  0  0  0  0  0  0  0  0
  -12.3764  -33.8143  -12.9838 C   0  0  0  0  0  0  0  0  0  0  0  0
  -12.0842  -36.0503  -14.1011 C   0  0  0  0  0  0  0  0  0  0  0  0
  -11.6691  -35.7437  -11.6819 C   0  0  0  0  0  0  0  0  0  0  0  0
  -14.2395  -38.0667  -13.2337 O   0  0  0  0  0  0  0  0  0  0  0  0
  -14.3743  -39.2346  -12.6858 N   0  0  0  0  0  0  0  0  0  0  0  0
  2  1  1  6
  2  3  1  0
  3  4  1  0
  4  5  1  0
  5  6  1  6
  5  7  1  0
  7  8  1  1
  8  9  1  0
  9 10  1  1
  9 11  1  0
 11 12  1  0
 12 13  1  0
 13 14  1  0
 14 15  1  0
 15 16  1  0
 16 17  1  0
 17 18  1  0
 18 19  1  0
 19 20  2  0
 19 21  1  0
 21 22  1  0
 21 23  1  0
 23 24  1  1
 23 25  1  0
 25 26  2  0
 25 27  1  0
  2 28  1  0
 28 29  1  0
 29 30  2  0
 30 31  1  0
 31 32  1  0
 32 33  1  0
 32 34  1  0
 32 35  1  0
 30 36  1  0
 36 37  1  0
 27  7  1  0
 37 28  2  0
M  END
$$$$
