
     RDKit          3D

 37 38  0  0  0  0  0  0  0  0999 V2000
  -15.2786  -40.1146  -10.0842 C   0  0  0  0  0  0  0  0  0  0  0  0
  -14.5067  -39.0811   -9.2898 C   0  0  2  0  0  0  0  0  0  0  0  0
  -15.3160  -38.4283   -8.3041 N   0  0  0  0  0  0  0  0  0  0  0  0
  -15.7093  -39.2709   -7.2101 C   0  0  0  0  0  0  0  0  0  0  0  0
  -17.1985  -39.1280   -6.9577 C   0  0  1  0  0  0  0  0  0  0  0  0
  -17.5304  -37.9051   -7.5917 O   0  0  0  0  0  0  0  0  0  0  0  0
  -17.9750  -40.2642   -7.6229 C   0  0  2  0  0  0  0  0  0  0  0  0
  -19.4224  -40.0139   -7.6663 C   0  0  0  0  0  0  0  0  0  0  0  0
  -20.1288  -39.6109   -6.4141 C   0  0  2  0  0  0  0  0  0  0  0  0
  -19.6411  -40.1910   -5.1584 C   0  0  0  0  0  0  0  0  0  0  0  0
  -21.5854  -39.9188   -6.6430 C   0  0  0  0  0  0  0  0  0  0  0  0
  -22.4478  -40.0284   -5.4484 C   0  0  0  0  0  0  0  0  0  0  0  0
  -22.9052  -41.4626   -5.3004 C   0  0  0  0  0  0  0  0  0  0  0  0
  -24.2265  -41.7763   -5.8798 C   0  0  0  0  0  0  0  0  0  0  0  0
  -24.4917  -41.4528   -7.2859 C   0  0  0  0  0  0  0  0  0  0  0  0
  -23.8597  -42.2551   -8.3494 C   0  0  0  0  0  0  0  0  0  0  0  0
  -23.2850  -43.5709   -7.9891 C   0  0  0  0  0  0  0  0  0  0  0  0
  -21.8862  -43.6748   -8.6126 C   0  0  0  0  0  0  0  0  0  0  0  0
  -21.0676  -44.6920   -7.9329 C   0  0  0  0  0  0  0  0  0  0  0  0
  -21.6572  -45.8246   -7.7678 O   0  0  0  0  0  0  0  0  0  0  0  0
  -19.7390  -44.5237   -7.4688 N   0  0  0  0  0  0  0  0  0  0  0  0
  -18.8020  -45.6019   -7.7237 C   0  0  0  0  0  0  0  0  0  0  0  0
  -19.2798  -43.3625   -6.7597 C   0  0  1  0  0  0  0  0  0  0  0  0
  -19.0934  -43.8157   -5.2989 C   0  0  0  0  0  0  0  0  0  0  0  0
  -18.0020  -42.8231   -7.2947 C   0  0  0  0  0  0  0  0  0  0  0  0
  -17.3087  -43.7054   -7.9324 O   0  0  0  0  0  0  0  0  0  0  0  0
  -17.4926  -41.5273   -7.1865 N   0  0  0  0  0  0  0  0  0  0  0  0
  -14.0157  -38.0739  -10.2931 C   0  0  0  0  0  0  0  0  0  0  0  0
  -12.7394  -37.9335  -10.7786 C   0  0  0  0  0  0  0  0  0  0  0  0
  -12.7507  -36.8919  -11.6686 C   0  0  0  0  0  0  0  0  0  0  0  0
  -11.5926  -36.3788  -12.4403 C   0  0  0  0  0  0  0  0  0  0  0  0
  -11.8397  -36.3729  -13.9323 C   0  0  0  0  0  0  0  0  0  0  0  0
  -10.5757  -36.0521  -14.6853 C   0  0  0  0  0  0  0  0  0  0  0  0
  -12.9726  -35.4235  -14.2460 C   0  0  0  0  0  0  0  0  0  0  0  0
  -12.2423  -37.7858  -14.3192 C   0  0  0  0  0  0  0  0  0  0  0  0
  -13.9830  -36.4311  -11.7110 O   0  0  0  0  0  0  0  0  0  0  0  0
  -14.7430  -37.1117  -10.9100 N   0  0  0  0  0  0  0  0  0  0  0  0
  2  1  1  6
  2  3  1  0
  3  4  1  0
  4  5  1  0
  5  6  1  6
  5  7  1  0
  7  8  1  1
  8  9  1  0
  9 10  1  1
  9 11  1  0
 11 12  1  0
 12 13  1  0
 13 14  1  0
 14 15  1  0
 15 16  1  0
 16 17  1  0
 17 18  1  0
 18 19  1  0
 19 20  2  0
 19 21  1  0
 21 22  1  0
 21 23  1  0
 23 24  1  1
 23 25  1  0
 25 26  2  0
 25 27  1  0
  2 28  1  0
 28 29  1  0
 29 30  2  0
 30 31  1  0
 31 32  1  0
 32 33  1  0
 32 34  1  0
 32 35  1  0
 30 36  1  0
 36 37  1  0
 27  7  1  0
 37 28  2  0
M  END
$$$$
