
     RDKit          3D

 37 38  0  0  0  0  0  0  0  0999 V2000
  -15.6701  -36.1341   -8.3039 C   0  0  0  0  0  0  0  0  0  0  0  0
  -15.8680  -37.3274   -9.2159 C   0  0  2  0  0  0  0  0  0  0  0  0
  -15.4911  -38.5624   -8.5950 N   0  0  0  0  0  0  0  0  0  0  0  0
  -16.5822  -39.2829   -8.0020 C   0  0  0  0  0  0  0  0  0  0  0  0
  -16.7868  -40.5994   -8.7279 C   0  0  1  0  0  0  0  0  0  0  0  0
  -15.4912  -41.1721   -8.7556 O   0  0  0  0  0  0  0  0  0  0  0  0
  -17.7231  -41.5156   -7.9402 C   0  0  2  0  0  0  0  0  0  0  0  0
  -18.6562  -42.2523   -8.8039 C   0  0  0  0  0  0  0  0  0  0  0  0
  -19.4523  -41.5028   -9.8208 C   0  0  2  0  0  0  0  0  0  0  0  0
  -19.8838  -40.1477   -9.4618 C   0  0  0  0  0  0  0  0  0  0  0  0
  -20.6210  -42.3880  -10.1663 C   0  0  0  0  0  0  0  0  0  0  0  0
  -21.7875  -41.7462  -10.8068 C   0  0  0  0  0  0  0  0  0  0  0  0
  -22.9589  -41.7860   -9.8505 C   0  0  0  0  0  0  0  0  0  0  0  0
  -23.8941  -42.9144  -10.0303 C   0  0  0  0  0  0  0  0  0  0  0  0
  -23.3758  -44.2868  -10.0285 C   0  0  0  0  0  0  0  0  0  0  0  0
  -22.9231  -44.8926   -8.7627 C   0  0  0  0  0  0  0  0  0  0  0  0
  -23.3394  -44.2579   -7.4918 C   0  0  0  0  0  0  0  0  0  0  0  0
  -22.1064  -44.1351   -6.5858 C   0  0  0  0  0  0  0  0  0  0  0  0
  -22.3026  -43.1135   -5.5445 C   0  0  0  0  0  0  0  0  0  0  0  0
  -23.4175  -43.2115   -4.9078 O   0  0  0  0  0  0  0  0  0  0  0  0
  -21.3957  -42.0780   -5.2064 N   0  0  0  0  0  0  0  0  0  0  0  0
  -21.1752  -41.8189   -3.7959 C   0  0  0  0  0  0  0  0  0  0  0  0
  -20.7008  -41.2753   -6.1733 C   0  0  1  0  0  0  0  0  0  0  0  0
  -21.3690  -39.8881   -6.1174 C   0  0  0  0  0  0  0  0  0  0  0  0
  -19.2465  -41.1541   -5.8897 C   0  0  0  0  0  0  0  0  0  0  0  0
  -18.9554  -41.3540   -4.6483 O   0  0  0  0  0  0  0  0  0  0  0  0
  -18.2096  -40.8598   -6.7776 N   0  0  0  0  0  0  0  0  0  0  0  0
  -14.9987  -37.0758  -10.4171 C   0  0  0  0  0  0  0  0  0  0  0  0
  -13.6318  -36.9531  -10.4469 C   0  0  0  0  0  0  0  0  0  0  0  0
  -13.2675  -36.7311  -11.7490 C   0  0  0  0  0  0  0  0  0  0  0  0
  -11.8880  -36.5375  -12.2580 C   0  0  0  0  0  0  0  0  0  0  0  0
  -11.8519  -36.1542  -13.7205 C   0  0  0  0  0  0  0  0  0  0  0  0
  -11.7077  -34.6641  -13.8825 C   0  0  0  0  0  0  0  0  0  0  0  0
  -13.0761  -36.7088  -14.4113 C   0  0  0  0  0  0  0  0  0  0  0  0
  -10.6056  -36.7896  -14.3133 C   0  0  0  0  0  0  0  0  0  0  0  0
  -14.3723  -36.7219  -12.4647 O   0  0  0  0  0  0  0  0  0  0  0  0
  -15.4016  -36.9227  -11.7015 N   0  0  0  0  0  0  0  0  0  0  0  0
  2  1  1  1
  2  3  1  0
  3  4  1  0
  4  5  1  0
  5  6  1  1
  5  7  1  0
  7  8  1  6
  8  9  1  0
  9 10  1  1
  9 11  1  0
 11 12  1  0
 12 13  1  0
 13 14  1  0
 14 15  1  0
 15 16  1  0
 16 17  1  0
 17 18  1  0
 18 19  1  0
 19 20  2  0
 19 21  1  0
 21 22  1  0
 21 23  1  0
 23 24  1  1
 23 25  1  0
 25 26  2  0
 25 27  1  0
  2 28  1  0
 28 29  1  0
 29 30  2  0
 30 31  1  0
 31 32  1  0
 32 33  1  0
 32 34  1  0
 32 35  1  0
 30 36  1  0
 36 37  1  0
 27  7  1  0
 37 28  2  0
M  END
$$$$
