
     RDKit          3D

 37 38  0  0  0  0  0  0  0  0999 V2000
  -12.3903  -41.5865  -10.2627 C   0  0  0  0  0  0  0  0  0  0  0  0
  -13.0415  -40.3081   -9.7765 C   0  0  2  0  0  0  0  0  0  0  0  0
  -14.2188  -40.5525   -8.9973 N   0  0  0  0  0  0  0  0  0  0  0  0
  -14.9097  -39.3646   -8.5819 C   0  0  0  0  0  0  0  0  0  0  0  0
  -15.8312  -39.6830   -7.4194 C   0  0  1  0  0  0  0  0  0  0  0  0
  -16.4390  -38.4380   -7.1225 O   0  0  0  0  0  0  0  0  0  0  0  0
  -16.9110  -40.6806   -7.8380 C   0  0  2  0  0  0  0  0  0  0  0  0
  -18.2044  -40.0377   -8.1085 C   0  0  0  0  0  0  0  0  0  0  0  0
  -18.7759  -39.0994   -7.0973 C   0  0  2  0  0  0  0  0  0  0  0  0
  -18.5243  -39.4079   -5.6857 C   0  0  0  0  0  0  0  0  0  0  0  0
  -20.2498  -39.0156   -7.3966 C   0  0  0  0  0  0  0  0  0  0  0  0
  -21.1295  -38.5146   -6.3205 C   0  0  0  0  0  0  0  0  0  0  0  0
  -22.0187  -39.6424   -5.8455 C   0  0  0  0  0  0  0  0  0  0  0  0
  -23.3581  -39.7053   -6.4635 C   0  0  0  0  0  0  0  0  0  0  0  0
  -23.4761  -39.7397   -7.9253 C   0  0  0  0  0  0  0  0  0  0  0  0
  -23.1053  -40.9649   -8.6572 C   0  0  0  0  0  0  0  0  0  0  0  0
  -22.9827  -42.2282   -7.8954 C   0  0  0  0  0  0  0  0  0  0  0  0
  -21.6742  -42.9167   -8.3078 C   0  0  0  0  0  0  0  0  0  0  0  0
  -21.2334  -43.8877   -7.2931 C   0  0  0  0  0  0  0  0  0  0  0  0
  -22.1534  -44.6969   -6.8974 O   0  0  0  0  0  0  0  0  0  0  0  0
  -19.9302  -43.9926   -6.7457 N   0  0  0  0  0  0  0  0  0  0  0  0
  -19.3752  -45.3249   -6.5957 C   0  0  0  0  0  0  0  0  0  0  0  0
  -19.1446  -42.8658   -6.3272 C   0  0  1  0  0  0  0  0  0  0  0  0
  -19.1435  -42.9104   -4.7871 C   0  0  0  0  0  0  0  0  0  0  0  0
  -17.7502  -42.9072   -6.8410 C   0  0  0  0  0  0  0  0  0  0  0  0
  -17.3561  -44.1000   -7.1371 O   0  0  0  0  0  0  0  0  0  0  0  0
  -16.8611  -41.8467   -7.0278 N   0  0  0  0  0  0  0  0  0  0  0  0
  -13.4025  -39.5338  -11.0144 C   0  0  0  0  0  0  0  0  0  0  0  0
  -12.8696  -38.3419  -11.4382 C   0  0  0  0  0  0  0  0  0  0  0  0
  -13.4933  -38.0071  -12.6114 C   0  0  0  0  0  0  0  0  0  0  0  0
  -13.2385  -36.7979  -13.4316 C   0  0  0  0  0  0  0  0  0  0  0  0
  -13.9448  -35.5707  -12.9005 C   0  0  0  0  0  0  0  0  0  0  0  0
  -14.4321  -35.7973  -11.4938 C   0  0  0  0  0  0  0  0  0  0  0  0
  -15.0499  -35.1800  -13.8540 C   0  0  0  0  0  0  0  0  0  0  0  0
  -12.9122  -34.4579  -12.8404 C   0  0  0  0  0  0  0  0  0  0  0  0
  -14.3619  -38.9605  -12.8748 O   0  0  0  0  0  0  0  0  0  0  0  0
  -14.3249  -39.8679  -11.9488 N   0  0  0  0  0  0  0  0  0  0  0  0
  2  1  1  6
  2  3  1  0
  3  4  1  0
  4  5  1  0
  5  6  1  6
  5  7  1  0
  7  8  1  1
  8  9  1  0
  9 10  1  1
  9 11  1  0
 11 12  1  0
 12 13  1  0
 13 14  1  0
 14 15  1  0
 15 16  1  0
 16 17  1  0
 17 18  1  0
 18 19  1  0
 19 20  2  0
 19 21  1  0
 21 22  1  0
 21 23  1  0
 23 24  1  1
 23 25  1  0
 25 26  2  0
 25 27  1  0
  2 28  1  0
 28 29  1  0
 29 30  2  0
 30 31  1  0
 31 32  1  0
 32 33  1  0
 32 34  1  0
 32 35  1  0
 30 36  1  0
 36 37  1  0
 27  7  1  0
 37 28  2  0
M  END
$$$$
