
     RDKit          3D

 37 38  0  0  0  0  0  0  0  0999 V2000
  -13.2477  -40.2333  -10.3371 C   0  0  0  0  0  0  0  0  0  0  0  0
  -14.3197  -39.5062   -9.5515 C   0  0  2  0  0  0  0  0  0  0  0  0
  -15.0491  -40.3781   -8.6794 N   0  0  0  0  0  0  0  0  0  0  0  0
  -15.2485  -39.8586   -7.3560 C   0  0  0  0  0  0  0  0  0  0  0  0
  -16.7013  -39.4628   -7.1701 C   0  0  1  0  0  0  0  0  0  0  0  0
  -16.8574  -38.3468   -8.0290 O   0  0  0  0  0  0  0  0  0  0  0  0
  -17.6340  -40.5832   -7.6294 C   0  0  2  0  0  0  0  0  0  0  0  0
  -19.0238  -40.1344   -7.7927 C   0  0  0  0  0  0  0  0  0  0  0  0
  -19.6798  -39.3806   -6.6832 C   0  0  2  0  0  0  0  0  0  0  0  0
  -19.3098  -39.7547   -5.3142 C   0  0  0  0  0  0  0  0  0  0  0  0
  -21.1625  -39.5085   -6.9158 C   0  0  0  0  0  0  0  0  0  0  0  0
  -22.0515  -39.2391   -5.7669 C   0  0  0  0  0  0  0  0  0  0  0  0
  -22.7293  -40.5273   -5.3552 C   0  0  0  0  0  0  0  0  0  0  0  0
  -24.0734  -40.7534   -5.9230 C   0  0  0  0  0  0  0  0  0  0  0  0
  -24.2611  -40.6916   -7.3766 C   0  0  0  0  0  0  0  0  0  0  0  0
  -23.7439  -41.7814   -8.2245 C   0  0  0  0  0  0  0  0  0  0  0  0
  -23.3874  -43.0650   -7.5790 C   0  0  0  0  0  0  0  0  0  0  0  0
  -22.0116  -43.5029   -8.1000 C   0  0  0  0  0  0  0  0  0  0  0  0
  -21.3732  -44.4679   -7.1903 C   0  0  0  0  0  0  0  0  0  0  0  0
  -22.1348  -45.4412   -6.8291 O   0  0  0  0  0  0  0  0  0  0  0  0
  -20.0426  -44.4073   -6.7057 N   0  0  0  0  0  0  0  0  0  0  0  0
  -19.2809  -45.6423   -6.6922 C   0  0  0  0  0  0  0  0  0  0  0  0
  -19.4201  -43.2064   -6.2238 C   0  0  1  0  0  0  0  0  0  0  0  0
  -19.3313  -43.3705   -4.6944 C   0  0  0  0  0  0  0  0  0  0  0  0
  -18.0650  -42.9858   -6.7939 C   0  0  0  0  0  0  0  0  0  0  0  0
  -17.5070  -44.0741   -7.2062 O   0  0  0  0  0  0  0  0  0  0  0  0
  -17.3618  -41.7863   -6.9244 N   0  0  0  0  0  0  0  0  0  0  0  0
  -15.2501  -38.9154  -10.5748 C   0  0  0  0  0  0  0  0  0  0  0  0
  -15.3417  -37.6008  -10.9592 C   0  0  0  0  0  0  0  0  0  0  0  0
  -16.3203  -37.5193  -11.9146 C   0  0  0  0  0  0  0  0  0  0  0  0
  -16.7656  -36.2920  -12.6184 C   0  0  0  0  0  0  0  0  0  0  0  0
  -18.1572  -35.8581  -12.2153 C   0  0  0  0  0  0  0  0  0  0  0  0
  -18.7111  -34.8538  -13.1911 C   0  0  0  0  0  0  0  0  0  0  0  0
  -18.1277  -35.3477  -10.7934 C   0  0  0  0  0  0  0  0  0  0  0  0
  -19.0436  -37.0897  -12.2921 C   0  0  0  0  0  0  0  0  0  0  0  0
  -16.7920  -38.7354  -12.0916 O   0  0  0  0  0  0  0  0  0  0  0  0
  -16.1768  -39.5715  -11.3140 N   0  0  0  0  0  0  0  0  0  0  0  0
  2  1  1  6
  2  3  1  0
  3  4  1  0
  4  5  1  0
  5  6  1  6
  5  7  1  0
  7  8  1  1
  8  9  1  0
  9 10  1  1
  9 11  1  0
 11 12  1  0
 12 13  1  0
 13 14  1  0
 14 15  1  0
 15 16  1  0
 16 17  1  0
 17 18  1  0
 18 19  1  0
 19 20  2  0
 19 21  1  0
 21 22  1  0
 21 23  1  0
 23 24  1  1
 23 25  1  0
 25 26  2  0
 25 27  1  0
  2 28  1  0
 28 29  1  0
 29 30  2  0
 30 31  1  0
 31 32  1  0
 32 33  1  0
 32 34  1  0
 32 35  1  0
 30 36  1  0
 36 37  1  0
 27  7  1  0
 37 28  2  0
M  END
$$$$
