
     RDKit          3D

 37 38  0  0  0  0  0  0  0  0999 V2000
  -12.6684  -41.1063   -9.9680 C   0  0  0  0  0  0  0  0  0  0  0  0
  -13.2123  -39.8307   -9.3581 C   0  0  2  0  0  0  0  0  0  0  0  0
  -14.4892  -40.0195   -8.7362 N   0  0  0  0  0  0  0  0  0  0  0  0
  -15.1237  -38.8046   -8.3089 C   0  0  0  0  0  0  0  0  0  0  0  0
  -16.2115  -39.1179   -7.2987 C   0  0  1  0  0  0  0  0  0  0  0  0
  -16.8064  -37.8573   -7.0446 O   0  0  0  0  0  0  0  0  0  0  0  0
  -17.2594  -40.0544   -7.8998 C   0  0  2  0  0  0  0  0  0  0  0  0
  -18.5765  -39.4180   -8.0400 C   0  0  0  0  0  0  0  0  0  0  0  0
  -19.1720  -38.7122   -6.8666 C   0  0  2  0  0  0  0  0  0  0  0  0
  -18.8983  -39.2767   -5.5409 C   0  0  0  0  0  0  0  0  0  0  0  0
  -20.6503  -38.6250   -7.1424 C   0  0  0  0  0  0  0  0  0  0  0  0
  -21.5380  -38.3715   -5.9889 C   0  0  0  0  0  0  0  0  0  0  0  0
  -22.3837  -39.6004   -5.7382 C   0  0  0  0  0  0  0  0  0  0  0  0
  -23.7251  -39.5912   -6.3550 C   0  0  0  0  0  0  0  0  0  0  0  0
  -23.8537  -39.3486   -7.7960 C   0  0  0  0  0  0  0  0  0  0  0  0
  -23.4466  -40.3965   -8.7501 C   0  0  0  0  0  0  0  0  0  0  0  0
  -23.2741  -41.7774   -8.2454 C   0  0  0  0  0  0  0  0  0  0  0  0
  -21.9459  -42.3270   -8.7841 C   0  0  0  0  0  0  0  0  0  0  0  0
  -21.4634  -43.4583   -7.9754 C   0  0  0  0  0  0  0  0  0  0  0  0
  -22.3515  -44.3606   -7.7413 O   0  0  0  0  0  0  0  0  0  0  0  0
  -20.1530  -43.6199   -7.4600 N   0  0  0  0  0  0  0  0  0  0  0  0
  -19.5509  -44.9355   -7.5695 C   0  0  0  0  0  0  0  0  0  0  0  0
  -19.4036  -42.5670   -6.8339 C   0  0  1  0  0  0  0  0  0  0  0  0
  -19.3884  -42.9063   -5.3310 C   0  0  0  0  0  0  0  0  0  0  0  0
  -18.0128  -42.4594   -7.3479 C   0  0  0  0  0  0  0  0  0  0  0  0
  -17.5799  -43.5584   -7.8681 O   0  0  0  0  0  0  0  0  0  0  0  0
  -17.1626  -41.3518   -7.3287 N   0  0  0  0  0  0  0  0  0  0  0  0
  -13.3393  -38.8533  -10.4941 C   0  0  0  0  0  0  0  0  0  0  0  0
  -12.9655  -39.0402  -11.8016 C   0  0  0  0  0  0  0  0  0  0  0  0
  -13.2658  -37.8902  -12.4832 C   0  0  0  0  0  0  0  0  0  0  0  0
  -13.0367  -37.6350  -13.9262 C   0  0  0  0  0  0  0  0  0  0  0  0
  -12.7836  -36.1753  -14.2297 C   0  0  0  0  0  0  0  0  0  0  0  0
  -11.9991  -35.5239  -13.1216 C   0  0  0  0  0  0  0  0  0  0  0  0
  -14.1008  -35.4880  -14.5055 C   0  0  0  0  0  0  0  0  0  0  0  0
  -11.9174  -36.1270  -15.4769 C   0  0  0  0  0  0  0  0  0  0  0  0
  -13.7964  -37.0531  -11.6170 O   0  0  0  0  0  0  0  0  0  0  0  0
  -13.8490  -37.5991  -10.4416 N   0  0  0  0  0  0  0  0  0  0  0  0
  2  1  1  6
  2  3  1  0
  3  4  1  0
  4  5  1  0
  5  6  1  6
  5  7  1  0
  7  8  1  1
  8  9  1  0
  9 10  1  1
  9 11  1  0
 11 12  1  0
 12 13  1  0
 13 14  1  0
 14 15  1  0
 15 16  1  0
 16 17  1  0
 17 18  1  0
 18 19  1  0
 19 20  2  0
 19 21  1  0
 21 22  1  0
 21 23  1  0
 23 24  1  1
 23 25  1  0
 25 26  2  0
 25 27  1  0
  2 28  1  0
 28 29  1  0
 29 30  2  0
 30 31  1  0
 31 32  1  0
 32 33  1  0
 32 34  1  0
 32 35  1  0
 30 36  1  0
 36 37  1  0
 27  7  1  0
 37 28  2  0
M  END
$$$$
