
     RDKit          3D

 37 38  0  0  0  0  0  0  0  0999 V2000
  -13.1243  -41.7585   -9.6277 C   0  0  0  0  0  0  0  0  0  0  0  0
  -13.8284  -40.4389   -9.3877 C   0  0  2  0  0  0  0  0  0  0  0  0
  -15.1614  -40.6093   -8.8908 N   0  0  0  0  0  0  0  0  0  0  0  0
  -15.8095  -39.3872   -8.5065 C   0  0  0  0  0  0  0  0  0  0  0  0
  -16.8037  -39.6581   -7.3929 C   0  0  1  0  0  0  0  0  0  0  0  0
  -17.4647  -38.4162   -7.2239 O   0  0  0  0  0  0  0  0  0  0  0  0
  -17.8231  -40.7146   -7.8181 C   0  0  2  0  0  0  0  0  0  0  0  0
  -19.1158  -40.1332   -8.2060 C   0  0  0  0  0  0  0  0  0  0  0  0
  -19.7796  -39.1590   -7.2896 C   0  0  2  0  0  0  0  0  0  0  0  0
  -19.6095  -39.3776   -5.8493 C   0  0  0  0  0  0  0  0  0  0  0  0
  -21.2331  -39.1433   -7.6845 C   0  0  0  0  0  0  0  0  0  0  0  0
  -22.1950  -38.6124   -6.6967 C   0  0  0  0  0  0  0  0  0  0  0  0
  -23.0776  -39.7412   -6.2119 C   0  0  0  0  0  0  0  0  0  0  0  0
  -24.3721  -39.8855   -6.9073 C   0  0  0  0  0  0  0  0  0  0  0  0
  -24.3951  -40.0073   -8.3690 C   0  0  0  0  0  0  0  0  0  0  0  0
  -23.9405  -41.2587   -9.0026 C   0  0  0  0  0  0  0  0  0  0  0  0
  -23.8281  -42.4715   -8.1614 C   0  0  0  0  0  0  0  0  0  0  0  0
  -22.4753  -43.1369   -8.4501 C   0  0  0  0  0  0  0  0  0  0  0  0
  -22.0707  -44.0326   -7.3544 C   0  0  0  0  0  0  0  0  0  0  0  0
  -22.9888  -44.8491   -6.9695 O   0  0  0  0  0  0  0  0  0  0  0  0
  -20.8027  -44.0611   -6.7217 N   0  0  0  0  0  0  0  0  0  0  0  0
  -20.2176  -45.3627   -6.4590 C   0  0  0  0  0  0  0  0  0  0  0  0
  -20.0807  -42.8858   -6.3225 C   0  0  1  0  0  0  0  0  0  0  0  0
  -20.1769  -42.8423   -4.7854 C   0  0  0  0  0  0  0  0  0  0  0  0
  -18.6556  -42.9083   -6.7452 C   0  0  0  0  0  0  0  0  0  0  0  0
  -18.2067  -44.1018   -6.9451 O   0  0  0  0  0  0  0  0  0  0  0  0
  -17.7894  -41.8301   -6.9388 N   0  0  0  0  0  0  0  0  0  0  0  0
  -13.8676  -39.7451  -10.7216 C   0  0  0  0  0  0  0  0  0  0  0  0
  -13.2586  -38.5641  -11.0662 C   0  0  0  0  0  0  0  0  0  0  0  0
  -13.5626  -38.3126  -12.3782 C   0  0  0  0  0  0  0  0  0  0  0  0
  -13.1202  -37.1442  -13.1776 C   0  0  0  0  0  0  0  0  0  0  0  0
  -11.8258  -37.3974  -13.9176 C   0  0  0  0  0  0  0  0  0  0  0  0
  -11.4476  -36.2089  -14.7615 C   0  0  0  0  0  0  0  0  0  0  0  0
  -11.9496  -38.6745  -14.7156 C   0  0  0  0  0  0  0  0  0  0  0  0
  -10.7408  -37.5611  -12.8668 C   0  0  0  0  0  0  0  0  0  0  0  0
  -14.3216  -39.3031  -12.7974 O   0  0  0  0  0  0  0  0  0  0  0  0
  -14.5132  -40.1563  -11.8394 N   0  0  0  0  0  0  0  0  0  0  0  0
  2  1  1  6
  2  3  1  0
  3  4  1  0
  4  5  1  0
  5  6  1  6
  5  7  1  0
  7  8  1  1
  8  9  1  0
  9 10  1  1
  9 11  1  0
 11 12  1  0
 12 13  1  0
 13 14  1  0
 14 15  1  0
 15 16  1  0
 16 17  1  0
 17 18  1  0
 18 19  1  0
 19 20  2  0
 19 21  1  0
 21 22  1  0
 21 23  1  0
 23 24  1  1
 23 25  1  0
 25 26  2  0
 25 27  1  0
  2 28  1  0
 28 29  1  0
 29 30  2  0
 30 31  1  0
 31 32  1  0
 32 33  1  0
 32 34  1  0
 32 35  1  0
 30 36  1  0
 36 37  1  0
 27  7  1  0
 37 28  2  0
M  END
$$$$
