
     RDKit          3D

 37 38  0  0  0  0  0  0  0  0999 V2000
  -14.3607  -41.2701  -10.5428 C   0  0  0  0  0  0  0  0  0  0  0  0
  -14.2021  -39.8363  -10.0805 C   0  0  2  0  0  0  0  0  0  0  0  0
  -15.3690  -39.3417   -9.4123 N   0  0  0  0  0  0  0  0  0  0  0  0
  -15.2507  -39.2822   -7.9827 C   0  0  0  0  0  0  0  0  0  0  0  0
  -16.6207  -39.0938   -7.3586 C   0  0  1  0  0  0  0  0  0  0  0  0
  -17.0954  -37.8955   -7.9469 O   0  0  0  0  0  0  0  0  0  0  0  0
  -17.5547  -40.2427   -7.7383 C   0  0  2  0  0  0  0  0  0  0  0  0
  -18.9721  -39.9149   -7.5309 C   0  0  0  0  0  0  0  0  0  0  0  0
  -19.4038  -39.3520   -6.2170 C   0  0  2  0  0  0  0  0  0  0  0  0
  -18.7017  -39.8344   -5.0230 C   0  0  0  0  0  0  0  0  0  0  0  0
  -20.8876  -39.5962   -6.1293 C   0  0  0  0  0  0  0  0  0  0  0  0
  -21.5027  -39.5393   -4.7872 C   0  0  0  0  0  0  0  0  0  0  0  0
  -21.9758  -40.9237   -4.4026 C   0  0  0  0  0  0  0  0  0  0  0  0
  -23.3960  -41.2155   -4.6822 C   0  0  0  0  0  0  0  0  0  0  0  0
  -23.9191  -41.0156   -6.0380 C   0  0  0  0  0  0  0  0  0  0  0  0
  -23.5383  -41.9525   -7.1110 C   0  0  0  0  0  0  0  0  0  0  0  0
  -22.9541  -43.2580   -6.7291 C   0  0  0  0  0  0  0  0  0  0  0  0
  -21.7095  -43.5024   -7.5936 C   0  0  0  0  0  0  0  0  0  0  0  0
  -20.8125  -44.4941   -6.9783 C   0  0  0  0  0  0  0  0  0  0  0  0
  -21.4006  -45.5695   -6.5839 O   0  0  0  0  0  0  0  0  0  0  0  0
  -19.4134  -44.3583   -6.7971 N   0  0  0  0  0  0  0  0  0  0  0  0
  -18.5857  -45.5084   -7.1099 C   0  0  0  0  0  0  0  0  0  0  0  0
  -18.7808  -43.1621   -6.3166 C   0  0  1  0  0  0  0  0  0  0  0  0
  -18.3290  -43.4811   -4.8786 C   0  0  0  0  0  0  0  0  0  0  0  0
  -17.6132  -42.7518   -7.1403 C   0  0  0  0  0  0  0  0  0  0  0  0
  -17.0919  -43.7304   -7.8009 O   0  0  0  0  0  0  0  0  0  0  0  0
  -17.0441  -41.4831   -7.2700 N   0  0  0  0  0  0  0  0  0  0  0  0
  -13.9473  -39.0291  -11.3237 C   0  0  0  0  0  0  0  0  0  0  0  0
  -13.1677  -37.9057  -11.4442 C   0  0  0  0  0  0  0  0  0  0  0  0
  -13.2233  -37.5054  -12.7534 C   0  0  0  0  0  0  0  0  0  0  0  0
  -12.5336  -36.3345  -13.3475 C   0  0  0  0  0  0  0  0  0  0  0  0
  -13.4604  -35.1606  -13.5716 C   0  0  0  0  0  0  0  0  0  0  0  0
  -14.6349  -35.5583  -14.4261 C   0  0  0  0  0  0  0  0  0  0  0  0
  -12.6730  -34.0069  -14.1478 C   0  0  0  0  0  0  0  0  0  0  0  0
  -14.0118  -34.7671  -12.2116 C   0  0  0  0  0  0  0  0  0  0  0  0
  -14.0041  -38.3555  -13.3862 O   0  0  0  0  0  0  0  0  0  0  0  0
  -14.4404  -39.2593  -12.5645 N   0  0  0  0  0  0  0  0  0  0  0  0
  2  1  1  6
  2  3  1  0
  3  4  1  0
  4  5  1  0
  5  6  1  6
  5  7  1  0
  7  8  1  1
  8  9  1  0
  9 10  1  1
  9 11  1  0
 11 12  1  0
 12 13  1  0
 13 14  1  0
 14 15  1  0
 15 16  1  0
 16 17  1  0
 17 18  1  0
 18 19  1  0
 19 20  2  0
 19 21  1  0
 21 22  1  0
 21 23  1  0
 23 24  1  1
 23 25  1  0
 25 26  2  0
 25 27  1  0
  2 28  1  0
 28 29  1  0
 29 30  2  0
 30 31  1  0
 31 32  1  0
 32 33  1  0
 32 34  1  0
 32 35  1  0
 30 36  1  0
 36 37  1  0
 27  7  1  0
 37 28  2  0
M  END
$$$$
