
     RDKit          3D

 37 38  0  0  0  0  0  0  0  0999 V2000
  -14.2756  -41.5586  -10.1802 C   0  0  0  0  0  0  0  0  0  0  0  0
  -13.8289  -40.1597   -9.8082 C   0  0  2  0  0  0  0  0  0  0  0  0
  -14.8866  -39.3774   -9.2405 N   0  0  0  0  0  0  0  0  0  0  0  0
  -15.5753  -40.0148   -8.1540 C   0  0  0  0  0  0  0  0  0  0  0  0
  -16.9672  -39.4285   -8.0100 C   0  0  1  0  0  0  0  0  0  0  0  0
  -17.0126  -38.4232   -9.0073 O   0  0  0  0  0  0  0  0  0  0  0  0
  -18.0348  -40.4805   -8.3099 C   0  0  2  0  0  0  0  0  0  0  0  0
  -19.3969  -39.9291   -8.2911 C   0  0  0  0  0  0  0  0  0  0  0  0
  -19.8350  -39.1126   -7.1202 C   0  0  2  0  0  0  0  0  0  0  0  0
  -19.3069  -39.4956   -5.8066 C   0  0  0  0  0  0  0  0  0  0  0  0
  -21.3410  -39.1299   -7.1436 C   0  0  0  0  0  0  0  0  0  0  0  0
  -22.0394  -38.7780   -5.8902 C   0  0  0  0  0  0  0  0  0  0  0  0
  -22.7466  -40.0050   -5.3586 C   0  0  0  0  0  0  0  0  0  0  0  0
  -24.1695  -40.1353   -5.7306 C   0  0  0  0  0  0  0  0  0  0  0  0
  -24.5523  -40.0789   -7.1456 C   0  0  0  0  0  0  0  0  0  0  0  0
  -24.2398  -41.2163   -8.0304 C   0  0  0  0  0  0  0  0  0  0  0  0
  -23.8928  -42.5146   -7.4096 C   0  0  0  0  0  0  0  0  0  0  0  0
  -22.6388  -43.0632   -8.1044 C   0  0  0  0  0  0  0  0  0  0  0  0
  -21.9532  -44.0620   -7.2683 C   0  0  0  0  0  0  0  0  0  0  0  0
  -22.7270  -44.9693   -6.7828 O   0  0  0  0  0  0  0  0  0  0  0  0
  -20.5674  -44.0967   -6.9729 N   0  0  0  0  0  0  0  0  0  0  0  0
  -19.9045  -45.3860   -7.0349 C   0  0  0  0  0  0  0  0  0  0  0  0
  -19.7971  -42.9405   -6.6099 C   0  0  1  0  0  0  0  0  0  0  0  0
  -19.5090  -43.0904   -5.1038 C   0  0  0  0  0  0  0  0  0  0  0  0
  -18.5217  -42.8317   -7.3660 C   0  0  0  0  0  0  0  0  0  0  0  0
  -18.1083  -43.9650   -7.8251 O   0  0  0  0  0  0  0  0  0  0  0  0
  -17.7569  -41.6914   -7.6206 N   0  0  0  0  0  0  0  0  0  0  0  0
  -13.3569  -39.5249  -11.0873 C   0  0  0  0  0  0  0  0  0  0  0  0
  -12.1792  -38.8526  -11.3003 C   0  0  0  0  0  0  0  0  0  0  0  0
  -12.1683  -38.4473  -12.6091 C   0  0  0  0  0  0  0  0  0  0  0  0
  -11.0916  -37.6854  -13.2874 C   0  0  0  0  0  0  0  0  0  0  0  0
  -11.5202  -36.2890  -13.6794 C   0  0  0  0  0  0  0  0  0  0  0  0
  -11.8883  -35.4787  -12.4647 C   0  0  0  0  0  0  0  0  0  0  0  0
  -12.6373  -36.3768  -14.6931 C   0  0  0  0  0  0  0  0  0  0  0  0
  -10.3136  -35.6182  -14.3137 C   0  0  0  0  0  0  0  0  0  0  0  0
  -13.2934  -38.8613  -13.1528 O   0  0  0  0  0  0  0  0  0  0  0  0
  -14.0068  -39.4970  -12.2758 N   0  0  0  0  0  0  0  0  0  0  0  0
  2  1  1  6
  2  3  1  0
  3  4  1  0
  4  5  1  0
  5  6  1  6
  5  7  1  0
  7  8  1  1
  8  9  1  0
  9 10  1  1
  9 11  1  0
 11 12  1  0
 12 13  1  0
 13 14  1  0
 14 15  1  0
 15 16  1  0
 16 17  1  0
 17 18  1  0
 18 19  1  0
 19 20  2  0
 19 21  1  0
 21 22  1  0
 21 23  1  0
 23 24  1  1
 23 25  1  0
 25 26  2  0
 25 27  1  0
  2 28  1  0
 28 29  1  0
 29 30  2  0
 30 31  1  0
 31 32  1  0
 32 33  1  0
 32 34  1  0
 32 35  1  0
 30 36  1  0
 36 37  1  0
 27  7  1  0
 37 28  2  0
M  END
$$$$
