
     RDKit          3D

 37 38  0  0  0  0  0  0  0  0999 V2000
  -15.0364  -37.0730  -10.1896 C   0  0  0  0  0  0  0  0  0  0  0  0
  -15.3693  -38.2650  -11.0631 C   0  0  2  0  0  0  0  0  0  0  0  0
  -16.0349  -39.3077  -10.3402 N   0  0  0  0  0  0  0  0  0  0  0  0
  -15.9393  -39.1908   -8.9125 C   0  0  0  0  0  0  0  0  0  0  0  0
  -17.3073  -38.8975   -8.3256 C   0  0  1  0  0  0  0  0  0  0  0  0
  -17.7583  -37.7787   -9.0688 O   0  0  0  0  0  0  0  0  0  0  0  0
  -18.2612  -40.0696   -8.5558 C   0  0  2  0  0  0  0  0  0  0  0  0
  -19.6643  -39.7199   -8.2941 C   0  0  0  0  0  0  0  0  0  0  0  0
  -20.0193  -39.0502   -7.0076 C   0  0  2  0  0  0  0  0  0  0  0  0
  -19.2489  -39.4369   -5.8210 C   0  0  0  0  0  0  0  0  0  0  0  0
  -21.4954  -39.2803   -6.8146 C   0  0  0  0  0  0  0  0  0  0  0  0
  -22.0316  -39.1118   -5.4483 C   0  0  0  0  0  0  0  0  0  0  0  0
  -22.4809  -40.4583   -4.9255 C   0  0  0  0  0  0  0  0  0  0  0  0
  -23.9148  -40.7659   -5.0977 C   0  0  0  0  0  0  0  0  0  0  0  0
  -24.5158  -40.6747   -6.4327 C   0  0  0  0  0  0  0  0  0  0  0  0
  -24.1975  -41.6974   -7.4461 C   0  0  0  0  0  0  0  0  0  0  0  0
  -23.5914  -42.9699   -6.9936 C   0  0  0  0  0  0  0  0  0  0  0  0
  -22.3990  -43.2891   -7.9059 C   0  0  0  0  0  0  0  0  0  0  0  0
  -21.4673  -44.2312   -7.2648 C   0  0  0  0  0  0  0  0  0  0  0  0
  -22.0309  -45.2685   -6.7508 O   0  0  0  0  0  0  0  0  0  0  0  0
  -20.0600  -44.0871   -7.1766 N   0  0  0  0  0  0  0  0  0  0  0  0
  -19.2514  -45.2622   -7.4421 C   0  0  0  0  0  0  0  0  0  0  0  0
  -19.4012  -42.8584   -6.8325 C   0  0  1  0  0  0  0  0  0  0  0  0
  -18.8666  -43.0613   -5.4018 C   0  0  0  0  0  0  0  0  0  0  0  0
  -18.2836  -42.5214   -7.7530 C   0  0  0  0  0  0  0  0  0  0  0  0
  -17.8011  -43.5527   -8.3609 O   0  0  0  0  0  0  0  0  0  0  0  0
  -17.7236  -41.2699   -8.0183 N   0  0  0  0  0  0  0  0  0  0  0  0
  -14.0536  -38.7701  -11.5885 C   0  0  0  0  0  0  0  0  0  0  0  0
  -13.3932  -38.3586  -12.7193 C   0  0  0  0  0  0  0  0  0  0  0  0
  -12.2366  -39.0878  -12.8079 C   0  0  0  0  0  0  0  0  0  0  0  0
  -11.2071  -38.9827  -13.8704 C   0  0  0  0  0  0  0  0  0  0  0  0
  -10.3407  -37.7515  -13.7264 C   0  0  0  0  0  0  0  0  0  0  0  0
  -11.1825  -36.5037  -13.6833 C   0  0  0  0  0  0  0  0  0  0  0  0
   -9.3122  -37.7337  -14.8332 C   0  0  0  0  0  0  0  0  0  0  0  0
   -9.6371  -37.8609  -12.3843 C   0  0  0  0  0  0  0  0  0  0  0  0
  -12.2098  -39.9001  -11.7724 O   0  0  0  0  0  0  0  0  0  0  0  0
  -13.2684  -39.7298  -11.0426 N   0  0  0  0  0  0  0  0  0  0  0  0
  2  1  1  1
  2  3  1  0
  3  4  1  0
  4  5  1  0
  5  6  1  6
  5  7  1  0
  7  8  1  1
  8  9  1  0
  9 10  1  1
  9 11  1  0
 11 12  1  0
 12 13  1  0
 13 14  1  0
 14 15  1  0
 15 16  1  0
 16 17  1  0
 17 18  1  0
 18 19  1  0
 19 20  2  0
 19 21  1  0
 21 22  1  0
 21 23  1  0
 23 24  1  1
 23 25  1  0
 25 26  2  0
 25 27  1  0
  2 28  1  0
 28 29  1  0
 29 30  2  0
 30 31  1  0
 31 32  1  0
 32 33  1  0
 32 34  1  0
 32 35  1  0
 30 36  1  0
 36 37  1  0
 27  7  1  0
 37 28  2  0
M  END
$$$$
