
     RDKit          3D

 36 38  0  0  0  0  0  0  0  0999 V2000
  -12.1260  -36.3660  -14.2867 C   0  0  0  0  0  0  0  0  0  0  0  0
  -12.1556  -36.3168  -12.7776 C   0  0  0  0  0  0  0  0  0  0  0  0
  -10.8218  -35.7378  -12.2934 C   0  0  0  0  0  0  0  0  0  0  0  0
  -12.3089  -37.6468  -12.1745 C   0  0  0  0  0  0  0  0  0  0  0  0
  -12.2786  -37.8762  -10.8162 C   0  0  0  0  0  0  0  0  0  0  0  0
  -12.4309  -39.1683  -10.2944 C   0  0  0  0  0  0  0  0  0  0  0  0
  -12.3998  -39.3864   -8.8402 C   0  0  0  0  0  0  0  0  0  0  0  0
  -13.6525  -39.8241   -8.2688 N   0  0  0  0  0  0  0  0  0  0  0  0
  -14.7251  -38.9484   -8.6922 C   0  0  0  0  0  0  0  0  0  0  0  0
  -15.6489  -38.5107   -7.6111 C   0  0  1  0  0  0  0  0  0  0  0  0
  -15.4828  -37.1277   -7.4246 O   0  0  0  0  0  0  0  0  0  0  0  0
  -17.0910  -38.9154   -7.7539 C   0  0  2  0  0  0  0  0  0  0  0  0
  -17.9440  -37.7284   -7.5002 C   0  0  0  0  0  0  0  0  0  0  0  0
  -19.3717  -37.9710   -7.1331 C   0  0  2  0  0  0  0  0  0  0  0  0
  -19.4939  -38.5785   -5.7683 C   0  0  0  0  0  0  0  0  0  0  0  0
  -20.2225  -38.5826   -8.1917 C   0  0  0  0  0  0  0  0  0  0  0  0
  -21.2570  -39.5262   -7.6009 C   0  0  0  0  0  0  0  0  0  0  0  0
  -22.2584  -39.9586   -8.6843 C   0  0  0  0  0  0  0  0  0  0  0  0
  -22.4916  -41.4177   -8.5311 C   0  0  0  0  0  0  0  0  0  0  0  0
  -22.6992  -42.2117   -9.7620 C   0  0  0  0  0  0  0  0  0  0  0  0
  -22.2659  -41.6427  -11.0509 C   0  0  0  0  0  0  0  0  0  0  0  0
  -20.8093  -41.6050  -11.3408 C   0  0  0  0  0  0  0  0  0  0  0  0
  -20.0948  -42.9137  -11.3076 C   0  0  0  0  0  0  0  0  0  0  0  0
  -18.8155  -42.9035  -10.5193 C   0  0  1  0  0  0  0  0  0  0  0  0
  -18.7465  -44.0817   -9.7781 O   0  0  0  0  0  0  0  0  0  0  0  0
  -17.5774  -42.8378  -11.3807 C   0  0  0  0  0  0  0  0  0  0  0  0
  -16.3799  -43.0364  -10.4739 C   0  0  0  0  0  0  0  0  0  0  0  0
  -16.3205  -41.9542   -9.3806 C   0  0  0  0  0  0  0  0  0  0  0  0
  -17.5716  -42.0724   -8.6059 C   0  0  2  0  0  0  0  0  0  0  0  0
  -18.7212  -41.7302   -9.5681 C   0  0  0  0  0  0  0  0  0  0  0  0
  -17.7339  -41.3669   -7.3627 C   0  0  0  0  0  0  0  0  0  0  0  0
  -18.3611  -42.0137   -6.4329 O   0  0  0  0  0  0  0  0  0  0  0  0
  -17.3268  -40.0750   -6.9670 N   0  0  0  0  0  0  0  0  0  0  0  0
  -12.6165  -40.2518  -11.1266 C   0  0  0  0  0  0  0  0  0  0  0  0
  -12.6464  -40.0202  -12.4837 C   0  0  0  0  0  0  0  0  0  0  0  0
  -12.4948  -38.7398  -12.9908 C   0  0  0  0  0  0  0  0  0  0  0  0
  1  2  1  0
  2  3  1  0
  2  4  1  0
  4  5  2  0
  5  6  1  0
  6  7  1  0
  7  8  1  0
  8  9  1  0
  9 10  1  0
 10 11  1  6
 10 12  1  0
 12 13  1  1
 13 14  1  0
 14 15  1  1
 14 16  1  0
 16 17  1  0
 17 18  1  0
 18 19  1  0
 19 20  1  0
 20 21  1  0
 21 22  1  0
 22 23  1  0
 23 24  1  0
 24 25  1  1
 24 26  1  0
 26 27  1  0
 27 28  1  0
 29 28  1  6
 29 30  1  0
 29 31  1  0
 31 32  2  0
 31 33  1  0
  6 34  2  0
 34 35  1  0
 35 36  2  0
 30 24  1  0
 33 12  1  0
 36  4  1  0
M  END
$$$$
