
     RDKit          3D

 36 38  0  0  0  0  0  0  0  0999 V2000
  -12.2348  -34.7738  -12.1971 C   0  0  0  0  0  0  0  0  0  0  0  0
  -13.4653  -35.6363  -12.3475 C   0  0  0  0  0  0  0  0  0  0  0  0
  -14.4557  -35.2506  -11.2433 C   0  0  0  0  0  0  0  0  0  0  0  0
  -13.1704  -37.0673  -12.2010 C   0  0  0  0  0  0  0  0  0  0  0  0
  -13.1607  -37.7239  -10.9897 C   0  0  0  0  0  0  0  0  0  0  0  0
  -12.8726  -39.0933  -10.9082 C   0  0  0  0  0  0  0  0  0  0  0  0
  -12.8735  -39.7722   -9.6035 C   0  0  0  0  0  0  0  0  0  0  0  0
  -14.0886  -40.4918   -9.2986 N   0  0  0  0  0  0  0  0  0  0  0  0
  -15.2418  -39.6645   -9.5859 C   0  0  0  0  0  0  0  0  0  0  0  0
  -15.9552  -39.1364   -8.3918 C   0  0  1  0  0  0  0  0  0  0  0  0
  -15.8261  -37.7371   -8.3863 O   0  0  0  0  0  0  0  0  0  0  0  0
  -17.3747  -39.5963   -8.1985 C   0  0  2  0  0  0  0  0  0  0  0  0
  -18.2709  -38.4170   -8.2821 C   0  0  0  0  0  0  0  0  0  0  0  0
  -19.6312  -38.5403   -7.6769 C   0  0  2  0  0  0  0  0  0  0  0  0
  -19.5640  -38.6126   -6.1813 C   0  0  0  0  0  0  0  0  0  0  0  0
  -20.5502  -39.5130   -8.3307 C   0  0  0  0  0  0  0  0  0  0  0  0
  -21.4503  -40.1994   -7.3166 C   0  0  0  0  0  0  0  0  0  0  0  0
  -22.5333  -41.0176   -8.0386 C   0  0  0  0  0  0  0  0  0  0  0  0
  -22.6523  -42.3258   -7.3451 C   0  0  0  0  0  0  0  0  0  0  0  0
  -22.9403  -43.5172   -8.1735 C   0  0  0  0  0  0  0  0  0  0  0  0
  -22.6880  -43.4465   -9.6240 C   0  0  0  0  0  0  0  0  0  0  0  0
  -21.2773  -43.4854  -10.0881 C   0  0  0  0  0  0  0  0  0  0  0  0
  -20.4793  -44.6768   -9.6780 C   0  0  0  0  0  0  0  0  0  0  0  0
  -19.1252  -44.3531   -9.1125 C   0  0  1  0  0  0  0  0  0  0  0  0
  -18.8990  -45.1794   -8.0133 O   0  0  0  0  0  0  0  0  0  0  0  0
  -17.9952  -44.5783  -10.0880 C   0  0  0  0  0  0  0  0  0  0  0  0
  -16.6957  -44.4079   -9.3277 C   0  0  0  0  0  0  0  0  0  0  0  0
  -16.5886  -43.0012   -8.7113 C   0  0  0  0  0  0  0  0  0  0  0  0
  -17.7375  -42.8567   -7.7956 C   0  0  2  0  0  0  0  0  0  0  0  0
  -19.0049  -42.9125   -8.6645 C   0  0  0  0  0  0  0  0  0  0  0  0
  -17.8094  -41.7511   -6.8778 C   0  0  0  0  0  0  0  0  0  0  0  0
  -18.2879  -42.0291   -5.7074 O   0  0  0  0  0  0  0  0  0  0  0  0
  -17.4470  -40.3954   -7.0255 N   0  0  0  0  0  0  0  0  0  0  0  0
  -12.5895  -39.8270  -12.0406 C   0  0  0  0  0  0  0  0  0  0  0  0
  -12.5997  -39.1688  -13.2502 C   0  0  0  0  0  0  0  0  0  0  0  0
  -12.8854  -37.8150  -13.3215 C   0  0  0  0  0  0  0  0  0  0  0  0
  1  2  1  0
  2  3  1  0
  2  4  1  0
  4  5  2  0
  5  6  1  0
  6  7  1  0
  7  8  1  0
  8  9  1  0
  9 10  1  0
 10 11  1  6
 10 12  1  0
 12 13  1  1
 13 14  1  0
 14 15  1  1
 14 16  1  0
 16 17  1  0
 17 18  1  0
 18 19  1  0
 19 20  1  0
 20 21  1  0
 21 22  1  0
 22 23  1  0
 23 24  1  0
 24 25  1  1
 24 26  1  0
 26 27  1  0
 27 28  1  0
 29 28  1  6
 29 30  1  0
 29 31  1  0
 31 32  2  0
 31 33  1  0
  6 34  2  0
 34 35  1  0
 35 36  2  0
 30 24  1  0
 33 12  1  0
 36  4  1  0
M  END
$$$$
