
     RDKit          3D

 36 38  0  0  0  0  0  0  0  0999 V2000
  -12.9806  -33.8862  -12.6446 C   0  0  0  0  0  0  0  0  0  0  0  0
  -14.2576  -33.9699  -11.8428 C   0  0  0  0  0  0  0  0  0  0  0  0
  -13.9979  -33.3475  -10.4666 C   0  0  0  0  0  0  0  0  0  0  0  0
  -14.6979  -35.3544  -11.6293 C   0  0  0  0  0  0  0  0  0  0  0  0
  -13.8320  -36.4100  -11.4440 C   0  0  0  0  0  0  0  0  0  0  0  0
  -14.3081  -37.7132  -11.2438 C   0  0  0  0  0  0  0  0  0  0  0  0
  -13.3632  -38.8224  -11.0433 C   0  0  0  0  0  0  0  0  0  0  0  0
  -13.7618  -39.7804  -10.0380 N   0  0  0  0  0  0  0  0  0  0  0  0
  -15.1947  -39.7235   -9.8375 C   0  0  0  0  0  0  0  0  0  0  0  0
  -15.7358  -40.7023   -8.8562 C   0  0  1  0  0  0  0  0  0  0  0  0
  -14.8495  -40.7684   -7.7676 O   0  0  0  0  0  0  0  0  0  0  0  0
  -17.1683  -40.5125   -8.4369 C   0  0  2  0  0  0  0  0  0  0  0  0
  -17.5754  -39.1219   -8.7555 C   0  0  0  0  0  0  0  0  0  0  0  0
  -18.7597  -38.5673   -8.0330 C   0  0  2  0  0  0  0  0  0  0  0  0
  -18.4634  -38.3426   -6.5810 C   0  0  0  0  0  0  0  0  0  0  0  0
  -20.0680  -39.2126   -8.3337 C   0  0  0  0  0  0  0  0  0  0  0  0
  -20.9640  -39.2569   -7.1070 C   0  0  0  0  0  0  0  0  0  0  0  0
  -22.3781  -39.7136   -7.5008 C   0  0  0  0  0  0  0  0  0  0  0  0
  -22.8407  -40.6899   -6.4812 C   0  0  0  0  0  0  0  0  0  0  0  0
  -23.6811  -41.8166   -6.9427 C   0  0  0  0  0  0  0  0  0  0  0  0
  -23.6777  -42.1594   -8.3762 C   0  0  0  0  0  0  0  0  0  0  0  0
  -22.4814  -42.8490   -8.9244 C   0  0  0  0  0  0  0  0  0  0  0  0
  -22.1116  -44.1426   -8.2809 C   0  0  0  0  0  0  0  0  0  0  0  0
  -20.6559  -44.2681   -7.9295 C   0  0  1  0  0  0  0  0  0  0  0  0
  -20.5569  -44.8642   -6.6736 O   0  0  0  0  0  0  0  0  0  0  0  0
  -19.8736  -45.1216   -8.8983 C   0  0  0  0  0  0  0  0  0  0  0  0
  -18.4894  -45.3215   -8.3150 C   0  0  0  0  0  0  0  0  0  0  0  0
  -17.7736  -43.9757   -8.0997 C   0  0  0  0  0  0  0  0  0  0  0  0
  -18.6130  -43.1996   -7.1656 C   0  0  2  0  0  0  0  0  0  0  0  0
  -19.9450  -42.9328   -7.8860 C   0  0  0  0  0  0  0  0  0  0  0  0
  -18.1175  -41.9888   -6.5672 C   0  0  0  0  0  0  0  0  0  0  0  0
  -18.4521  -41.8012   -5.3306 O   0  0  0  0  0  0  0  0  0  0  0  0
  -17.3197  -40.9507   -7.0936 N   0  0  0  0  0  0  0  0  0  0  0  0
  -15.6608  -37.9791  -11.2259 C   0  0  0  0  0  0  0  0  0  0  0  0
  -16.5244  -36.9226  -11.4113 C   0  0  0  0  0  0  0  0  0  0  0  0
  -16.0451  -35.6377  -11.6088 C   0  0  0  0  0  0  0  0  0  0  0  0
  1  2  1  0
  2  3  1  0
  2  4  1  0
  4  5  2  0
  5  6  1  0
  6  7  1  0
  7  8  1  0
  8  9  1  0
  9 10  1  0
 10 11  1  1
 10 12  1  0
 12 13  1  1
 13 14  1  0
 14 15  1  1
 14 16  1  0
 16 17  1  0
 17 18  1  0
 18 19  1  0
 19 20  1  0
 20 21  1  0
 21 22  1  0
 22 23  1  0
 23 24  1  0
 24 25  1  1
 24 26  1  0
 26 27  1  0
 27 28  1  0
 29 28  1  6
 29 30  1  0
 29 31  1  0
 31 32  2  0
 31 33  1  0
  6 34  2  0
 34 35  1  0
 35 36  2  0
 30 24  1  0
 33 12  1  0
 36  4  1  0
M  END
$$$$
