
     RDKit          3D

 36 38  0  0  0  0  0  0  0  0999 V2000
  -12.6830  -45.4429  -10.4584 C   0  0  0  0  0  0  0  0  0  0  0  0
  -11.8779  -44.4013  -11.1982 C   0  0  0  0  0  0  0  0  0  0  0  0
  -10.3957  -44.6337  -10.8853 C   0  0  0  0  0  0  0  0  0  0  0  0
  -12.2114  -43.0330  -10.7829 C   0  0  0  0  0  0  0  0  0  0  0  0
  -12.2458  -42.6222   -9.4681 C   0  0  0  0  0  0  0  0  0  0  0  0
  -12.5706  -41.3016   -9.1282 C   0  0  0  0  0  0  0  0  0  0  0  0
  -12.5955  -40.8865   -7.7174 C   0  0  0  0  0  0  0  0  0  0  0  0
  -13.9175  -40.6788   -7.1729 N   0  0  0  0  0  0  0  0  0  0  0  0
  -14.7621  -40.0279   -8.1525 C   0  0  0  0  0  0  0  0  0  0  0  0
  -15.6445  -38.9569   -7.6156 C   0  0  1  0  0  0  0  0  0  0  0  0
  -15.2786  -37.7422   -8.2203 O   0  0  0  0  0  0  0  0  0  0  0  0
  -17.1255  -39.2166   -7.6677 C   0  0  2  0  0  0  0  0  0  0  0  0
  -17.8352  -38.0209   -7.1504 C   0  0  0  0  0  0  0  0  0  0  0  0
  -19.2408  -38.2038   -6.6782 C   0  0  2  0  0  0  0  0  0  0  0  0
  -19.2972  -39.0098   -5.4157 C   0  0  0  0  0  0  0  0  0  0  0  0
  -20.2376  -38.5682   -7.7231 C   0  0  0  0  0  0  0  0  0  0  0  0
  -21.3002  -39.5081   -7.1778 C   0  0  0  0  0  0  0  0  0  0  0  0
  -22.4315  -39.6802   -8.2044 C   0  0  0  0  0  0  0  0  0  0  0  0
  -22.7880  -41.1216   -8.2502 C   0  0  0  0  0  0  0  0  0  0  0  0
  -23.1802  -41.6894   -9.5588 C   0  0  0  0  0  0  0  0  0  0  0  0
  -22.8122  -40.9585  -10.7847 C   0  0  0  0  0  0  0  0  0  0  0  0
  -21.3906  -40.9918  -11.2150 C   0  0  0  0  0  0  0  0  0  0  0  0
  -20.8041  -42.3420  -11.4543 C   0  0  0  0  0  0  0  0  0  0  0  0
  -19.4640  -42.5604  -10.8105 C   0  0  1  0  0  0  0  0  0  0  0  0
  -19.4414  -43.8436  -10.2671 O   0  0  0  0  0  0  0  0  0  0  0  0
  -18.3078  -42.4574  -11.7757 C   0  0  0  0  0  0  0  0  0  0  0  0
  -17.0580  -42.8938  -11.0383 C   0  0  0  0  0  0  0  0  0  0  0  0
  -16.7977  -42.0084   -9.8061 C   0  0  0  0  0  0  0  0  0  0  0  0
  -17.9797  -42.1482   -8.9328 C   0  0  2  0  0  0  0  0  0  0  0  0
  -19.1731  -41.5656   -9.7077 C   0  0  0  0  0  0  0  0  0  0  0  0
  -17.9616  -41.6396   -7.5871 C   0  0  0  0  0  0  0  0  0  0  0  0
  -18.5614  -42.3743   -6.7059 O   0  0  0  0  0  0  0  0  0  0  0  0
  -17.3991  -40.4644   -7.0450 N   0  0  0  0  0  0  0  0  0  0  0  0
  -12.8661  -40.3710  -10.1016 C   0  0  0  0  0  0  0  0  0  0  0  0
  -12.8311  -40.7837  -11.4149 C   0  0  0  0  0  0  0  0  0  0  0  0
  -12.5093  -42.0911  -11.7418 C   0  0  0  0  0  0  0  0  0  0  0  0
  1  2  1  0
  2  3  1  0
  2  4  1  0
  4  5  2  0
  5  6  1  0
  6  7  1  0
  7  8  1  0
  8  9  1  0
  9 10  1  0
 10 11  1  6
 10 12  1  0
 12 13  1  1
 13 14  1  0
 14 15  1  1
 14 16  1  0
 16 17  1  0
 17 18  1  0
 18 19  1  0
 19 20  1  0
 20 21  1  0
 21 22  1  0
 22 23  1  0
 23 24  1  0
 24 25  1  1
 24 26  1  0
 26 27  1  0
 27 28  1  0
 29 28  1  6
 29 30  1  0
 29 31  1  0
 31 32  2  0
 31 33  1  0
  6 34  2  0
 34 35  1  0
 35 36  2  0
 30 24  1  0
 33 12  1  0
 36  4  1  0
M  END
$$$$
