
     RDKit          3D

 36 38  0  0  0  0  0  0  0  0999 V2000
  -11.4724  -35.2078  -11.3273 C   0  0  0  0  0  0  0  0  0  0  0  0
  -12.2359  -35.3150  -12.6258 C   0  0  0  0  0  0  0  0  0  0  0  0
  -13.7058  -34.9857  -12.3430 C   0  0  0  0  0  0  0  0  0  0  0  0
  -12.1845  -36.6660  -13.1986 C   0  0  0  0  0  0  0  0  0  0  0  0
  -12.5160  -37.8048  -12.4973 C   0  0  0  0  0  0  0  0  0  0  0  0
  -12.4491  -39.0710  -13.0950 C   0  0  0  0  0  0  0  0  0  0  0  0
  -12.8131  -40.2710  -12.3265 C   0  0  0  0  0  0  0  0  0  0  0  0
  -14.2008  -40.6584  -12.4339 N   0  0  0  0  0  0  0  0  0  0  0  0
  -14.7099  -41.0488  -11.1358 C   0  0  0  0  0  0  0  0  0  0  0  0
  -15.8197  -42.0394  -11.1630 C   0  0  1  0  0  0  0  0  0  0  0  0
  -15.3965  -43.1919  -10.4793 O   0  0  0  0  0  0  0  0  0  0  0  0
  -17.1690  -41.5504  -10.7113 C   0  0  2  0  0  0  0  0  0  0  0  0
  -18.2163  -42.3177  -11.4290 C   0  0  0  0  0  0  0  0  0  0  0  0
  -19.5830  -41.7186  -11.5008 C   0  0  2  0  0  0  0  0  0  0  0  0
  -19.6076  -40.5072  -12.3831 C   0  0  0  0  0  0  0  0  0  0  0  0
  -20.3077  -41.5904  -10.2059 C   0  0  0  0  0  0  0  0  0  0  0  0
  -21.1674  -40.3377  -10.1687 C   0  0  0  0  0  0  0  0  0  0  0  0
  -22.0714  -40.3531   -8.9253 C   0  0  0  0  0  0  0  0  0  0  0  0
  -22.0495  -38.9919   -8.3308 C   0  0  0  0  0  0  0  0  0  0  0  0
  -22.1081  -38.8869   -6.8563 C   0  0  0  0  0  0  0  0  0  0  0  0
  -21.7709  -40.0736   -6.0498 C   0  0  0  0  0  0  0  0  0  0  0  0
  -20.3409  -40.4633   -5.9486 C   0  0  0  0  0  0  0  0  0  0  0  0
  -19.4110  -39.4297   -5.4089 C   0  0  0  0  0  0  0  0  0  0  0  0
  -18.1581  -39.2385   -6.2165 C   0  0  1  0  0  0  0  0  0  0  0  0
  -17.8915  -37.8730   -6.2972 O   0  0  0  0  0  0  0  0  0  0  0  0
  -16.9442  -39.9015   -5.6116 C   0  0  0  0  0  0  0  0  0  0  0  0
  -15.7367  -39.4607   -6.4138 C   0  0  0  0  0  0  0  0  0  0  0  0
  -15.8730  -39.8590   -7.8946 C   0  0  0  0  0  0  0  0  0  0  0  0
  -17.0901  -39.1917   -8.3973 C   0  0  2  0  0  0  0  0  0  0  0  0
  -18.2749  -39.7900   -7.6210 C   0  0  0  0  0  0  0  0  0  0  0  0
  -17.3807  -39.1604   -9.8060 C   0  0  0  0  0  0  0  0  0  0  0  0
  -17.8929  -38.0552  -10.2447 O   0  0  0  0  0  0  0  0  0  0  0  0
  -17.2060  -40.1334  -10.8130 N   0  0  0  0  0  0  0  0  0  0  0  0
  -12.0486  -39.2159  -14.4063 C   0  0  0  0  0  0  0  0  0  0  0  0
  -11.7177  -38.0765  -15.1053 C   0  0  0  0  0  0  0  0  0  0  0  0
  -11.7866  -36.8289  -14.5066 C   0  0  0  0  0  0  0  0  0  0  0  0
  1  2  1  0
  2  3  1  0
  2  4  1  0
  4  5  2  0
  5  6  1  0
  6  7  1  0
  7  8  1  0
  8  9  1  0
  9 10  1  0
 10 11  1  1
 10 12  1  0
 12 13  1  6
 13 14  1  0
 14 15  1  1
 14 16  1  0
 16 17  1  0
 17 18  1  0
 18 19  1  0
 19 20  1  0
 20 21  1  0
 21 22  1  0
 22 23  1  0
 23 24  1  0
 24 25  1  6
 24 26  1  0
 26 27  1  0
 27 28  1  0
 29 28  1  6
 29 30  1  0
 29 31  1  0
 31 32  2  0
 31 33  1  0
  6 34  2  0
 34 35  1  0
 35 36  2  0
 30 24  1  0
 33 12  1  0
 36  4  1  0
M  END
$$$$
