
     RDKit          3D

 36 38  0  0  0  0  0  0  0  0999 V2000
  -11.1128  -34.6335  -11.8929 C   0  0  0  0  0  0  0  0  0  0  0  0
  -12.6187  -34.5938  -11.9994 C   0  0  0  0  0  0  0  0  0  0  0  0
  -13.1844  -34.2290  -10.6226 C   0  0  0  0  0  0  0  0  0  0  0  0
  -13.1894  -35.8902  -12.3861 C   0  0  0  0  0  0  0  0  0  0  0  0
  -12.9921  -37.0532  -11.6741 C   0  0  0  0  0  0  0  0  0  0  0  0
  -13.5623  -38.2646  -12.0894 C   0  0  0  0  0  0  0  0  0  0  0  0
  -13.3408  -39.4915  -11.3091 C   0  0  0  0  0  0  0  0  0  0  0  0
  -13.7701  -39.4162   -9.9316 N   0  0  0  0  0  0  0  0  0  0  0  0
  -15.2100  -39.5468   -9.8518 C   0  0  0  0  0  0  0  0  0  0  0  0
  -15.7562  -39.7016   -8.4765 C   0  0  1  0  0  0  0  0  0  0  0  0
  -15.2481  -38.6595   -7.6823 O   0  0  0  0  0  0  0  0  0  0  0  0
  -17.2481  -39.8563   -8.3589 C   0  0  2  0  0  0  0  0  0  0  0  0
  -17.8931  -38.6052   -8.8275 C   0  0  0  0  0  0  0  0  0  0  0  0
  -19.2958  -38.3446   -8.3843 C   0  0  2  0  0  0  0  0  0  0  0  0
  -19.3633  -38.0460   -6.9170 C   0  0  0  0  0  0  0  0  0  0  0  0
  -20.3285  -39.2853   -8.9009 C   0  0  0  0  0  0  0  0  0  0  0  0
  -21.4211  -39.5340   -7.8742 C   0  0  0  0  0  0  0  0  0  0  0  0
  -22.5792  -40.3176   -8.5132 C   0  0  0  0  0  0  0  0  0  0  0  0
  -23.0008  -41.3694   -7.5526 C   0  0  0  0  0  0  0  0  0  0  0  0
  -23.4438  -42.6671   -8.1078 C   0  0  0  0  0  0  0  0  0  0  0  0
  -23.0678  -43.0086   -9.4915 C   0  0  0  0  0  0  0  0  0  0  0  0
  -21.6580  -43.3964   -9.7543 C   0  0  0  0  0  0  0  0  0  0  0  0
  -21.1375  -44.5601   -8.9804 C   0  0  0  0  0  0  0  0  0  0  0  0
  -19.7959  -44.3324   -8.3426 C   0  0  1  0  0  0  0  0  0  0  0  0
  -19.8201  -44.8792   -7.0609 O   0  0  0  0  0  0  0  0  0  0  0  0
  -18.6556  -44.9809   -9.0897 C   0  0  0  0  0  0  0  0  0  0  0  0
  -17.4123  -44.8408   -8.2350 C   0  0  0  0  0  0  0  0  0  0  0  0
  -17.0882  -43.3617   -7.9573 C   0  0  0  0  0  0  0  0  0  0  0  0
  -18.2577  -42.8022   -7.2512 C   0  0  2  0  0  0  0  0  0  0  0  0
  -19.4390  -42.8657   -8.2335 C   0  0  0  0  0  0  0  0  0  0  0  0
  -18.1902  -41.5041   -6.6344 C   0  0  0  0  0  0  0  0  0  0  0  0
  -18.8048  -41.3937   -5.5003 O   0  0  0  0  0  0  0  0  0  0  0  0
  -17.5650  -40.3091   -7.0496 N   0  0  0  0  0  0  0  0  0  0  0  0
  -14.3401  -38.3294  -13.2259 C   0  0  0  0  0  0  0  0  0  0  0  0
  -14.5360  -37.1660  -13.9360 C   0  0  0  0  0  0  0  0  0  0  0  0
  -13.9684  -35.9730  -13.5183 C   0  0  0  0  0  0  0  0  0  0  0  0
  1  2  1  0
  2  3  1  0
  2  4  1  0
  4  5  2  0
  5  6  1  0
  6  7  1  0
  7  8  1  0
  8  9  1  0
  9 10  1  0
 10 11  1  1
 10 12  1  0
 12 13  1  1
 13 14  1  0
 14 15  1  1
 14 16  1  0
 16 17  1  0
 17 18  1  0
 18 19  1  0
 19 20  1  0
 20 21  1  0
 21 22  1  0
 22 23  1  0
 23 24  1  0
 24 25  1  1
 24 26  1  0
 26 27  1  0
 27 28  1  0
 29 28  1  6
 29 30  1  0
 29 31  1  0
 31 32  2  0
 31 33  1  0
  6 34  2  0
 34 35  1  0
 35 36  2  0
 30 24  1  0
 33 12  1  0
 36  4  1  0
M  END
$$$$
