
     RDKit          3D

 36 38  0  0  0  0  0  0  0  0999 V2000
  -14.8233  -34.6561  -12.0908 C   0  0  0  0  0  0  0  0  0  0  0  0
  -13.5341  -35.4401  -12.0288 C   0  0  0  0  0  0  0  0  0  0  0  0
  -12.6478  -34.9933  -13.1965 C   0  0  0  0  0  0  0  0  0  0  0  0
  -13.7487  -36.8867  -12.1608 C   0  0  0  0  0  0  0  0  0  0  0  0
  -13.5378  -37.7854  -11.1379 C   0  0  0  0  0  0  0  0  0  0  0  0
  -13.7595  -39.1576  -11.3196 C   0  0  0  0  0  0  0  0  0  0  0  0
  -13.5317  -40.0961  -10.2103 C   0  0  0  0  0  0  0  0  0  0  0  0
  -14.0605  -39.6649   -8.9368 N   0  0  0  0  0  0  0  0  0  0  0  0
  -15.3988  -40.1860   -8.7520 C   0  0  0  0  0  0  0  0  0  0  0  0
  -16.4051  -39.1947   -8.2846 C   0  0  1  0  0  0  0  0  0  0  0  0
  -16.6016  -38.2523   -9.3084 O   0  0  0  0  0  0  0  0  0  0  0  0
  -17.6938  -39.7495   -7.7413 C   0  0  2  0  0  0  0  0  0  0  0  0
  -18.6087  -38.6200   -7.4446 C   0  0  0  0  0  0  0  0  0  0  0  0
  -19.7309  -38.8735   -6.4915 C   0  0  2  0  0  0  0  0  0  0  0  0
  -19.2307  -39.0753   -5.0930 C   0  0  0  0  0  0  0  0  0  0  0  0
  -20.7721  -39.8344   -6.9508 C   0  0  0  0  0  0  0  0  0  0  0  0
  -21.3195  -40.6584   -5.7970 C   0  0  0  0  0  0  0  0  0  0  0  0
  -22.5418  -41.4686   -6.2587 C   0  0  0  0  0  0  0  0  0  0  0  0
  -22.4174  -42.8383   -5.6971 C   0  0  0  0  0  0  0  0  0  0  0  0
  -22.8995  -43.9652   -6.5255 C   0  0  0  0  0  0  0  0  0  0  0  0
  -23.0810  -43.7510   -7.9725 C   0  0  0  0  0  0  0  0  0  0  0  0
  -21.8650  -43.6685   -8.8221 C   0  0  0  0  0  0  0  0  0  0  0  0
  -20.9491  -44.8447   -8.7809 C   0  0  0  0  0  0  0  0  0  0  0  0
  -19.4988  -44.4968   -8.5964 C   0  0  1  0  0  0  0  0  0  0  0  0
  -18.9402  -45.4040   -7.6979 O   0  0  0  0  0  0  0  0  0  0  0  0
  -18.6946  -44.5698   -9.8719 C   0  0  0  0  0  0  0  0  0  0  0  0
  -17.2357  -44.3947   -9.5017 C   0  0  0  0  0  0  0  0  0  0  0  0
  -16.9943  -43.0450   -8.8017 C   0  0  0  0  0  0  0  0  0  0  0  0
  -17.8317  -43.0481   -7.5859 C   0  0  2  0  0  0  0  0  0  0  0  0
  -19.2946  -43.0976   -8.0571 C   0  0  0  0  0  0  0  0  0  0  0  0
  -17.6655  -42.0348   -6.5783 C   0  0  0  0  0  0  0  0  0  0  0  0
  -17.7758  -42.4429   -5.3545 O   0  0  0  0  0  0  0  0  0  0  0  0
  -17.4000  -40.6530   -6.6845 N   0  0  0  0  0  0  0  0  0  0  0  0
  -14.1968  -39.6510  -12.5304 C   0  0  0  0  0  0  0  0  0  0  0  0
  -14.4069  -38.7511  -13.5513 C   0  0  0  0  0  0  0  0  0  0  0  0
  -14.1850  -37.3965  -13.3630 C   0  0  0  0  0  0  0  0  0  0  0  0
  1  2  1  0
  2  3  1  0
  2  4  1  0
  4  5  2  0
  5  6  1  0
  6  7  1  0
  7  8  1  0
  8  9  1  0
  9 10  1  0
 10 11  1  6
 10 12  1  0
 12 13  1  1
 13 14  1  0
 14 15  1  1
 14 16  1  0
 16 17  1  0
 17 18  1  0
 18 19  1  0
 19 20  1  0
 20 21  1  0
 21 22  1  0
 22 23  1  0
 23 24  1  0
 24 25  1  1
 24 26  1  0
 26 27  1  0
 27 28  1  0
 29 28  1  6
 29 30  1  0
 29 31  1  0
 31 32  2  0
 31 33  1  0
  6 34  2  0
 34 35  1  0
 35 36  2  0
 30 24  1  0
 33 12  1  0
 36  4  1  0
M  END
$$$$
