
     RDKit          3D

 36 38  0  0  0  0  0  0  0  0999 V2000
  -21.6417  -43.0156   -5.2389 C   0  0  0  0  0  0  0  0  0  0  0  0
  -22.2010  -42.4728   -6.5323 C   0  0  0  0  0  0  0  0  0  0  0  0
  -21.5165  -43.2045   -7.6920 C   0  0  0  0  0  0  0  0  0  0  0  0
  -21.9432  -41.0367   -6.6978 C   0  0  0  0  0  0  0  0  0  0  0  0
  -20.7503  -40.4328   -6.3648 C   0  0  0  0  0  0  0  0  0  0  0  0
  -20.5584  -39.0559   -6.5445 C   0  0  0  0  0  0  0  0  0  0  0  0
  -19.2739  -38.4359   -6.1859 C   0  0  0  0  0  0  0  0  0  0  0  0
  -18.2660  -39.3611   -5.7216 N   0  0  0  0  0  0  0  0  0  0  0  0
  -17.3239  -39.6443   -6.7841 C   0  0  0  0  0  0  0  0  0  0  0  0
  -16.0886  -38.8150   -6.7722 C   0  0  1  0  0  0  0  0  0  0  0  0
  -15.2768  -39.2515   -5.7114 O   0  0  0  0  0  0  0  0  0  0  0  0
  -15.3429  -38.7004   -8.0740 C   0  0  2  0  0  0  0  0  0  0  0  0
  -13.8890  -38.8050   -7.7986 C   0  0  0  0  0  0  0  0  0  0  0  0
  -12.9512  -38.2696   -8.8310 C   0  0  2  0  0  0  0  0  0  0  0  0
  -13.0148  -36.7741   -8.9102 C   0  0  0  0  0  0  0  0  0  0  0  0
  -12.9404  -38.9864  -10.1366 C   0  0  0  0  0  0  0  0  0  0  0  0
  -12.7122  -38.0311  -11.2964 C   0  0  0  0  0  0  0  0  0  0  0  0
  -12.4777  -38.8210  -12.5942 C   0  0  0  0  0  0  0  0  0  0  0  0
  -13.2531  -38.1596  -13.6751 C   0  0  0  0  0  0  0  0  0  0  0  0
  -13.8602  -39.0241  -14.7107 C   0  0  0  0  0  0  0  0  0  0  0  0
  -14.0330  -40.4589  -14.4206 C   0  0  0  0  0  0  0  0  0  0  0  0
  -15.1138  -40.8540  -13.4810 C   0  0  0  0  0  0  0  0  0  0  0  0
  -16.4956  -40.4285  -13.8467 C   0  0  0  0  0  0  0  0  0  0  0  0
  -17.2668  -39.7912  -12.7254 C   0  0  1  0  0  0  0  0  0  0  0  0
  -17.9642  -38.6985  -13.2371 O   0  0  0  0  0  0  0  0  0  0  0  0
  -18.2770  -40.7143  -12.0879 C   0  0  0  0  0  0  0  0  0  0  0  0
  -19.1063  -39.8881  -11.1258 C   0  0  0  0  0  0  0  0  0  0  0  0
  -18.2256  -39.2401  -10.0422 C   0  0  0  0  0  0  0  0  0  0  0  0
  -17.2570  -38.3791  -10.7493 C   0  0  2  0  0  0  0  0  0  0  0  0
  -16.3769  -39.3100  -11.5998 C   0  0  0  0  0  0  0  0  0  0  0  0
  -16.4393  -37.4447  -10.0227 C   0  0  0  0  0  0  0  0  0  0  0  0
  -16.2449  -36.3047  -10.6048 O   0  0  0  0  0  0  0  0  0  0  0  0
  -15.7994  -37.5481   -8.7693 N   0  0  0  0  0  0  0  0  0  0  0  0
  -21.5599  -38.2619   -7.0616 C   0  0  0  0  0  0  0  0  0  0  0  0
  -22.7512  -38.8675   -7.3937 C   0  0  0  0  0  0  0  0  0  0  0  0
  -22.9323  -40.2291   -7.2125 C   0  0  0  0  0  0  0  0  0  0  0  0
  1  2  1  0
  2  3  1  0
  2  4  1  0
  4  5  2  0
  5  6  1  0
  6  7  1  0
  7  8  1  0
  8  9  1  0
  9 10  1  0
 10 11  1  1
 10 12  1  0
 12 13  1  1
 13 14  1  0
 14 15  1  6
 14 16  1  0
 16 17  1  0
 17 18  1  0
 18 19  1  0
 19 20  1  0
 20 21  1  0
 21 22  1  0
 22 23  1  0
 23 24  1  0
 24 25  1  6
 24 26  1  0
 26 27  1  0
 27 28  1  0
 29 28  1  1
 29 30  1  0
 29 31  1  0
 31 32  2  0
 31 33  1  0
  6 34  2  0
 34 35  1  0
 35 36  2  0
 30 24  1  0
 33 12  1  0
 36  4  1  0
M  END
$$$$
