
     RDKit          3D

 36 38  0  0  0  0  0  0  0  0999 V2000
  -16.6063  -34.9937  -10.5700 C   0  0  0  0  0  0  0  0  0  0  0  0
  -15.5723  -34.9010  -11.6668 C   0  0  0  0  0  0  0  0  0  0  0  0
  -16.1564  -35.5462  -12.9282 C   0  0  0  0  0  0  0  0  0  0  0  0
  -14.3336  -35.6156  -11.3338 C   0  0  0  0  0  0  0  0  0  0  0  0
  -14.2120  -36.9877  -11.3677 C   0  0  0  0  0  0  0  0  0  0  0  0
  -13.0036  -37.6180  -11.0400 C   0  0  0  0  0  0  0  0  0  0  0  0
  -12.8981  -39.0842  -11.0888 C   0  0  0  0  0  0  0  0  0  0  0  0
  -14.1633  -39.7783  -11.1569 N   0  0  0  0  0  0  0  0  0  0  0  0
  -14.9161  -39.5605   -9.9393 C   0  0  0  0  0  0  0  0  0  0  0  0
  -15.7358  -40.7167   -9.4867 C   0  0  1  0  0  0  0  0  0  0  0  0
  -14.9434  -41.5132   -8.6424 O   0  0  0  0  0  0  0  0  0  0  0  0
  -17.0831  -40.3966   -8.8982 C   0  0  2  0  0  0  0  0  0  0  0  0
  -17.4967  -39.0505   -9.3648 C   0  0  0  0  0  0  0  0  0  0  0  0
  -18.5433  -38.3374   -8.5724 C   0  0  2  0  0  0  0  0  0  0  0  0
  -18.0255  -37.9143   -7.2310 C   0  0  0  0  0  0  0  0  0  0  0  0
  -19.8986  -38.9551   -8.5769 C   0  0  0  0  0  0  0  0  0  0  0  0
  -20.6000  -38.7727   -7.2411 C   0  0  0  0  0  0  0  0  0  0  0  0
  -22.0690  -39.2128   -7.3503 C   0  0  0  0  0  0  0  0  0  0  0  0
  -22.3980  -40.0031   -6.1362 C   0  0  0  0  0  0  0  0  0  0  0  0
  -23.3279  -41.1431   -6.2915 C   0  0  0  0  0  0  0  0  0  0  0  0
  -23.5500  -41.6947   -7.6402 C   0  0  0  0  0  0  0  0  0  0  0  0
  -22.4688  -42.5160   -8.2433 C   0  0  0  0  0  0  0  0  0  0  0  0
  -22.0404  -43.7163   -7.4686 C   0  0  0  0  0  0  0  0  0  0  0  0
  -20.5522  -43.8596   -7.3171 C   0  0  1  0  0  0  0  0  0  0  0  0
  -20.2805  -44.2666   -6.0122 O   0  0  0  0  0  0  0  0  0  0  0  0
  -19.9479  -44.8848   -8.2459 C   0  0  0  0  0  0  0  0  0  0  0  0
  -18.4973  -45.0635   -7.8460 C   0  0  0  0  0  0  0  0  0  0  0  0
  -17.7218  -43.7375   -7.9469 C   0  0  0  0  0  0  0  0  0  0  0  0
  -18.3899  -42.7910   -7.0318 C   0  0  2  0  0  0  0  0  0  0  0  0
  -19.8078  -42.5691   -7.5836 C   0  0  0  0  0  0  0  0  0  0  0  0
  -17.7779  -41.5305   -6.7055 C   0  0  0  0  0  0  0  0  0  0  0  0
  -17.9170  -41.1452   -5.4774 O   0  0  0  0  0  0  0  0  0  0  0  0
  -17.0415  -40.6225   -7.4958 N   0  0  0  0  0  0  0  0  0  0  0  0
  -11.8969  -36.8824  -10.6729 C   0  0  0  0  0  0  0  0  0  0  0  0
  -12.0205  -35.5113  -10.6397 C   0  0  0  0  0  0  0  0  0  0  0  0
  -13.2188  -34.8966  -10.9650 C   0  0  0  0  0  0  0  0  0  0  0  0
  1  2  1  0
  2  3  1  0
  2  4  1  0
  4  5  2  0
  5  6  1  0
  6  7  1  0
  7  8  1  0
  8  9  1  0
  9 10  1  0
 10 11  1  1
 10 12  1  0
 12 13  1  1
 13 14  1  0
 14 15  1  1
 14 16  1  0
 16 17  1  0
 17 18  1  0
 18 19  1  0
 19 20  1  0
 20 21  1  0
 21 22  1  0
 22 23  1  0
 23 24  1  0
 24 25  1  1
 24 26  1  0
 26 27  1  0
 27 28  1  0
 29 28  1  6
 29 30  1  0
 29 31  1  0
 31 32  2  0
 31 33  1  0
  6 34  2  0
 34 35  1  0
 35 36  2  0
 30 24  1  0
 33 12  1  0
 36  4  1  0
M  END
$$$$
