
     RDKit          3D

 36 38  0  0  0  0  0  0  0  0999 V2000
  -10.6751  -35.2332  -11.8271 C   0  0  0  0  0  0  0  0  0  0  0  0
  -11.7710  -35.8791  -12.6410 C   0  0  0  0  0  0  0  0  0  0  0  0
  -12.9408  -34.8931  -12.7328 C   0  0  0  0  0  0  0  0  0  0  0  0
  -12.2759  -37.1129  -12.0255 C   0  0  0  0  0  0  0  0  0  0  0  0
  -12.6626  -37.2041  -10.7062 C   0  0  0  0  0  0  0  0  0  0  0  0
  -13.1383  -38.4090  -10.1705 C   0  0  0  0  0  0  0  0  0  0  0  0
  -13.5497  -38.4792   -8.7601 C   0  0  0  0  0  0  0  0  0  0  0  0
  -14.3038  -39.6606   -8.4096 N   0  0  0  0  0  0  0  0  0  0  0  0
  -15.3650  -39.8764   -9.3708 C   0  0  0  0  0  0  0  0  0  0  0  0
  -16.5347  -38.9665   -9.2371 C   0  0  1  0  0  0  0  0  0  0  0  0
  -16.7235  -38.3106  -10.4655 O   0  0  0  0  0  0  0  0  0  0  0  0
  -17.8000  -39.5730   -8.6942 C   0  0  2  0  0  0  0  0  0  0  0  0
  -18.8569  -38.5320   -8.6800 C   0  0  0  0  0  0  0  0  0  0  0  0
  -20.0288  -38.7512   -7.7797 C   0  0  2  0  0  0  0  0  0  0  0  0
  -19.6426  -38.6389   -6.3358 C   0  0  0  0  0  0  0  0  0  0  0  0
  -20.9110  -39.9004   -8.1255 C   0  0  0  0  0  0  0  0  0  0  0  0
  -21.4704  -40.5695   -6.8809 C   0  0  0  0  0  0  0  0  0  0  0  0
  -22.5479  -41.5946   -7.2702 C   0  0  0  0  0  0  0  0  0  0  0  0
  -22.3274  -42.8171   -6.4556 C   0  0  0  0  0  0  0  0  0  0  0  0
  -22.6034  -44.1238   -7.0919 C   0  0  0  0  0  0  0  0  0  0  0  0
  -22.6711  -44.1930   -8.5627 C   0  0  0  0  0  0  0  0  0  0  0  0
  -21.3973  -44.1107   -9.3229 C   0  0  0  0  0  0  0  0  0  0  0  0
  -20.3659  -45.1375   -8.9972 C   0  0  0  0  0  0  0  0  0  0  0  0
  -18.9862  -44.5843   -8.7768 C   0  0  1  0  0  0  0  0  0  0  0  0
  -18.4181  -45.2416   -7.6871 O   0  0  0  0  0  0  0  0  0  0  0  0
  -18.0630  -44.7805   -9.9550 C   0  0  0  0  0  0  0  0  0  0  0  0
  -16.6731  -44.3622   -9.5199 C   0  0  0  0  0  0  0  0  0  0  0  0
  -16.6476  -42.8906   -9.0683 C   0  0  0  0  0  0  0  0  0  0  0  0
  -17.5897  -42.7834   -7.9368 C   0  0  2  0  0  0  0  0  0  0  0  0
  -18.9878  -43.0974   -8.4946 C   0  0  0  0  0  0  0  0  0  0  0  0
  -17.6305  -41.5954   -7.1264 C   0  0  0  0  0  0  0  0  0  0  0  0
  -17.8095  -41.7914   -5.8593 O   0  0  0  0  0  0  0  0  0  0  0  0
  -17.5093  -40.2318   -7.4690 N   0  0  0  0  0  0  0  0  0  0  0  0
  -13.2342  -39.5425  -10.9495 C   0  0  0  0  0  0  0  0  0  0  0  0
  -12.8472  -39.4491  -12.2677 C   0  0  0  0  0  0  0  0  0  0  0  0
  -12.3780  -38.2542  -12.7889 C   0  0  0  0  0  0  0  0  0  0  0  0
  1  2  1  0
  2  3  1  0
  2  4  1  0
  4  5  2  0
  5  6  1  0
  6  7  1  0
  7  8  1  0
  8  9  1  0
  9 10  1  0
 10 11  1  6
 10 12  1  0
 12 13  1  1
 13 14  1  0
 14 15  1  1
 14 16  1  0
 16 17  1  0
 17 18  1  0
 18 19  1  0
 19 20  1  0
 20 21  1  0
 21 22  1  0
 22 23  1  0
 23 24  1  0
 24 25  1  1
 24 26  1  0
 26 27  1  0
 27 28  1  0
 29 28  1  6
 29 30  1  0
 29 31  1  0
 31 32  2  0
 31 33  1  0
  6 34  2  0
 34 35  1  0
 35 36  2  0
 30 24  1  0
 33 12  1  0
 36  4  1  0
M  END
$$$$
