
     RDKit          3D

 36 38  0  0  0  0  0  0  0  0999 V2000
  -12.4748  -39.4900  -14.3017 C   0  0  0  0  0  0  0  0  0  0  0  0
  -12.5671  -38.0112  -14.0097 C   0  0  0  0  0  0  0  0  0  0  0  0
  -11.1544  -37.4942  -13.7167 C   0  0  0  0  0  0  0  0  0  0  0  0
  -13.3999  -37.7206  -12.8358 C   0  0  0  0  0  0  0  0  0  0  0  0
  -13.0292  -38.0239  -11.5438 C   0  0  0  0  0  0  0  0  0  0  0  0
  -13.8645  -37.7230  -10.4591 C   0  0  0  0  0  0  0  0  0  0  0  0
  -13.4437  -38.0525   -9.0888 C   0  0  0  0  0  0  0  0  0  0  0  0
  -13.6468  -39.4319   -8.7105 N   0  0  0  0  0  0  0  0  0  0  0  0
  -15.0529  -39.7678   -8.7915 C   0  0  0  0  0  0  0  0  0  0  0  0
  -15.9142  -39.1411   -7.7526 C   0  0  1  0  0  0  0  0  0  0  0  0
  -15.7479  -37.7476   -7.8264 O   0  0  0  0  0  0  0  0  0  0  0  0
  -17.3591  -39.5603   -7.7344 C   0  0  2  0  0  0  0  0  0  0  0  0
  -18.2062  -38.3424   -7.7338 C   0  0  0  0  0  0  0  0  0  0  0  0
  -19.6160  -38.4832   -7.2598 C   0  0  2  0  0  0  0  0  0  0  0  0
  -19.6775  -38.7489   -5.7859 C   0  0  0  0  0  0  0  0  0  0  0  0
  -20.5078  -39.3239   -8.1062 C   0  0  0  0  0  0  0  0  0  0  0  0
  -21.5120  -40.0948   -7.2653 C   0  0  0  0  0  0  0  0  0  0  0  0
  -22.5562  -40.7664   -8.1718 C   0  0  0  0  0  0  0  0  0  0  0  0
  -22.7757  -42.1463   -7.6671 C   0  0  0  0  0  0  0  0  0  0  0  0
  -23.0314  -43.2085   -8.6646 C   0  0  0  0  0  0  0  0  0  0  0  0
  -22.6557  -42.9640  -10.0687 C   0  0  0  0  0  0  0  0  0  0  0  0
  -21.2128  -43.0040  -10.4205 C   0  0  0  0  0  0  0  0  0  0  0  0
  -20.4914  -44.2713  -10.1079 C   0  0  0  0  0  0  0  0  0  0  0  0
  -19.1799  -44.0812   -9.3993 C   0  0  1  0  0  0  0  0  0  0  0  0
  -19.0741  -45.0503   -8.4032 O   0  0  0  0  0  0  0  0  0  0  0  0
  -17.9797  -44.2285  -10.3031 C   0  0  0  0  0  0  0  0  0  0  0  0
  -16.7440  -44.2128   -9.4263 C   0  0  0  0  0  0  0  0  0  0  0  0
  -16.6436  -42.9024   -8.6246 C   0  0  0  0  0  0  0  0  0  0  0  0
  -17.8603  -42.8267   -7.7919 C   0  0  2  0  0  0  0  0  0  0  0  0
  -19.0511  -42.7163   -8.7584 C   0  0  0  0  0  0  0  0  0  0  0  0
  -17.9733  -41.8454   -6.7459 C   0  0  0  0  0  0  0  0  0  0  0  0
  -18.5575  -42.2498   -5.6636 O   0  0  0  0  0  0  0  0  0  0  0  0
  -17.5559  -40.4988   -6.6856 N   0  0  0  0  0  0  0  0  0  0  0  0
  -15.0856  -37.1126  -10.6523 C   0  0  0  0  0  0  0  0  0  0  0  0
  -15.4540  -36.8104  -11.9442 C   0  0  0  0  0  0  0  0  0  0  0  0
  -14.6223  -37.1116  -13.0106 C   0  0  0  0  0  0  0  0  0  0  0  0
  1  2  1  0
  2  3  1  0
  2  4  1  0
  4  5  2  0
  5  6  1  0
  6  7  1  0
  7  8  1  0
  8  9  1  0
  9 10  1  0
 10 11  1  6
 10 12  1  0
 12 13  1  1
 13 14  1  0
 14 15  1  1
 14 16  1  0
 16 17  1  0
 17 18  1  0
 18 19  1  0
 19 20  1  0
 20 21  1  0
 21 22  1  0
 22 23  1  0
 23 24  1  0
 24 25  1  1
 24 26  1  0
 26 27  1  0
 27 28  1  0
 29 28  1  6
 29 30  1  0
 29 31  1  0
 31 32  2  0
 31 33  1  0
  6 34  2  0
 34 35  1  0
 35 36  2  0
 30 24  1  0
 33 12  1  0
 36  4  1  0
M  END
$$$$
