
     RDKit          3D

 36 38  0  0  0  0  0  0  0  0999 V2000
  -13.0222  -34.0541  -12.3492 C   0  0  0  0  0  0  0  0  0  0  0  0
  -12.6025  -35.2201  -11.4861 C   0  0  0  0  0  0  0  0  0  0  0  0
  -11.0725  -35.2206  -11.3968 C   0  0  0  0  0  0  0  0  0  0  0  0
  -13.0163  -36.5126  -12.0469 C   0  0  0  0  0  0  0  0  0  0  0  0
  -13.0907  -37.6747  -11.3103 C   0  0  0  0  0  0  0  0  0  0  0  0
  -13.4931  -38.8822  -11.8977 C   0  0  0  0  0  0  0  0  0  0  0  0
  -13.5693  -40.1081  -11.0887 C   0  0  0  0  0  0  0  0  0  0  0  0
  -13.8739  -39.8920   -9.6930 N   0  0  0  0  0  0  0  0  0  0  0  0
  -15.3075  -39.8213   -9.5022 C   0  0  0  0  0  0  0  0  0  0  0  0
  -15.7553  -39.7661   -8.0844 C   0  0  1  0  0  0  0  0  0  0  0  0
  -15.1274  -38.6703   -7.4679 O   0  0  0  0  0  0  0  0  0  0  0  0
  -17.2404  -39.8027   -7.8462 C   0  0  2  0  0  0  0  0  0  0  0  0
  -17.7734  -38.4230   -7.9613 C   0  0  0  0  0  0  0  0  0  0  0  0
  -19.0957  -38.1393   -7.3265 C   0  0  2  0  0  0  0  0  0  0  0  0
  -19.0078  -38.1766   -5.8307 C   0  0  0  0  0  0  0  0  0  0  0  0
  -20.2687  -38.8371   -7.9229 C   0  0  0  0  0  0  0  0  0  0  0  0
  -21.2947  -39.2086   -6.8651 C   0  0  0  0  0  0  0  0  0  0  0  0
  -22.5837  -39.7144   -7.5330 C   0  0  0  0  0  0  0  0  0  0  0  0
  -23.0433  -40.9125   -6.7845 C   0  0  0  0  0  0  0  0  0  0  0  0
  -23.6768  -42.0028   -7.5582 C   0  0  0  0  0  0  0  0  0  0  0  0
  -23.4573  -42.0551   -9.0148 C   0  0  0  0  0  0  0  0  0  0  0  0
  -22.1278  -42.5037   -9.5029 C   0  0  0  0  0  0  0  0  0  0  0  0
  -21.6829  -43.8563   -9.0593 C   0  0  0  0  0  0  0  0  0  0  0  0
  -20.2763  -43.9062   -8.5327 C   0  0  1  0  0  0  0  0  0  0  0  0
  -20.2581  -44.7249   -7.4050 O   0  0  0  0  0  0  0  0  0  0  0  0
  -19.2834  -44.4723   -9.5189 C   0  0  0  0  0  0  0  0  0  0  0  0
  -17.9663  -44.6472   -8.7904 C   0  0  0  0  0  0  0  0  0  0  0  0
  -17.4525  -43.3068   -8.2340 C   0  0  0  0  0  0  0  0  0  0  0  0
  -18.4880  -42.8150   -7.3039 C   0  0  2  0  0  0  0  0  0  0  0  0
  -19.7453  -42.5427   -8.1462 C   0  0  0  0  0  0  0  0  0  0  0  0
  -18.2212  -41.7030   -6.4308 C   0  0  0  0  0  0  0  0  0  0  0  0
  -18.7240  -41.7957   -5.2413 O   0  0  0  0  0  0  0  0  0  0  0  0
  -17.4989  -40.5091   -6.6404 N   0  0  0  0  0  0  0  0  0  0  0  0
  -13.8276  -38.9440  -13.2338 C   0  0  0  0  0  0  0  0  0  0  0  0
  -13.7525  -37.7814  -13.9680 C   0  0  0  0  0  0  0  0  0  0  0  0
  -13.3536  -36.5923  -13.3793 C   0  0  0  0  0  0  0  0  0  0  0  0
  1  2  1  0
  2  3  1  0
  2  4  1  0
  4  5  2  0
  5  6  1  0
  6  7  1  0
  7  8  1  0
  8  9  1  0
  9 10  1  0
 10 11  1  6
 10 12  1  0
 12 13  1  1
 13 14  1  0
 14 15  1  1
 14 16  1  0
 16 17  1  0
 17 18  1  0
 18 19  1  0
 19 20  1  0
 20 21  1  0
 21 22  1  0
 22 23  1  0
 23 24  1  0
 24 25  1  1
 24 26  1  0
 26 27  1  0
 27 28  1  0
 29 28  1  6
 29 30  1  0
 29 31  1  0
 31 32  2  0
 31 33  1  0
  6 34  2  0
 34 35  1  0
 35 36  2  0
 30 24  1  0
 33 12  1  0
 36  4  1  0
M  END
$$$$
