
     RDKit          3D

 36 38  0  0  0  0  0  0  0  0999 V2000
  -23.8818  -39.4912   -6.5260 C   0  0  0  0  0  0  0  0  0  0  0  0
  -23.3937  -39.3086   -7.9434 C   0  0  0  0  0  0  0  0  0  0  0  0
  -23.9907  -40.4294   -8.8012 C   0  0  0  0  0  0  0  0  0  0  0  0
  -21.9319  -39.3964   -8.0505 C   0  0  0  0  0  0  0  0  0  0  0  0
  -21.1014  -39.6337   -6.9769 C   0  0  0  0  0  0  0  0  0  0  0  0
  -19.7109  -39.7082   -7.1370 C   0  0  0  0  0  0  0  0  0  0  0  0
  -18.8463  -39.9676   -5.9758 C   0  0  0  0  0  0  0  0  0  0  0  0
  -17.6642  -39.1398   -5.9067 N   0  0  0  0  0  0  0  0  0  0  0  0
  -16.5053  -39.8906   -6.3426 C   0  0  0  0  0  0  0  0  0  0  0  0
  -15.4132  -39.0773   -6.9423 C   0  0  1  0  0  0  0  0  0  0  0  0
  -14.2746  -39.2024   -6.1281 O   0  0  0  0  0  0  0  0  0  0  0  0
  -15.1221  -39.3123   -8.3996 C   0  0  2  0  0  0  0  0  0  0  0  0
  -14.7009  -38.0284   -9.0122 C   0  0  0  0  0  0  0  0  0  0  0  0
  -14.8067  -37.9053  -10.4973 C   0  0  2  0  0  0  0  0  0  0  0  0
  -16.2362  -37.8611  -10.9458 C   0  0  0  0  0  0  0  0  0  0  0  0
  -13.9071  -38.7884  -11.2906 C   0  0  0  0  0  0  0  0  0  0  0  0
  -14.5715  -39.2521  -12.5764 C   0  0  0  0  0  0  0  0  0  0  0  0
  -13.5470  -39.9650  -13.4740 C   0  0  0  0  0  0  0  0  0  0  0  0
  -14.1969  -41.1802  -14.0287 C   0  0  0  0  0  0  0  0  0  0  0  0
  -13.3562  -42.3835  -14.2133 C   0  0  0  0  0  0  0  0  0  0  0  0
  -12.0786  -42.4712  -13.4836 C   0  0  0  0  0  0  0  0  0  0  0  0
  -12.1275  -42.7495  -12.0250 C   0  0  0  0  0  0  0  0  0  0  0  0
  -12.8220  -44.0039  -11.6147 C   0  0  0  0  0  0  0  0  0  0  0  0
  -13.8073  -43.8304  -10.4933 C   0  0  1  0  0  0  0  0  0  0  0  0
  -14.9418  -44.5857  -10.7844 O   0  0  0  0  0  0  0  0  0  0  0  0
  -13.2854  -44.2954   -9.1552 C   0  0  0  0  0  0  0  0  0  0  0  0
  -14.4395  -44.2489   -8.1745 C   0  0  0  0  0  0  0  0  0  0  0  0
  -15.0126  -42.8253   -8.0521 C   0  0  0  0  0  0  0  0  0  0  0  0
  -15.4743  -42.4423   -9.4010 C   0  0  2  0  0  0  0  0  0  0  0  0
  -14.2257  -42.3894  -10.2970 C   0  0  0  0  0  0  0  0  0  0  0  0
  -16.2781  -41.2649   -9.5943 C   0  0  0  0  0  0  0  0  0  0  0  0
  -17.2215  -41.3729  -10.4744 O   0  0  0  0  0  0  0  0  0  0  0  0
  -16.2227  -39.9918   -8.9881 N   0  0  0  0  0  0  0  0  0  0  0  0
  -19.1301  -39.5461   -8.3768 C   0  0  0  0  0  0  0  0  0  0  0  0
  -19.9618  -39.3091   -9.4484 C   0  0  0  0  0  0  0  0  0  0  0  0
  -21.3353  -39.2368   -9.2810 C   0  0  0  0  0  0  0  0  0  0  0  0
  1  2  1  0
  2  3  1  0
  2  4  1  0
  4  5  2  0
  5  6  1  0
  6  7  1  0
  7  8  1  0
  8  9  1  0
  9 10  1  0
 10 11  1  1
 10 12  1  0
 12 13  1  6
 13 14  1  0
 14 15  1  6
 14 16  1  0
 16 17  1  0
 17 18  1  0
 18 19  1  0
 19 20  1  0
 20 21  1  0
 21 22  1  0
 22 23  1  0
 23 24  1  0
 24 25  1  6
 24 26  1  0
 26 27  1  0
 27 28  1  0
 29 28  1  1
 29 30  1  0
 29 31  1  0
 31 32  2  0
 31 33  1  0
  6 34  2  0
 34 35  1  0
 35 36  2  0
 30 24  1  0
 33 12  1  0
 36  4  1  0
M  END
$$$$
