
     RDKit          3D

 36 38  0  0  0  0  0  0  0  0999 V2000
  -11.3762  -35.5613  -10.9789 C   0  0  0  0  0  0  0  0  0  0  0  0
  -12.1924  -35.4903  -12.2475 C   0  0  0  0  0  0  0  0  0  0  0  0
  -13.0301  -34.2077  -12.2041 C   0  0  0  0  0  0  0  0  0  0  0  0
  -13.1178  -36.6221  -12.3849 C   0  0  0  0  0  0  0  0  0  0  0  0
  -12.9552  -37.8238  -11.7307 C   0  0  0  0  0  0  0  0  0  0  0  0
  -13.8711  -38.8716  -11.8986 C   0  0  0  0  0  0  0  0  0  0  0  0
  -13.6780  -40.1432  -11.1849 C   0  0  0  0  0  0  0  0  0  0  0  0
  -13.8740  -40.0687   -9.7555 N   0  0  0  0  0  0  0  0  0  0  0  0
  -15.2659  -40.3017   -9.4318 C   0  0  0  0  0  0  0  0  0  0  0  0
  -15.8168  -39.4414   -8.3500 C   0  0  1  0  0  0  0  0  0  0  0  0
  -15.4239  -38.1156   -8.6004 O   0  0  0  0  0  0  0  0  0  0  0  0
  -17.2887  -39.5749   -8.0682 C   0  0  2  0  0  0  0  0  0  0  0  0
  -17.9103  -38.2301   -8.1455 C   0  0  0  0  0  0  0  0  0  0  0  0
  -19.2276  -38.0392   -7.4671 C   0  0  2  0  0  0  0  0  0  0  0  0
  -19.0915  -38.0918   -5.9754 C   0  0  0  0  0  0  0  0  0  0  0  0
  -20.3723  -38.8011   -8.0393 C   0  0  0  0  0  0  0  0  0  0  0  0
  -21.3401  -39.2513   -6.9574 C   0  0  0  0  0  0  0  0  0  0  0  0
  -22.6149  -39.8280   -7.5945 C   0  0  0  0  0  0  0  0  0  0  0  0
  -22.9753  -41.0630   -6.8517 C   0  0  0  0  0  0  0  0  0  0  0  0
  -23.5628  -42.1801   -7.6233 C   0  0  0  0  0  0  0  0  0  0  0  0
  -23.3854  -42.1981   -9.0864 C   0  0  0  0  0  0  0  0  0  0  0  0
  -22.0461  -42.5552   -9.6211 C   0  0  0  0  0  0  0  0  0  0  0  0
  -21.5040  -43.8831   -9.2125 C   0  0  0  0  0  0  0  0  0  0  0  0
  -20.0815  -43.8516   -8.7289 C   0  0  1  0  0  0  0  0  0  0  0  0
  -19.9774  -44.6832   -7.6154 O   0  0  0  0  0  0  0  0  0  0  0  0
  -19.0859  -44.3401   -9.7531 C   0  0  0  0  0  0  0  0  0  0  0  0
  -17.7386  -44.4419   -9.0671 C   0  0  0  0  0  0  0  0  0  0  0  0
  -17.2929  -43.0797   -8.5051 C   0  0  0  0  0  0  0  0  0  0  0  0
  -18.3280  -42.6671   -7.5368 C   0  0  2  0  0  0  0  0  0  0  0  0
  -19.6252  -42.4629   -8.3368 C   0  0  0  0  0  0  0  0  0  0  0  0
  -18.1046  -41.5528   -6.6546 C   0  0  0  0  0  0  0  0  0  0  0  0
  -18.5637  -41.6936   -5.4523 O   0  0  0  0  0  0  0  0  0  0  0  0
  -17.4652  -40.3129   -6.8667 N   0  0  0  0  0  0  0  0  0  0  0  0
  -14.9654  -38.7314  -12.7254 C   0  0  0  0  0  0  0  0  0  0  0  0
  -15.1258  -37.5296  -13.3783 C   0  0  0  0  0  0  0  0  0  0  0  0
  -14.2156  -36.4993  -13.2067 C   0  0  0  0  0  0  0  0  0  0  0  0
  1  2  1  0
  2  3  1  0
  2  4  1  0
  4  5  2  0
  5  6  1  0
  6  7  1  0
  7  8  1  0
  8  9  1  0
  9 10  1  0
 10 11  1  6
 10 12  1  0
 12 13  1  1
 13 14  1  0
 14 15  1  1
 14 16  1  0
 16 17  1  0
 17 18  1  0
 18 19  1  0
 19 20  1  0
 20 21  1  0
 21 22  1  0
 22 23  1  0
 23 24  1  0
 24 25  1  1
 24 26  1  0
 26 27  1  0
 27 28  1  0
 29 28  1  6
 29 30  1  0
 29 31  1  0
 31 32  2  0
 31 33  1  0
  6 34  2  0
 34 35  1  0
 35 36  2  0
 30 24  1  0
 33 12  1  0
 36  4  1  0
M  END
$$$$
