
     RDKit          3D

 36 38  0  0  0  0  0  0  0  0999 V2000
  -17.1366  -48.7588  -12.4459 C   0  0  0  0  0  0  0  0  0  0  0  0
  -16.9503  -47.9935  -11.1574 C   0  0  0  0  0  0  0  0  0  0  0  0
  -18.1927  -48.2147  -10.2877 C   0  0  0  0  0  0  0  0  0  0  0  0
  -16.8119  -46.5482  -11.3766 C   0  0  0  0  0  0  0  0  0  0  0  0
  -15.8711  -45.7672  -10.7414 C   0  0  0  0  0  0  0  0  0  0  0  0
  -15.7833  -44.3903  -10.9893 C   0  0  0  0  0  0  0  0  0  0  0  0
  -14.7669  -43.5792  -10.3021 C   0  0  0  0  0  0  0  0  0  0  0  0
  -14.8073  -42.1693  -10.6149 N   0  0  0  0  0  0  0  0  0  0  0  0
  -15.5878  -41.4618   -9.6214 C   0  0  0  0  0  0  0  0  0  0  0  0
  -16.4434  -40.3661  -10.1515 C   0  0  1  0  0  0  0  0  0  0  0  0
  -16.8831  -40.7337  -11.4346 O   0  0  0  0  0  0  0  0  0  0  0  0
  -17.5602  -39.8939   -9.2606 C   0  0  2  0  0  0  0  0  0  0  0  0
  -18.0928  -38.6197   -9.8026 C   0  0  0  0  0  0  0  0  0  0  0  0
  -18.8626  -37.7420   -8.8704 C   0  0  2  0  0  0  0  0  0  0  0  0
  -17.9757  -37.1384   -7.8236 C   0  0  0  0  0  0  0  0  0  0  0  0
  -20.1598  -38.2877   -8.3826 C   0  0  0  0  0  0  0  0  0  0  0  0
  -20.4405  -37.8645   -6.9501 C   0  0  0  0  0  0  0  0  0  0  0  0
  -21.8770  -38.2461   -6.5575 C   0  0  0  0  0  0  0  0  0  0  0  0
  -21.8366  -38.8192   -5.1876 C   0  0  0  0  0  0  0  0  0  0  0  0
  -22.7707  -39.9240   -4.8789 C   0  0  0  0  0  0  0  0  0  0  0  0
  -23.3768  -40.6696   -5.9966 C   0  0  0  0  0  0  0  0  0  0  0  0
  -22.5185  -41.6258   -6.7424 C   0  0  0  0  0  0  0  0  0  0  0  0
  -21.8820  -42.7084   -5.9380 C   0  0  0  0  0  0  0  0  0  0  0  0
  -20.4143  -42.8966   -6.2005 C   0  0  1  0  0  0  0  0  0  0  0  0
  -19.7730  -43.1059   -4.9810 O   0  0  0  0  0  0  0  0  0  0  0  0
  -20.1071  -44.0826   -7.0826 C   0  0  0  0  0  0  0  0  0  0  0  0
  -18.6029  -44.2649   -7.0940 C   0  0  0  0  0  0  0  0  0  0  0  0
  -17.8914  -43.0095   -7.6305 C   0  0  0  0  0  0  0  0  0  0  0  0
  -18.2635  -41.9004   -6.7301 C   0  0  2  0  0  0  0  0  0  0  0  0
  -19.7809  -41.7009   -6.8784 C   0  0  0  0  0  0  0  0  0  0  0  0
  -17.5836  -40.6347   -6.8056 C   0  0  0  0  0  0  0  0  0  0  0  0
  -17.3580  -40.0550   -5.6702 O   0  0  0  0  0  0  0  0  0  0  0  0
  -17.1106  -39.8982   -7.9125 N   0  0  0  0  0  0  0  0  0  0  0  0
  -16.6376  -43.7739  -11.8787 C   0  0  0  0  0  0  0  0  0  0  0  0
  -17.5770  -44.5564  -12.5124 C   0  0  0  0  0  0  0  0  0  0  0  0
  -17.6569  -45.9166  -12.2613 C   0  0  0  0  0  0  0  0  0  0  0  0
  1  2  1  0
  2  3  1  0
  2  4  1  0
  4  5  2  0
  5  6  1  0
  6  7  1  0
  7  8  1  0
  8  9  1  0
  9 10  1  0
 10 11  1  6
 10 12  1  0
 12 13  1  6
 13 14  1  0
 14 15  1  1
 14 16  1  0
 16 17  1  0
 17 18  1  0
 18 19  1  0
 19 20  1  0
 20 21  1  0
 21 22  1  0
 22 23  1  0
 23 24  1  0
 24 25  1  1
 24 26  1  0
 26 27  1  0
 27 28  1  0
 29 28  1  6
 29 30  1  0
 29 31  1  0
 31 32  2  0
 31 33  1  0
  6 34  2  0
 34 35  1  0
 35 36  2  0
 30 24  1  0
 33 12  1  0
 36  4  1  0
M  END
$$$$
