
     RDKit          3D

 36 38  0  0  0  0  0  0  0  0999 V2000
  -10.7389  -35.8650  -11.2811 C   0  0  0  0  0  0  0  0  0  0  0  0
  -11.9557  -35.8180  -12.1742 C   0  0  0  0  0  0  0  0  0  0  0  0
  -12.9405  -34.8022  -11.5849 C   0  0  0  0  0  0  0  0  0  0  0  0
  -12.6452  -37.1119  -12.2540 C   0  0  0  0  0  0  0  0  0  0  0  0
  -12.6022  -38.0617  -11.2567 C   0  0  0  0  0  0  0  0  0  0  0  0
  -13.2808  -39.2814  -11.3858 C   0  0  0  0  0  0  0  0  0  0  0  0
  -13.2234  -40.2770  -10.3046 C   0  0  0  0  0  0  0  0  0  0  0  0
  -13.7765  -39.8333   -9.0458 N   0  0  0  0  0  0  0  0  0  0  0  0
  -15.1938  -40.1254   -8.9951 C   0  0  0  0  0  0  0  0  0  0  0  0
  -15.9679  -39.3343   -8.0008 C   0  0  1  0  0  0  0  0  0  0  0  0
  -15.6468  -37.9771   -8.1735 O   0  0  0  0  0  0  0  0  0  0  0  0
  -17.4505  -39.5854   -7.9488 C   0  0  2  0  0  0  0  0  0  0  0  0
  -18.1458  -38.2860   -7.7784 C   0  0  0  0  0  0  0  0  0  0  0  0
  -19.5418  -38.3153   -7.2469 C   0  0  2  0  0  0  0  0  0  0  0  0
  -19.5742  -38.7298   -5.8069 C   0  0  0  0  0  0  0  0  0  0  0  0
  -20.5612  -38.9525   -8.1263 C   0  0  0  0  0  0  0  0  0  0  0  0
  -21.6148  -39.6900   -7.3166 C   0  0  0  0  0  0  0  0  0  0  0  0
  -22.7678  -40.1363   -8.2304 C   0  0  0  0  0  0  0  0  0  0  0  0
  -23.1293  -41.5284   -7.8587 C   0  0  0  0  0  0  0  0  0  0  0  0
  -23.5501  -42.4405   -8.9448 C   0  0  0  0  0  0  0  0  0  0  0  0
  -23.2056  -42.0904  -10.3344 C   0  0  0  0  0  0  0  0  0  0  0  0
  -21.7934  -42.2566  -10.7647 C   0  0  0  0  0  0  0  0  0  0  0  0
  -21.2159  -43.6242  -10.6224 C   0  0  0  0  0  0  0  0  0  0  0  0
  -19.8632  -43.6627   -9.9687 C   0  0  1  0  0  0  0  0  0  0  0  0
  -19.8330  -44.7393   -9.0843 O   0  0  0  0  0  0  0  0  0  0  0  0
  -18.7270  -43.8475  -10.9454 C   0  0  0  0  0  0  0  0  0  0  0  0
  -17.4634  -44.0677  -10.1386 C   0  0  0  0  0  0  0  0  0  0  0  0
  -17.1751  -42.8716   -9.2134 C   0  0  0  0  0  0  0  0  0  0  0  0
  -18.3391  -42.7478   -8.3138 C   0  0  2  0  0  0  0  0  0  0  0  0
  -19.5467  -42.3985   -9.1992 C   0  0  0  0  0  0  0  0  0  0  0  0
  -18.2916  -41.8788   -7.1683 C   0  0  0  0  0  0  0  0  0  0  0  0
  -18.8751  -42.3283   -6.1035 O   0  0  0  0  0  0  0  0  0  0  0  0
  -17.7146  -40.6030   -6.9926 N   0  0  0  0  0  0  0  0  0  0  0  0
  -14.0141  -39.5687  -12.5174 C   0  0  0  0  0  0  0  0  0  0  0  0
  -14.0557  -38.6181  -13.5129 C   0  0  0  0  0  0  0  0  0  0  0  0
  -13.3817  -37.4152  -13.3770 C   0  0  0  0  0  0  0  0  0  0  0  0
  1  2  1  0
  2  3  1  0
  2  4  1  0
  4  5  2  0
  5  6  1  0
  6  7  1  0
  7  8  1  0
  8  9  1  0
  9 10  1  0
 10 11  1  6
 10 12  1  0
 12 13  1  1
 13 14  1  0
 14 15  1  1
 14 16  1  0
 16 17  1  0
 17 18  1  0
 18 19  1  0
 19 20  1  0
 20 21  1  0
 21 22  1  0
 22 23  1  0
 23 24  1  0
 24 25  1  1
 24 26  1  0
 26 27  1  0
 27 28  1  0
 29 28  1  6
 29 30  1  0
 29 31  1  0
 31 32  2  0
 31 33  1  0
  6 34  2  0
 34 35  1  0
 35 36  2  0
 30 24  1  0
 33 12  1  0
 36  4  1  0
M  END
$$$$
