
     RDKit          3D

 36 38  0  0  0  0  0  0  0  0999 V2000
  -11.8741  -34.9604  -11.2223 C   0  0  0  0  0  0  0  0  0  0  0  0
  -12.9542  -35.4929  -12.1336 C   0  0  0  0  0  0  0  0  0  0  0  0
  -14.3064  -34.9944  -11.6119 C   0  0  0  0  0  0  0  0  0  0  0  0
  -12.9988  -36.9604  -12.1552 C   0  0  0  0  0  0  0  0  0  0  0  0
  -13.1952  -37.7340  -11.0321 C   0  0  0  0  0  0  0  0  0  0  0  0
  -13.2294  -39.1331  -11.1109 C   0  0  0  0  0  0  0  0  0  0  0  0
  -13.4456  -39.9365   -9.8980 C   0  0  0  0  0  0  0  0  0  0  0  0
  -14.4508  -39.4157   -9.0005 N   0  0  0  0  0  0  0  0  0  0  0  0
  -15.6914  -40.1435   -9.1674 C   0  0  0  0  0  0  0  0  0  0  0  0
  -16.9088  -39.2979   -9.2964 C   0  0  1  0  0  0  0  0  0  0  0  0
  -17.1898  -39.1383  -10.6640 O   0  0  0  0  0  0  0  0  0  0  0  0
  -18.1099  -39.7215   -8.4952 C   0  0  2  0  0  0  0  0  0  0  0  0
  -19.0383  -38.5695   -8.3872 C   0  0  0  0  0  0  0  0  0  0  0  0
  -20.0452  -38.5963   -7.2838 C   0  0  2  0  0  0  0  0  0  0  0  0
  -19.3966  -38.4343   -5.9423 C   0  0  0  0  0  0  0  0  0  0  0  0
  -21.0849  -39.6589   -7.3754 C   0  0  0  0  0  0  0  0  0  0  0  0
  -21.4751  -40.1783   -6.0014 C   0  0  0  0  0  0  0  0  0  0  0  0
  -22.7014  -41.0987   -6.1124 C   0  0  0  0  0  0  0  0  0  0  0  0
  -22.4606  -42.2827   -5.2481 C   0  0  0  0  0  0  0  0  0  0  0  0
  -22.9749  -43.5886   -5.7155 C   0  0  0  0  0  0  0  0  0  0  0  0
  -23.3123  -43.7453   -7.1417 C   0  0  0  0  0  0  0  0  0  0  0  0
  -22.1942  -43.8567   -8.1136 C   0  0  0  0  0  0  0  0  0  0  0  0
  -21.2282  -44.9697   -7.8848 C   0  0  0  0  0  0  0  0  0  0  0  0
  -19.7833  -44.5621   -7.9519 C   0  0  1  0  0  0  0  0  0  0  0  0
  -19.0967  -45.2068   -6.9246 O   0  0  0  0  0  0  0  0  0  0  0  0
  -19.1109  -44.9373   -9.2504 C   0  0  0  0  0  0  0  0  0  0  0  0
  -17.6310  -44.6506   -9.0971 C   0  0  0  0  0  0  0  0  0  0  0  0
  -17.3787  -43.1650   -8.7818 C   0  0  0  0  0  0  0  0  0  0  0  0
  -18.0868  -42.8790   -7.5184 C   0  0  2  0  0  0  0  0  0  0  0  0
  -19.5865  -43.0693   -7.7994 C   0  0  0  0  0  0  0  0  0  0  0  0
  -17.8631  -41.6436   -6.8157 C   0  0  0  0  0  0  0  0  0  0  0  0
  -17.8300  -41.7354   -5.5247 O   0  0  0  0  0  0  0  0  0  0  0  0
  -17.6706  -40.3277   -7.2873 N   0  0  0  0  0  0  0  0  0  0  0  0
  -13.0674  -39.7796  -12.3179 C   0  0  0  0  0  0  0  0  0  0  0  0
  -12.8712  -39.0045  -13.4391 C   0  0  0  0  0  0  0  0  0  0  0  0
  -12.8387  -37.6221  -13.3519 C   0  0  0  0  0  0  0  0  0  0  0  0
  1  2  1  0
  2  3  1  0
  2  4  1  0
  4  5  2  0
  5  6  1  0
  6  7  1  0
  7  8  1  0
  8  9  1  0
  9 10  1  0
 10 11  1  6
 10 12  1  0
 12 13  1  1
 13 14  1  0
 14 15  1  1
 14 16  1  0
 16 17  1  0
 17 18  1  0
 18 19  1  0
 19 20  1  0
 20 21  1  0
 21 22  1  0
 22 23  1  0
 23 24  1  0
 24 25  1  1
 24 26  1  0
 26 27  1  0
 27 28  1  0
 29 28  1  6
 29 30  1  0
 29 31  1  0
 31 32  2  0
 31 33  1  0
  6 34  2  0
 34 35  1  0
 35 36  2  0
 30 24  1  0
 33 12  1  0
 36  4  1  0
M  END
$$$$
