
     RDKit          3D

 36 38  0  0  0  0  0  0  0  0999 V2000
  -10.9165  -41.7996  -13.1848 C   0  0  0  0  0  0  0  0  0  0  0  0
  -12.2989  -41.9339  -12.5920 C   0  0  0  0  0  0  0  0  0  0  0  0
  -13.2116  -42.5651  -13.6491 C   0  0  0  0  0  0  0  0  0  0  0  0
  -12.8794  -40.6376  -12.2193 C   0  0  0  0  0  0  0  0  0  0  0  0
  -12.9614  -40.1839  -10.9209 C   0  0  0  0  0  0  0  0  0  0  0  0
  -13.5258  -38.9361  -10.6221 C   0  0  0  0  0  0  0  0  0  0  0  0
  -13.5972  -38.4721   -9.2282 C   0  0  0  0  0  0  0  0  0  0  0  0
  -13.6979  -39.5266   -8.2457 N   0  0  0  0  0  0  0  0  0  0  0  0
  -15.0492  -40.0457   -8.2103 C   0  0  0  0  0  0  0  0  0  0  0  0
  -16.0928  -39.0668   -7.8024 C   0  0  1  0  0  0  0  0  0  0  0  0
  -15.9682  -37.9276   -8.6159 O   0  0  0  0  0  0  0  0  0  0  0  0
  -17.5043  -39.5817   -7.7245 C   0  0  2  0  0  0  0  0  0  0  0  0
  -18.4326  -38.4245   -7.7339 C   0  0  0  0  0  0  0  0  0  0  0  0
  -19.8144  -38.6446   -7.2104 C   0  0  2  0  0  0  0  0  0  0  0  0
  -19.8130  -38.8652   -5.7279 C   0  0  0  0  0  0  0  0  0  0  0  0
  -20.6716  -39.5710   -8.0012 C   0  0  0  0  0  0  0  0  0  0  0  0
  -21.5948  -40.3798   -7.1049 C   0  0  0  0  0  0  0  0  0  0  0  0
  -22.6174  -41.1500   -7.9561 C   0  0  0  0  0  0  0  0  0  0  0  0
  -22.7265  -42.5241   -7.4023 C   0  0  0  0  0  0  0  0  0  0  0  0
  -22.9387  -43.6334   -8.3579 C   0  0  0  0  0  0  0  0  0  0  0  0
  -22.6232  -43.4104   -9.7803 C   0  0  0  0  0  0  0  0  0  0  0  0
  -21.1923  -43.3644  -10.1772 C   0  0  0  0  0  0  0  0  0  0  0  0
  -20.3766  -44.5691   -9.8493 C   0  0  0  0  0  0  0  0  0  0  0  0
  -19.0605  -44.2677   -9.1896 C   0  0  1  0  0  0  0  0  0  0  0  0
  -18.8584  -45.1941   -8.1682 O   0  0  0  0  0  0  0  0  0  0  0  0
  -17.8808  -44.3633  -10.1269 C   0  0  0  0  0  0  0  0  0  0  0  0
  -16.6231  -44.2353   -9.2915 C   0  0  0  0  0  0  0  0  0  0  0  0
  -16.5887  -42.8954   -8.5341 C   0  0  0  0  0  0  0  0  0  0  0  0
  -17.7820  -42.8747   -7.6652 C   0  0  2  0  0  0  0  0  0  0  0  0
  -19.0062  -42.8768   -8.5956 C   0  0  0  0  0  0  0  0  0  0  0  0
  -17.9303  -41.8694   -6.6468 C   0  0  0  0  0  0  0  0  0  0  0  0
  -18.4525  -42.2765   -5.5342 O   0  0  0  0  0  0  0  0  0  0  0  0
  -17.6046  -40.4964   -6.6415 N   0  0  0  0  0  0  0  0  0  0  0  0
  -14.0172  -38.1225  -11.6208 C   0  0  0  0  0  0  0  0  0  0  0  0
  -13.9342  -38.5779  -12.9177 C   0  0  0  0  0  0  0  0  0  0  0  0
  -13.3749  -39.8128  -13.2040 C   0  0  0  0  0  0  0  0  0  0  0  0
  1  2  1  0
  2  3  1  0
  2  4  1  0
  4  5  2  0
  5  6  1  0
  6  7  1  0
  7  8  1  0
  8  9  1  0
  9 10  1  0
 10 11  1  6
 10 12  1  0
 12 13  1  1
 13 14  1  0
 14 15  1  1
 14 16  1  0
 16 17  1  0
 17 18  1  0
 18 19  1  0
 19 20  1  0
 20 21  1  0
 21 22  1  0
 22 23  1  0
 23 24  1  0
 24 25  1  1
 24 26  1  0
 26 27  1  0
 27 28  1  0
 29 28  1  6
 29 30  1  0
 29 31  1  0
 31 32  2  0
 31 33  1  0
  6 34  2  0
 34 35  1  0
 35 36  2  0
 30 24  1  0
 33 12  1  0
 36  4  1  0
M  END
$$$$
