
     RDKit          3D

 36 38  0  0  0  0  0  0  0  0999 V2000
  -13.7176  -34.3202  -13.3948 C   0  0  0  0  0  0  0  0  0  0  0  0
  -12.9522  -35.2079  -12.4426 C   0  0  0  0  0  0  0  0  0  0  0  0
  -11.4588  -35.0688  -12.7573 C   0  0  0  0  0  0  0  0  0  0  0  0
  -13.3075  -36.6254  -12.5865 C   0  0  0  0  0  0  0  0  0  0  0  0
  -13.1125  -37.5647  -11.5975 C   0  0  0  0  0  0  0  0  0  0  0  0
  -13.4713  -38.9061  -11.7891 C   0  0  0  0  0  0  0  0  0  0  0  0
  -13.2576  -39.8887  -10.7157 C   0  0  0  0  0  0  0  0  0  0  0  0
  -13.7118  -39.4656   -9.4111 N   0  0  0  0  0  0  0  0  0  0  0  0
  -15.1433  -39.6520   -9.2985 C   0  0  0  0  0  0  0  0  0  0  0  0
  -15.7403  -39.2053   -8.0110 C   0  0  1  0  0  0  0  0  0  0  0  0
  -15.5336  -37.8207   -7.8880 O   0  0  0  0  0  0  0  0  0  0  0  0
  -17.1660  -39.6116   -7.7538 C   0  0  2  0  0  0  0  0  0  0  0  0
  -18.0151  -38.3952   -7.7643 C   0  0  0  0  0  0  0  0  0  0  0  0
  -19.3465  -38.4777   -7.0916 C   0  0  2  0  0  0  0  0  0  0  0  0
  -19.2057  -38.5890   -5.6035 C   0  0  0  0  0  0  0  0  0  0  0  0
  -20.3378  -39.3962   -7.7177 C   0  0  0  0  0  0  0  0  0  0  0  0
  -21.2126  -40.0698   -6.6733 C   0  0  0  0  0  0  0  0  0  0  0  0
  -22.3645  -40.8255   -7.3556 C   0  0  0  0  0  0  0  0  0  0  0  0
  -22.5023  -42.1443   -6.6859 C   0  0  0  0  0  0  0  0  0  0  0  0
  -22.8821  -43.3026   -7.5243 C   0  0  0  0  0  0  0  0  0  0  0  0
  -22.7020  -43.2070   -8.9840 C   0  0  0  0  0  0  0  0  0  0  0  0
  -21.3198  -43.2919   -9.5221 C   0  0  0  0  0  0  0  0  0  0  0  0
  -20.5524  -44.5243   -9.1808 C   0  0  0  0  0  0  0  0  0  0  0  0
  -19.1586  -44.2697   -8.6799 C   0  0  1  0  0  0  0  0  0  0  0  0
  -18.9110  -45.1311   -7.6126 O   0  0  0  0  0  0  0  0  0  0  0  0
  -18.0907  -44.5170   -9.7180 C   0  0  0  0  0  0  0  0  0  0  0  0
  -16.7478  -44.4180   -9.0232 C   0  0  0  0  0  0  0  0  0  0  0  0
  -16.5504  -43.0322   -8.3823 C   0  0  0  0  0  0  0  0  0  0  0  0
  -17.6437  -42.8634   -7.4047 C   0  0  2  0  0  0  0  0  0  0  0  0
  -18.9553  -42.8466   -8.2071 C   0  0  0  0  0  0  0  0  0  0  0  0
  -17.6220  -41.7784   -6.4602 C   0  0  0  0  0  0  0  0  0  0  0  0
  -18.0509  -42.0650   -5.2727 O   0  0  0  0  0  0  0  0  0  0  0  0
  -17.2113  -40.4353   -6.5966 N   0  0  0  0  0  0  0  0  0  0  0  0
  -14.0317  -39.3277  -12.9761 C   0  0  0  0  0  0  0  0  0  0  0  0
  -14.2256  -38.3874  -13.9632 C   0  0  0  0  0  0  0  0  0  0  0  0
  -13.8679  -37.0635  -13.7653 C   0  0  0  0  0  0  0  0  0  0  0  0
  1  2  1  0
  2  3  1  0
  2  4  1  0
  4  5  2  0
  5  6  1  0
  6  7  1  0
  7  8  1  0
  8  9  1  0
  9 10  1  0
 10 11  1  6
 10 12  1  0
 12 13  1  1
 13 14  1  0
 14 15  1  1
 14 16  1  0
 16 17  1  0
 17 18  1  0
 18 19  1  0
 19 20  1  0
 20 21  1  0
 21 22  1  0
 22 23  1  0
 23 24  1  0
 24 25  1  1
 24 26  1  0
 26 27  1  0
 27 28  1  0
 29 28  1  6
 29 30  1  0
 29 31  1  0
 31 32  2  0
 31 33  1  0
  6 34  2  0
 34 35  1  0
 35 36  2  0
 30 24  1  0
 33 12  1  0
 36  4  1  0
M  END
$$$$
