
     RDKit          3D

 36 38  0  0  0  0  0  0  0  0999 V2000
  -10.1409  -36.4205  -11.8826 C   0  0  0  0  0  0  0  0  0  0  0  0
  -11.6415  -36.5554  -11.9852 C   0  0  0  0  0  0  0  0  0  0  0  0
  -12.2691  -35.8070  -10.8041 C   0  0  0  0  0  0  0  0  0  0  0  0
  -12.0868  -37.9528  -11.9141 C   0  0  0  0  0  0  0  0  0  0  0  0
  -12.1872  -38.6623  -10.7372 C   0  0  0  0  0  0  0  0  0  0  0  0
  -12.6191  -39.9958  -10.7278 C   0  0  0  0  0  0  0  0  0  0  0  0
  -12.7226  -40.7300   -9.4575 C   0  0  0  0  0  0  0  0  0  0  0  0
  -13.4057  -40.0173   -8.4026 N   0  0  0  0  0  0  0  0  0  0  0  0
  -14.8205  -39.9287   -8.6977 C   0  0  0  0  0  0  0  0  0  0  0  0
  -15.6383  -39.2272   -7.6716 C   0  0  1  0  0  0  0  0  0  0  0  0
  -15.2384  -37.8804   -7.6369 O   0  0  0  0  0  0  0  0  0  0  0  0
  -17.1302  -39.3948   -7.7707 C   0  0  2  0  0  0  0  0  0  0  0  0
  -17.7756  -38.0987   -7.4479 C   0  0  0  0  0  0  0  0  0  0  0  0
  -19.2106  -38.1271   -7.0333 C   0  0  2  0  0  0  0  0  0  0  0  0
  -19.3817  -38.7572   -5.6841 C   0  0  0  0  0  0  0  0  0  0  0  0
  -20.1824  -38.5586   -8.0764 C   0  0  0  0  0  0  0  0  0  0  0  0
  -21.3329  -39.3489   -7.4751 C   0  0  0  0  0  0  0  0  0  0  0  0
  -22.4258  -39.5789   -8.5316 C   0  0  0  0  0  0  0  0  0  0  0  0
  -22.8817  -40.9879   -8.4143 C   0  0  0  0  0  0  0  0  0  0  0  0
  -23.2534  -41.6940   -9.6600 C   0  0  0  0  0  0  0  0  0  0  0  0
  -22.7789  -41.1537  -10.9466 C   0  0  0  0  0  0  0  0  0  0  0  0
  -21.3452  -41.3348  -11.2915 C   0  0  0  0  0  0  0  0  0  0  0  0
  -20.8462  -42.7398  -11.3262 C   0  0  0  0  0  0  0  0  0  0  0  0
  -19.5557  -42.9593  -10.5882 C   0  0  1  0  0  0  0  0  0  0  0  0
  -19.6494  -44.1599   -9.8866 O   0  0  0  0  0  0  0  0  0  0  0  0
  -18.3524  -43.0576  -11.4945 C   0  0  0  0  0  0  0  0  0  0  0  0
  -17.1717  -43.4747  -10.6412 C   0  0  0  0  0  0  0  0  0  0  0  0
  -16.9053  -42.4557   -9.5185 C   0  0  0  0  0  0  0  0  0  0  0  0
  -18.1327  -42.4041   -8.6998 C   0  0  2  0  0  0  0  0  0  0  0  0
  -19.2451  -41.8507   -9.6057 C   0  0  0  0  0  0  0  0  0  0  0  0
  -18.1396  -41.7275   -7.4302 C   0  0  0  0  0  0  0  0  0  0  0  0
  -18.8298  -42.3012   -6.4971 O   0  0  0  0  0  0  0  0  0  0  0  0
  -17.5201  -40.5309   -7.0112 N   0  0  0  0  0  0  0  0  0  0  0  0
  -12.9576  -40.6399  -11.8988 C   0  0  0  0  0  0  0  0  0  0  0  0
  -12.8565  -39.9290  -13.0739 C   0  0  0  0  0  0  0  0  0  0  0  0
  -12.4285  -38.6112  -13.0740 C   0  0  0  0  0  0  0  0  0  0  0  0
  1  2  1  0
  2  3  1  0
  2  4  1  0
  4  5  2  0
  5  6  1  0
  6  7  1  0
  7  8  1  0
  8  9  1  0
  9 10  1  0
 10 11  1  6
 10 12  1  0
 12 13  1  1
 13 14  1  0
 14 15  1  1
 14 16  1  0
 16 17  1  0
 17 18  1  0
 18 19  1  0
 19 20  1  0
 20 21  1  0
 21 22  1  0
 22 23  1  0
 23 24  1  0
 24 25  1  1
 24 26  1  0
 26 27  1  0
 27 28  1  0
 29 28  1  6
 29 30  1  0
 29 31  1  0
 31 32  2  0
 31 33  1  0
  6 34  2  0
 34 35  1  0
 35 36  2  0
 30 24  1  0
 33 12  1  0
 36  4  1  0
M  END
$$$$
