
     RDKit          3D

 34 35  0  0  0  0  0  0  0  0999 V2000
  -19.1593  -40.0008   -5.9603 C   0  0  0  0  0  0  0  0  0  0  0  0
  -19.4846  -39.2669   -7.2191 C   0  0  2  0  0  0  0  0  0  0  0  0
  -21.0065  -39.1728   -7.4218 C   0  0  0  0  0  0  0  0  0  0  0  0
  -21.7417  -40.0253   -6.4322 C   0  0  0  0  0  0  0  0  0  0  0  0
  -23.0700  -40.4278   -7.0814 C   0  0  0  0  0  0  0  0  0  0  0  0
  -23.8544  -41.2756   -6.1233 C   0  0  0  0  0  0  0  0  0  0  0  0
  -23.0655  -42.4367   -5.5583 C   0  0  0  0  0  0  0  0  0  0  0  0
  -22.5961  -43.4105   -6.5884 C   0  0  0  0  0  0  0  0  0  0  0  0
  -21.3823  -44.0733   -6.1616 N   0  0  0  0  0  0  0  0  0  0  0  0
  -20.2715  -44.2769   -7.0309 C   0  0  0  0  0  0  0  0  0  0  0  0
  -19.4748  -45.1970   -6.7878 O   0  0  0  0  0  0  0  0  0  0  0  0
  -20.0609  -43.4004   -8.2208 C   0  0  0  0  0  0  0  0  0  0  0  0
  -18.5937  -43.4990   -8.6497 C   0  0  1  0  0  0  0  0  0  0  0  0
  -18.4932  -43.1122  -10.0991 C   0  0  0  0  0  0  0  0  0  0  0  0
  -17.6791  -42.8339   -7.7463 C   0  0  0  0  0  0  0  0  0  0  0  0
  -17.0389  -43.6256   -6.9544 O   0  0  0  0  0  0  0  0  0  0  0  0
  -17.3766  -41.4858   -7.5902 N   0  0  0  0  0  0  0  0  0  0  0  0
  -17.5638  -40.3766   -8.4765 C   0  0  1  0  0  0  0  0  0  0  0  0
  -18.8909  -39.7416   -8.4716 C   0  0  0  0  0  0  0  0  0  0  0  0
  -16.4192  -39.3884   -8.4054 C   0  0  2  0  0  0  0  0  0  0  0  0
  -16.7945  -38.0803   -8.2347 O   0  0  0  0  0  0  0  0  0  0  0  0
  -15.5005  -39.4520   -9.5967 C   0  0  0  0  0  0  0  0  0  0  0  0
  -14.1320  -39.2584   -9.2228 N   0  0  0  0  0  0  0  0  0  0  0  0
  -13.2277  -39.1570  -10.3328 C   0  0  0  0  0  0  0  0  0  0  0  0
  -13.5700  -37.9320  -11.1027 C   0  0  0  0  0  0  0  0  0  0  0  0
  -14.7653  -37.8276  -11.8084 C   0  0  0  0  0  0  0  0  0  0  0  0
  -15.0792  -36.6996  -12.5157 C   0  0  0  0  0  0  0  0  0  0  0  0
  -14.1866  -35.6268  -12.5344 C   0  0  0  0  0  0  0  0  0  0  0  0
  -12.9964  -35.7017  -11.8454 C   0  0  0  0  0  0  0  0  0  0  0  0
  -12.7070  -36.8439  -11.1449 C   0  0  0  0  0  0  0  0  0  0  0  0
  -12.0271  -34.5617  -11.8537 C   0  0  0  0  0  0  0  0  0  0  0  0
  -11.9892  -33.9083  -10.5006 C   0  0  0  0  0  0  0  0  0  0  0  0
  -12.5798  -33.5363  -12.8350 C   0  0  0  0  0  0  0  0  0  0  0  0
  -10.6622  -35.0280  -12.2736 C   0  0  0  0  0  0  0  0  0  0  0  0
  2  1  1  1
  2  3  1  0
  3  4  1  0
  4  5  1  0
  5  6  1  0
  6  7  1  0
  7  8  1  0
  8  9  1  0
  9 10  1  0
 10 11  2  0
 10 12  1  0
 12 13  1  0
 13 14  1  6
 13 15  1  0
 15 16  2  0
 15 17  1  0
 17 18  1  0
 18 19  1  1
 18 20  1  0
 20 21  1  6
 20 22  1  0
 22 23  1  0
 23 24  1  0
 24 25  1  0
 25 26  2  0
 26 27  1  0
 27 28  2  0
 28 29  1  0
 29 30  2  0
 29 31  1  0
 31 32  1  0
 31 33  1  0
 31 34  1  0
 19  2  1  0
 30 25  1  0
M  END
$$$$
