
     RDKit          3D

 34 35  0  0  0  0  0  0  0  0999 V2000
  -19.7830  -39.8421   -5.6375 C   0  0  0  0  0  0  0  0  0  0  0  0
  -20.2151  -39.2133   -6.9207 C   0  0  2  0  0  0  0  0  0  0  0  0
  -21.7464  -39.2500   -7.0615 C   0  0  0  0  0  0  0  0  0  0  0  0
  -22.3716  -40.0956   -5.9934 C   0  0  0  0  0  0  0  0  0  0  0  0
  -23.6878  -40.6384   -6.5595 C   0  0  0  0  0  0  0  0  0  0  0  0
  -24.3637  -41.4850   -5.5210 C   0  0  0  0  0  0  0  0  0  0  0  0
  -23.4628  -42.5452   -4.9256 C   0  0  0  0  0  0  0  0  0  0  0  0
  -22.9577  -43.5401   -5.9180 C   0  0  0  0  0  0  0  0  0  0  0  0
  -21.6788  -44.0796   -5.5077 N   0  0  0  0  0  0  0  0  0  0  0  0
  -20.5903  -44.2486   -6.4118 C   0  0  0  0  0  0  0  0  0  0  0  0
  -19.7136  -45.0877   -6.1517 O   0  0  0  0  0  0  0  0  0  0  0  0
  -20.4974  -43.4320   -7.6580 C   0  0  0  0  0  0  0  0  0  0  0  0
  -19.0450  -43.4422   -8.1446 C   0  0  1  0  0  0  0  0  0  0  0  0
  -19.0327  -43.1371   -9.6167 C   0  0  0  0  0  0  0  0  0  0  0  0
  -18.1519  -42.6546   -7.3217 C   0  0  0  0  0  0  0  0  0  0  0  0
  -17.4197  -43.3449   -6.5146 O   0  0  0  0  0  0  0  0  0  0  0  0
  -17.9524  -41.2802   -7.2564 N   0  0  0  0  0  0  0  0  0  0  0  0
  -18.2625  -40.2446   -8.1956 C   0  0  1  0  0  0  0  0  0  0  0  0
  -19.6349  -39.7153   -8.1688 C   0  0  0  0  0  0  0  0  0  0  0  0
  -17.1987  -39.1680   -8.2315 C   0  0  2  0  0  0  0  0  0  0  0  0
  -17.6733  -37.8914   -8.3933 O   0  0  0  0  0  0  0  0  0  0  0  0
  -16.1455  -39.4039   -9.2813 C   0  0  0  0  0  0  0  0  0  0  0  0
  -14.8353  -39.0843   -8.8004 N   0  0  0  0  0  0  0  0  0  0  0  0
  -14.4197  -37.7383   -9.0760 C   0  0  0  0  0  0  0  0  0  0  0  0
  -14.3776  -37.5563  -10.5510 C   0  0  0  0  0  0  0  0  0  0  0  0
  -15.5414  -37.5375  -11.3144 C   0  0  0  0  0  0  0  0  0  0  0  0
  -15.5011  -37.3692  -12.6714 C   0  0  0  0  0  0  0  0  0  0  0  0
  -14.2702  -37.2123  -13.3103 C   0  0  0  0  0  0  0  0  0  0  0  0
  -13.1022  -37.2267  -12.5807 C   0  0  0  0  0  0  0  0  0  0  0  0
  -13.1715  -37.3971  -11.2224 C   0  0  0  0  0  0  0  0  0  0  0  0
  -11.7734  -37.0600  -13.2483 C   0  0  0  0  0  0  0  0  0  0  0  0
  -11.0459  -38.3749  -13.2828 C   0  0  0  0  0  0  0  0  0  0  0  0
  -10.9645  -36.1197  -12.3642 C   0  0  0  0  0  0  0  0  0  0  0  0
  -11.9400  -36.4914  -14.6287 C   0  0  0  0  0  0  0  0  0  0  0  0
  2  1  1  1
  2  3  1  0
  3  4  1  0
  4  5  1  0
  5  6  1  0
  6  7  1  0
  7  8  1  0
  8  9  1  0
  9 10  1  0
 10 11  2  0
 10 12  1  0
 12 13  1  0
 13 14  1  6
 13 15  1  0
 15 16  2  0
 15 17  1  0
 17 18  1  0
 18 19  1  1
 18 20  1  0
 20 21  1  6
 20 22  1  0
 22 23  1  0
 23 24  1  0
 24 25  1  0
 25 26  2  0
 26 27  1  0
 27 28  2  0
 28 29  1  0
 29 30  2  0
 29 31  1  0
 31 32  1  0
 31 33  1  0
 31 34  1  0
 19  2  1  0
 30 25  1  0
M  END
$$$$
