
     RDKit          3D

 34 35  0  0  0  0  0  0  0  0999 V2000
  -19.1175  -39.5941   -5.6752 C   0  0  0  0  0  0  0  0  0  0  0  0
  -19.2114  -38.8400   -6.9603 C   0  0  2  0  0  0  0  0  0  0  0  0
  -20.6768  -38.6939   -7.4049 C   0  0  0  0  0  0  0  0  0  0  0  0
  -21.5889  -39.5293   -6.5583 C   0  0  0  0  0  0  0  0  0  0  0  0
  -22.8066  -39.8824   -7.4186 C   0  0  0  0  0  0  0  0  0  0  0  0
  -23.7620  -40.7112   -6.6110 C   0  0  0  0  0  0  0  0  0  0  0  0
  -23.1119  -41.9023   -5.9412 C   0  0  0  0  0  0  0  0  0  0  0  0
  -22.5128  -42.8830   -6.8947 C   0  0  0  0  0  0  0  0  0  0  0  0
  -21.4055  -43.5890   -6.2861 N   0  0  0  0  0  0  0  0  0  0  0  0
  -20.1756  -43.8225   -6.9672 C   0  0  0  0  0  0  0  0  0  0  0  0
  -19.4581  -44.7703   -6.6107 O   0  0  0  0  0  0  0  0  0  0  0  0
  -19.7477  -42.9441   -8.0959 C   0  0  0  0  0  0  0  0  0  0  0  0
  -18.2343  -43.0880   -8.2835 C   0  0  1  0  0  0  0  0  0  0  0  0
  -17.8884  -42.6934   -9.6924 C   0  0  0  0  0  0  0  0  0  0  0  0
  -17.4575  -42.4606   -7.2356 C   0  0  0  0  0  0  0  0  0  0  0  0
  -16.9791  -43.2793   -6.3611 O   0  0  0  0  0  0  0  0  0  0  0  0
  -17.1421  -41.1246   -7.0151 N   0  0  0  0  0  0  0  0  0  0  0  0
  -17.1484  -40.0029   -7.9054 C   0  0  1  0  0  0  0  0  0  0  0  0
  -18.4381  -39.3243   -8.1065 C   0  0  0  0  0  0  0  0  0  0  0  0
  -15.9998  -39.0538   -7.6374 C   0  0  2  0  0  0  0  0  0  0  0  0
  -15.8750  -38.0281   -8.5393 O   0  0  0  0  0  0  0  0  0  0  0  0
  -14.6655  -39.7442   -7.5380 C   0  0  0  0  0  0  0  0  0  0  0  0
  -13.7816  -39.3457   -8.5917 N   0  0  0  0  0  0  0  0  0  0  0  0
  -13.4119  -37.9592   -8.5565 C   0  0  0  0  0  0  0  0  0  0  0  0
  -13.5517  -37.4045   -9.9289 C   0  0  0  0  0  0  0  0  0  0  0  0
  -13.9290  -36.0820  -10.1432 C   0  0  0  0  0  0  0  0  0  0  0  0
  -14.0566  -35.5729  -11.4065 C   0  0  0  0  0  0  0  0  0  0  0  0
  -13.8044  -36.3915  -12.5083 C   0  0  0  0  0  0  0  0  0  0  0  0
  -13.4293  -37.7042  -12.3269 C   0  0  0  0  0  0  0  0  0  0  0  0
  -13.3093  -38.1885  -11.0501 C   0  0  0  0  0  0  0  0  0  0  0  0
  -13.1548  -38.5969  -13.4960 C   0  0  0  0  0  0  0  0  0  0  0  0
  -14.1593  -39.7142  -13.5378 C   0  0  0  0  0  0  0  0  0  0  0  0
  -11.7904  -39.2256  -13.2441 C   0  0  0  0  0  0  0  0  0  0  0  0
  -13.1577  -37.8113  -14.7764 C   0  0  0  0  0  0  0  0  0  0  0  0
  2  1  1  1
  2  3  1  0
  3  4  1  0
  4  5  1  0
  5  6  1  0
  6  7  1  0
  7  8  1  0
  8  9  1  0
  9 10  1  0
 10 11  2  0
 10 12  1  0
 12 13  1  0
 13 14  1  6
 13 15  1  0
 15 16  2  0
 15 17  1  0
 17 18  1  0
 18 19  1  1
 18 20  1  0
 20 21  1  6
 20 22  1  0
 22 23  1  0
 23 24  1  0
 24 25  1  0
 25 26  2  0
 26 27  1  0
 27 28  2  0
 28 29  1  0
 29 30  2  0
 29 31  1  0
 31 32  1  0
 31 33  1  0
 31 34  1  0
 19  2  1  0
 30 25  1  0
M  END
$$$$
