
     RDKit          3D

 34 35  0  0  0  0  0  0  0  0999 V2000
  -19.0516  -40.1524   -5.7081 C   0  0  0  0  0  0  0  0  0  0  0  0
  -19.2708  -39.3962   -6.9765 C   0  0  2  0  0  0  0  0  0  0  0  0
  -20.7693  -39.3132   -7.3139 C   0  0  0  0  0  0  0  0  0  0  0  0
  -21.5805  -40.1932   -6.4115 C   0  0  0  0  0  0  0  0  0  0  0  0
  -22.8400  -40.5956   -7.1857 C   0  0  0  0  0  0  0  0  0  0  0  0
  -23.6975  -41.4707   -6.3190 C   0  0  0  0  0  0  0  0  0  0  0  0
  -22.9489  -42.6353   -5.7080 C   0  0  0  0  0  0  0  0  0  0  0  0
  -22.3771  -43.5829   -6.7104 C   0  0  0  0  0  0  0  0  0  0  0  0
  -21.1989  -44.2420   -6.1888 N   0  0  0  0  0  0  0  0  0  0  0  0
  -20.0120  -44.4166   -6.9581 C   0  0  0  0  0  0  0  0  0  0  0  0
  -19.2296  -45.3334   -6.6621 O   0  0  0  0  0  0  0  0  0  0  0  0
  -19.7055  -43.5137   -8.1068 C   0  0  0  0  0  0  0  0  0  0  0  0
  -18.2046  -43.5888   -8.4033 C   0  0  1  0  0  0  0  0  0  0  0  0
  -17.9786  -43.1712   -9.8299 C   0  0  0  0  0  0  0  0  0  0  0  0
  -17.3830  -42.9332   -7.4082 C   0  0  0  0  0  0  0  0  0  0  0  0
  -16.8073  -43.7345   -6.5773 O   0  0  0  0  0  0  0  0  0  0  0  0
  -17.1118  -41.5856   -7.1991 N   0  0  0  0  0  0  0  0  0  0  0  0
  -17.2317  -40.4604   -8.0768 C   0  0  1  0  0  0  0  0  0  0  0  0
  -18.5612  -39.8390   -8.1793 C   0  0  0  0  0  0  0  0  0  0  0  0
  -16.1098  -39.4624   -7.8834 C   0  0  2  0  0  0  0  0  0  0  0  0
  -16.3563  -38.2108   -8.3871 O   0  0  0  0  0  0  0  0  0  0  0  0
  -14.7914  -39.9309   -8.4394 C   0  0  0  0  0  0  0  0  0  0  0  0
  -14.7999  -39.9624   -9.8709 N   0  0  0  0  0  0  0  0  0  0  0  0
  -13.5318  -39.6637  -10.4734 C   0  0  0  0  0  0  0  0  0  0  0  0
  -13.6907  -38.4493  -11.3164 C   0  0  0  0  0  0  0  0  0  0  0  0
  -14.5989  -38.4102  -12.3705 C   0  0  0  0  0  0  0  0  0  0  0  0
  -14.7445  -37.2919  -13.1448 C   0  0  0  0  0  0  0  0  0  0  0  0
  -13.9691  -36.1626  -12.8775 C   0  0  0  0  0  0  0  0  0  0  0  0
  -13.0623  -36.1723  -11.8410 C   0  0  0  0  0  0  0  0  0  0  0  0
  -12.9367  -37.3062  -11.0811 C   0  0  0  0  0  0  0  0  0  0  0  0
  -12.2224  -34.9711  -11.5394 C   0  0  0  0  0  0  0  0  0  0  0  0
  -12.5281  -34.4627  -10.1583 C   0  0  0  0  0  0  0  0  0  0  0  0
  -12.6509  -33.8904  -12.5235 C   0  0  0  0  0  0  0  0  0  0  0  0
  -10.7628  -35.2914  -11.6930 C   0  0  0  0  0  0  0  0  0  0  0  0
  2  1  1  1
  2  3  1  0
  3  4  1  0
  4  5  1  0
  5  6  1  0
  6  7  1  0
  7  8  1  0
  8  9  1  0
  9 10  1  0
 10 11  2  0
 10 12  1  0
 12 13  1  0
 13 14  1  6
 13 15  1  0
 15 16  2  0
 15 17  1  0
 17 18  1  0
 18 19  1  1
 18 20  1  0
 20 21  1  6
 20 22  1  0
 22 23  1  0
 23 24  1  0
 24 25  1  0
 25 26  2  0
 26 27  1  0
 27 28  2  0
 28 29  1  0
 29 30  2  0
 29 31  1  0
 31 32  1  0
 31 33  1  0
 31 34  1  0
 19  2  1  0
 30 25  1  0
M  END
$$$$
