
     RDKit          3D

 34 35  0  0  0  0  0  0  0  0999 V2000
  -18.9494  -39.7851   -5.8133 C   0  0  0  0  0  0  0  0  0  0  0  0
  -19.1648  -39.1408   -7.1427 C   0  0  2  0  0  0  0  0  0  0  0  0
  -20.6642  -38.9302   -7.4139 C   0  0  0  0  0  0  0  0  0  0  0  0
  -21.5064  -39.6220   -6.3850 C   0  0  0  0  0  0  0  0  0  0  0  0
  -22.8444  -39.9612   -7.0500 C   0  0  0  0  0  0  0  0  0  0  0  0
  -23.7342  -40.6468   -6.0548 C   0  0  0  0  0  0  0  0  0  0  0  0
  -23.0743  -41.8183   -5.3606 C   0  0  0  0  0  0  0  0  0  0  0  0
  -22.6636  -42.9182   -6.2833 C   0  0  0  0  0  0  0  0  0  0  0  0
  -21.5304  -43.6455   -5.7524 N   0  0  0  0  0  0  0  0  0  0  0  0
  -20.4156  -44.0240   -6.5555 C   0  0  0  0  0  0  0  0  0  0  0  0
  -19.7153  -44.9858   -6.2022 O   0  0  0  0  0  0  0  0  0  0  0  0
  -20.0868  -43.2796   -7.8071 C   0  0  0  0  0  0  0  0  0  0  0  0
  -18.6219  -43.5463   -8.1664 C   0  0  1  0  0  0  0  0  0  0  0  0
  -18.4394  -43.3011   -9.6385 C   0  0  0  0  0  0  0  0  0  0  0  0
  -17.6796  -42.8870   -7.2876 C   0  0  0  0  0  0  0  0  0  0  0  0
  -17.1409  -43.6585   -6.4052 O   0  0  0  0  0  0  0  0  0  0  0  0
  -17.2594  -41.5627   -7.2361 N   0  0  0  0  0  0  0  0  0  0  0  0
  -17.3149  -40.5249   -8.2215 C   0  0  1  0  0  0  0  0  0  0  0  0
  -18.5773  -39.7765   -8.3247 C   0  0  0  0  0  0  0  0  0  0  0  0
  -16.0869  -39.6400   -8.1897 C   0  0  2  0  0  0  0  0  0  0  0  0
  -16.3302  -38.3060   -8.3950 O   0  0  0  0  0  0  0  0  0  0  0  0
  -15.0176  -40.0675   -9.1597 C   0  0  0  0  0  0  0  0  0  0  0  0
  -13.7328  -39.5514   -8.7950 N   0  0  0  0  0  0  0  0  0  0  0  0
  -12.6445  -40.0856   -9.5635 C   0  0  0  0  0  0  0  0  0  0  0  0
  -12.6149  -39.3888  -10.8766 C   0  0  0  0  0  0  0  0  0  0  0  0
  -12.6838  -40.0936  -12.0749 C   0  0  0  0  0  0  0  0  0  0  0  0
  -12.6571  -39.4510  -13.2823 C   0  0  0  0  0  0  0  0  0  0  0  0
  -12.5590  -38.0593  -13.3205 C   0  0  0  0  0  0  0  0  0  0  0  0
  -12.4892  -37.3356  -12.1507 C   0  0  0  0  0  0  0  0  0  0  0  0
  -12.5179  -38.0050  -10.9549 C   0  0  0  0  0  0  0  0  0  0  0  0
  -12.3838  -35.8431  -12.1719 C   0  0  0  0  0  0  0  0  0  0  0  0
  -13.5889  -35.2324  -11.5132 C   0  0  0  0  0  0  0  0  0  0  0  0
  -12.4139  -35.4321  -13.6383 C   0  0  0  0  0  0  0  0  0  0  0  0
  -11.1124  -35.3910  -11.5118 C   0  0  0  0  0  0  0  0  0  0  0  0
  2  1  1  1
  2  3  1  0
  3  4  1  0
  4  5  1  0
  5  6  1  0
  6  7  1  0
  7  8  1  0
  8  9  1  0
  9 10  1  0
 10 11  2  0
 10 12  1  0
 12 13  1  0
 13 14  1  6
 13 15  1  0
 15 16  2  0
 15 17  1  0
 17 18  1  0
 18 19  1  1
 18 20  1  0
 20 21  1  6
 20 22  1  0
 22 23  1  0
 23 24  1  0
 24 25  1  0
 25 26  2  0
 26 27  1  0
 27 28  2  0
 28 29  1  0
 29 30  2  0
 29 31  1  0
 31 32  1  0
 31 33  1  0
 31 34  1  0
 19  2  1  0
 30 25  1  0
M  END
$$$$
