
     RDKit          3D

 34 35  0  0  0  0  0  0  0  0999 V2000
  -19.2127  -40.2496   -5.3143 C   0  0  0  0  0  0  0  0  0  0  0  0
  -19.3007  -39.4196   -6.5522 C   0  0  2  0  0  0  0  0  0  0  0  0
  -20.7658  -39.2208   -6.9766 C   0  0  0  0  0  0  0  0  0  0  0  0
  -21.6881  -40.0877   -6.1737 C   0  0  0  0  0  0  0  0  0  0  0  0
  -22.9176  -40.3672   -7.0442 C   0  0  0  0  0  0  0  0  0  0  0  0
  -23.8833  -41.2244   -6.2795 C   0  0  0  0  0  0  0  0  0  0  0  0
  -23.2513  -42.4646   -5.6857 C   0  0  0  0  0  0  0  0  0  0  0  0
  -22.6768  -43.3983   -6.6995 C   0  0  0  0  0  0  0  0  0  0  0  0
  -21.5790  -44.1590   -6.1417 N   0  0  0  0  0  0  0  0  0  0  0  0
  -20.3581  -44.3745   -6.8444 C   0  0  0  0  0  0  0  0  0  0  0  0
  -19.6562  -45.3547   -6.5495 O   0  0  0  0  0  0  0  0  0  0  0  0
  -19.9210  -43.4393   -7.9228 C   0  0  0  0  0  0  0  0  0  0  0  0
  -18.4117  -43.5996   -8.1297 C   0  0  1  0  0  0  0  0  0  0  0  0
  -18.0675  -43.1292   -9.5156 C   0  0  0  0  0  0  0  0  0  0  0  0
  -17.6167  -43.0493   -7.0526 C   0  0  0  0  0  0  0  0  0  0  0  0
  -17.1482  -43.9267   -6.2312 O   0  0  0  0  0  0  0  0  0  0  0  0
  -17.2749  -41.7346   -6.7564 N   0  0  0  0  0  0  0  0  0  0  0  0
  -17.2658  -40.5625   -7.5792 C   0  0  1  0  0  0  0  0  0  0  0  0
  -18.5439  -39.8497   -7.7306 C   0  0  0  0  0  0  0  0  0  0  0  0
  -16.0980  -39.6520   -7.2645 C   0  0  2  0  0  0  0  0  0  0  0  0
  -16.4434  -38.3905   -6.8518 O   0  0  0  0  0  0  0  0  0  0  0  0
  -15.1251  -39.5128   -8.4052 C   0  0  0  0  0  0  0  0  0  0  0  0
  -15.3165  -40.5310   -9.3936 N   0  0  0  0  0  0  0  0  0  0  0  0
  -14.2926  -40.5752  -10.3985 C   0  0  0  0  0  0  0  0  0  0  0  0
  -14.5011  -39.4329  -11.3270 C   0  0  0  0  0  0  0  0  0  0  0  0
  -15.4225  -39.5014  -12.3681 C   0  0  0  0  0  0  0  0  0  0  0  0
  -15.6137  -38.4493  -13.2212 C   0  0  0  0  0  0  0  0  0  0  0  0
  -14.8725  -37.2792  -13.0497 C   0  0  0  0  0  0  0  0  0  0  0  0
  -13.9536  -37.1827  -12.0283 C   0  0  0  0  0  0  0  0  0  0  0  0
  -13.7820  -38.2521  -11.1881 C   0  0  0  0  0  0  0  0  0  0  0  0
  -13.1499  -35.9363  -11.8288 C   0  0  0  0  0  0  0  0  0  0  0  0
  -11.7004  -36.2839  -11.6347 C   0  0  0  0  0  0  0  0  0  0  0  0
  -13.6424  -35.3121  -10.5297 C   0  0  0  0  0  0  0  0  0  0  0  0
  -13.3358  -34.9938  -12.9837 C   0  0  0  0  0  0  0  0  0  0  0  0
  2  1  1  1
  2  3  1  0
  3  4  1  0
  4  5  1  0
  5  6  1  0
  6  7  1  0
  7  8  1  0
  8  9  1  0
  9 10  1  0
 10 11  2  0
 10 12  1  0
 12 13  1  0
 13 14  1  6
 13 15  1  0
 15 16  2  0
 15 17  1  0
 17 18  1  0
 18 19  1  1
 18 20  1  0
 20 21  1  6
 20 22  1  0
 22 23  1  0
 23 24  1  0
 24 25  1  0
 25 26  2  0
 26 27  1  0
 27 28  2  0
 28 29  1  0
 29 30  2  0
 29 31  1  0
 31 32  1  0
 31 33  1  0
 31 34  1  0
 19  2  1  0
 30 25  1  0
M  END
$$$$
