
     RDKit          3D

 34 35  0  0  0  0  0  0  0  0999 V2000
  -18.9469  -39.6081   -5.9236 C   0  0  0  0  0  0  0  0  0  0  0  0
  -19.1492  -39.0990   -7.3123 C   0  0  2  0  0  0  0  0  0  0  0  0
  -20.6470  -38.9488   -7.6290 C   0  0  0  0  0  0  0  0  0  0  0  0
  -21.4950  -39.5576   -6.5534 C   0  0  0  0  0  0  0  0  0  0  0  0
  -22.8124  -39.9887   -7.2064 C   0  0  0  0  0  0  0  0  0  0  0  0
  -23.7074  -40.5956   -6.1658 C   0  0  0  0  0  0  0  0  0  0  0  0
  -23.0374  -41.6803   -5.3506 C   0  0  0  0  0  0  0  0  0  0  0  0
  -22.5861  -42.8540   -6.1559 C   0  0  0  0  0  0  0  0  0  0  0  0
  -21.4488  -43.5016   -5.5377 N   0  0  0  0  0  0  0  0  0  0  0  0
  -20.3109  -43.9302   -6.2808 C   0  0  0  0  0  0  0  0  0  0  0  0
  -19.5981  -44.8379   -5.8243 O   0  0  0  0  0  0  0  0  0  0  0  0
  -19.9727  -43.3018   -7.5921 C   0  0  0  0  0  0  0  0  0  0  0  0
  -18.4958  -43.5689   -7.8982 C   0  0  1  0  0  0  0  0  0  0  0  0
  -18.2894  -43.4617   -9.3836 C   0  0  0  0  0  0  0  0  0  0  0  0
  -17.5848  -42.8077   -7.0702 C   0  0  0  0  0  0  0  0  0  0  0  0
  -17.0480  -43.4790   -6.1084 O   0  0  0  0  0  0  0  0  0  0  0  0
  -17.1930  -41.4754   -7.1388 N   0  0  0  0  0  0  0  0  0  0  0  0
  -17.2503  -40.5383   -8.2201 C   0  0  1  0  0  0  0  0  0  0  0  0
  -18.5255  -39.8316   -8.4172 C   0  0  0  0  0  0  0  0  0  0  0  0
  -16.0417  -39.6272   -8.2518 C   0  0  2  0  0  0  0  0  0  0  0  0
  -16.3247  -38.2880   -8.1648 O   0  0  0  0  0  0  0  0  0  0  0  0
  -15.1685  -39.8354   -9.4606 C   0  0  0  0  0  0  0  0  0  0  0  0
  -13.7910  -39.9877   -9.1007 N   0  0  0  0  0  0  0  0  0  0  0  0
  -12.9460  -40.4198  -10.1775 C   0  0  0  0  0  0  0  0  0  0  0  0
  -13.1562  -39.5054  -11.3309 C   0  0  0  0  0  0  0  0  0  0  0  0
  -13.7710  -39.9413  -12.5011 C   0  0  0  0  0  0  0  0  0  0  0  0
  -13.9644  -39.0986  -13.5612 C   0  0  0  0  0  0  0  0  0  0  0  0
  -13.5387  -37.7723  -13.4741 C   0  0  0  0  0  0  0  0  0  0  0  0
  -12.9274  -37.3130  -12.3286 C   0  0  0  0  0  0  0  0  0  0  0  0
  -12.7461  -38.1788  -11.2816 C   0  0  0  0  0  0  0  0  0  0  0  0
  -12.4644  -35.8944  -12.2169 C   0  0  0  0  0  0  0  0  0  0  0  0
  -13.1342  -35.2246  -11.0499 C   0  0  0  0  0  0  0  0  0  0  0  0
  -12.9420  -35.1870  -13.4785 C   0  0  0  0  0  0  0  0  0  0  0  0
  -10.9682  -35.8317  -12.0979 C   0  0  0  0  0  0  0  0  0  0  0  0
  2  1  1  1
  2  3  1  0
  3  4  1  0
  4  5  1  0
  5  6  1  0
  6  7  1  0
  7  8  1  0
  8  9  1  0
  9 10  1  0
 10 11  2  0
 10 12  1  0
 12 13  1  0
 13 14  1  6
 13 15  1  0
 15 16  2  0
 15 17  1  0
 17 18  1  0
 18 19  1  1
 18 20  1  0
 20 21  1  6
 20 22  1  0
 22 23  1  0
 23 24  1  0
 24 25  1  0
 25 26  2  0
 26 27  1  0
 27 28  2  0
 28 29  1  0
 29 30  2  0
 29 31  1  0
 31 32  1  0
 31 33  1  0
 31 34  1  0
 19  2  1  0
 30 25  1  0
M  END
$$$$
