
     RDKit          3D

 34 35  0  0  0  0  0  0  0  0999 V2000
  -18.8408  -39.9709   -5.6115 C   0  0  0  0  0  0  0  0  0  0  0  0
  -19.1023  -39.2534   -6.8943 C   0  0  2  0  0  0  0  0  0  0  0  0
  -20.6071  -38.9957   -7.0821 C   0  0  0  0  0  0  0  0  0  0  0  0
  -21.4170  -39.7214   -6.0506 C   0  0  0  0  0  0  0  0  0  0  0  0
  -22.7927  -39.9956   -6.6671 C   0  0  0  0  0  0  0  0  0  0  0  0
  -23.6515  -40.7123   -5.6667 C   0  0  0  0  0  0  0  0  0  0  0  0
  -22.9889  -41.9328   -5.0657 C   0  0  0  0  0  0  0  0  0  0  0  0
  -22.6491  -42.9919   -6.0620 C   0  0  0  0  0  0  0  0  0  0  0  0
  -21.5105  -43.7709   -5.6240 N   0  0  0  0  0  0  0  0  0  0  0  0
  -20.4442  -44.1316   -6.4980 C   0  0  0  0  0  0  0  0  0  0  0  0
  -19.7521  -45.1259   -6.2283 O   0  0  0  0  0  0  0  0  0  0  0  0
  -20.1561  -43.3304   -7.7242 C   0  0  0  0  0  0  0  0  0  0  0  0
  -18.7166  -43.6104   -8.1667 C   0  0  1  0  0  0  0  0  0  0  0  0
  -18.5972  -43.2928   -9.6314 C   0  0  0  0  0  0  0  0  0  0  0  0
  -17.7182  -43.0190   -7.3015 C   0  0  0  0  0  0  0  0  0  0  0  0
  -17.1581  -43.8473   -6.4866 O   0  0  0  0  0  0  0  0  0  0  0  0
  -17.2636  -41.7088   -7.2027 N   0  0  0  0  0  0  0  0  0  0  0  0
  -17.3395  -40.6201   -8.1299 C   0  0  1  0  0  0  0  0  0  0  0  0
  -18.5865  -39.8394   -8.1341 C   0  0  0  0  0  0  0  0  0  0  0  0
  -16.0900  -39.7655   -8.1120 C   0  0  2  0  0  0  0  0  0  0  0  0
  -16.2767  -38.4774   -7.6794 O   0  0  0  0  0  0  0  0  0  0  0  0
  -15.3875  -39.7069   -9.4425 C   0  0  0  0  0  0  0  0  0  0  0  0
  -13.9682  -39.5956   -9.2891 N   0  0  0  0  0  0  0  0  0  0  0  0
  -13.2296  -39.7672  -10.5078 C   0  0  0  0  0  0  0  0  0  0  0  0
  -13.0473  -38.4312  -11.1344 C   0  0  0  0  0  0  0  0  0  0  0  0
  -11.8146  -37.7849  -11.1220 C   0  0  0  0  0  0  0  0  0  0  0  0
  -11.6483  -36.5560  -11.6995 C   0  0  0  0  0  0  0  0  0  0  0  0
  -12.7335  -35.9315  -12.3161 C   0  0  0  0  0  0  0  0  0  0  0  0
  -13.9652  -36.5471  -12.3438 C   0  0  0  0  0  0  0  0  0  0  0  0
  -14.1039  -37.7783  -11.7573 C   0  0  0  0  0  0  0  0  0  0  0  0
  -15.1401  -35.8930  -13.0003 C   0  0  0  0  0  0  0  0  0  0  0  0
  -16.3385  -35.9596  -12.0953 C   0  0  0  0  0  0  0  0  0  0  0  0
  -15.4599  -36.7258  -14.2349 C   0  0  0  0  0  0  0  0  0  0  0  0
  -14.8172  -34.4748  -13.3760 C   0  0  0  0  0  0  0  0  0  0  0  0
  2  1  1  1
  2  3  1  0
  3  4  1  0
  4  5  1  0
  5  6  1  0
  6  7  1  0
  7  8  1  0
  8  9  1  0
  9 10  1  0
 10 11  2  0
 10 12  1  0
 12 13  1  0
 13 14  1  6
 13 15  1  0
 15 16  2  0
 15 17  1  0
 17 18  1  0
 18 19  1  1
 18 20  1  0
 20 21  1  6
 20 22  1  0
 22 23  1  0
 23 24  1  0
 24 25  1  0
 25 26  2  0
 26 27  1  0
 27 28  2  0
 28 29  1  0
 29 30  2  0
 29 31  1  0
 31 32  1  0
 31 33  1  0
 31 34  1  0
 19  2  1  0
 30 25  1  0
M  END
$$$$
