
     RDKit          3D

 34 35  0  0  0  0  0  0  0  0999 V2000
  -13.0700  -39.8933   -9.4411 C   0  0  0  0  0  0  0  0  0  0  0  0
  -13.3296  -40.3086   -8.0308 C   0  0  2  0  0  0  0  0  0  0  0  0
  -12.2600  -41.3019   -7.5455 C   0  0  0  0  0  0  0  0  0  0  0  0
  -11.3837  -41.7537   -8.6746 C   0  0  0  0  0  0  0  0  0  0  0  0
  -10.8666  -43.1502   -8.3144 C   0  0  0  0  0  0  0  0  0  0  0  0
   -9.9696  -43.6459   -9.4106 C   0  0  0  0  0  0  0  0  0  0  0  0
  -10.5900  -43.5525  -10.7877 C   0  0  0  0  0  0  0  0  0  0  0  0
  -11.8307  -44.3672  -10.9514 C   0  0  0  0  0  0  0  0  0  0  0  0
  -12.7058  -43.7861  -11.9472 N   0  0  0  0  0  0  0  0  0  0  0  0
  -14.1128  -43.6643  -11.7564 C   0  0  0  0  0  0  0  0  0  0  0  0
  -14.8529  -43.5890  -12.7499 O   0  0  0  0  0  0  0  0  0  0  0  0
  -14.6981  -43.6270  -10.3836 C   0  0  0  0  0  0  0  0  0  0  0  0
  -16.0914  -42.9952  -10.4608 C   0  0  1  0  0  0  0  0  0  0  0  0
  -16.8881  -43.4496   -9.2695 C   0  0  0  0  0  0  0  0  0  0  0  0
  -16.0689  -41.5693  -10.7080 C   0  0  0  0  0  0  0  0  0  0  0  0
  -16.3354  -41.2328  -11.9244 O   0  0  0  0  0  0  0  0  0  0  0  0
  -15.8081  -40.5037   -9.8538 N   0  0  0  0  0  0  0  0  0  0  0  0
  -15.8463  -40.4196   -8.4248 C   0  0  1  0  0  0  0  0  0  0  0  0
  -14.6445  -40.8652   -7.7027 C   0  0  0  0  0  0  0  0  0  0  0  0
  -16.3826  -39.0877   -7.9445 C   0  0  2  0  0  0  0  0  0  0  0  0
  -15.8078  -38.6145   -6.7926 O   0  0  0  0  0  0  0  0  0  0  0  0
  -17.8757  -39.0801   -7.7507 C   0  0  0  0  0  0  0  0  0  0  0  0
  -18.5476  -38.4189   -8.8285 N   0  0  0  0  0  0  0  0  0  0  0  0
  -19.7124  -37.6804   -8.4307 C   0  0  0  0  0  0  0  0  0  0  0  0
  -20.8707  -38.6123   -8.4100 C   0  0  0  0  0  0  0  0  0  0  0  0
  -21.5232  -38.9866   -9.5812 C   0  0  0  0  0  0  0  0  0  0  0  0
  -22.5884  -39.8447   -9.5606 C   0  0  0  0  0  0  0  0  0  0  0  0
  -23.0354  -40.3596   -8.3428 C   0  0  0  0  0  0  0  0  0  0  0  0
  -22.4092  -40.0069   -7.1679 C   0  0  0  0  0  0  0  0  0  0  0  0
  -21.3443  -39.1452   -7.2175 C   0  0  0  0  0  0  0  0  0  0  0  0
  -22.8743  -40.5488   -5.8529 C   0  0  0  0  0  0  0  0  0  0  0  0
  -24.3765  -40.5578   -5.8020 C   0  0  0  0  0  0  0  0  0  0  0  0
  -22.3924  -39.5690   -4.7910 C   0  0  0  0  0  0  0  0  0  0  0  0
  -22.3114  -41.9211   -5.6149 C   0  0  0  0  0  0  0  0  0  0  0  0
  2  1  1  6
  2  3  1  0
  3  4  1  0
  4  5  1  0
  5  6  1  0
  6  7  1  0
  7  8  1  0
  8  9  1  0
  9 10  1  0
 10 11  2  0
 10 12  1  0
 12 13  1  0
 13 14  1  1
 13 15  1  0
 15 16  2  0
 15 17  1  0
 17 18  1  0
 18 19  1  1
 18 20  1  0
 20 21  1  1
 20 22  1  0
 22 23  1  0
 23 24  1  0
 24 25  1  0
 25 26  2  0
 26 27  1  0
 27 28  2  0
 28 29  1  0
 29 30  2  0
 29 31  1  0
 31 32  1  0
 31 33  1  0
 31 34  1  0
 19  2  1  0
 30 25  1  0
M  END
$$$$
