
     RDKit          3D

 34 35  0  0  0  0  0  0  0  0999 V2000
  -19.2982  -38.5559   -6.5251 C   0  0  0  0  0  0  0  0  0  0  0  0
  -20.2909  -38.4192   -7.6318 C   0  0  2  0  0  0  0  0  0  0  0  0
  -21.7074  -38.7691   -7.1447 C   0  0  0  0  0  0  0  0  0  0  0  0
  -21.6793  -39.3618   -5.7682 C   0  0  0  0  0  0  0  0  0  0  0  0
  -22.9045  -40.2733   -5.6437 C   0  0  0  0  0  0  0  0  0  0  0  0
  -22.9316  -40.8847   -4.2734 C   0  0  0  0  0  0  0  0  0  0  0  0
  -21.6277  -41.5443   -3.8800 C   0  0  0  0  0  0  0  0  0  0  0  0
  -21.2300  -42.6793   -4.7650 C   0  0  0  0  0  0  0  0  0  0  0  0
  -19.7915  -42.8365   -4.7931 N   0  0  0  0  0  0  0  0  0  0  0  0
  -19.0669  -43.0656   -5.9987 C   0  0  0  0  0  0  0  0  0  0  0  0
  -17.9581  -43.6203   -5.9410 O   0  0  0  0  0  0  0  0  0  0  0  0
  -19.6262  -42.6477   -7.3183 C   0  0  0  0  0  0  0  0  0  0  0  0
  -18.4778  -42.5400   -8.3263 C   0  0  1  0  0  0  0  0  0  0  0  0
  -19.0440  -42.6833   -9.7117 C   0  0  0  0  0  0  0  0  0  0  0  0
  -17.6154  -41.3991   -8.1036 C   0  0  0  0  0  0  0  0  0  0  0  0
  -16.4949  -41.6795   -7.5294 O   0  0  0  0  0  0  0  0  0  0  0  0
  -17.7937  -40.0536   -8.4049 N   0  0  0  0  0  0  0  0  0  0  0  0
  -18.6737  -39.4121   -9.3349 C   0  0  1  0  0  0  0  0  0  0  0  0
  -20.0474  -39.1530   -8.8763 C   0  0  0  0  0  0  0  0  0  0  0  0
  -18.0250  -38.2211  -10.0078 C   0  0  2  0  0  0  0  0  0  0  0  0
  -18.7596  -37.6577  -11.0196 O   0  0  0  0  0  0  0  0  0  0  0  0
  -16.6499  -38.5152  -10.5460 C   0  0  0  0  0  0  0  0  0  0  0  0
  -16.6933  -38.9300  -11.9157 N   0  0  0  0  0  0  0  0  0  0  0  0
  -16.0212  -38.0416  -12.8209 C   0  0  0  0  0  0  0  0  0  0  0  0
  -15.1178  -37.1654  -12.0293 C   0  0  0  0  0  0  0  0  0  0  0  0
  -15.6153  -36.1327  -11.2396 C   0  0  0  0  0  0  0  0  0  0  0  0
  -14.7829  -35.3278  -10.5114 C   0  0  0  0  0  0  0  0  0  0  0  0
  -13.4043  -35.5411  -10.5564 C   0  0  0  0  0  0  0  0  0  0  0  0
  -12.8834  -36.5553  -11.3290 C   0  0  0  0  0  0  0  0  0  0  0  0
  -13.7403  -37.3468  -12.0488 C   0  0  0  0  0  0  0  0  0  0  0  0
  -11.4083  -36.7991  -11.3897 C   0  0  0  0  0  0  0  0  0  0  0  0
  -10.6669  -35.6082  -10.8498 C   0  0  0  0  0  0  0  0  0  0  0  0
  -11.0542  -36.9200  -12.8662 C   0  0  0  0  0  0  0  0  0  0  0  0
  -11.0459  -38.0521  -10.6446 C   0  0  0  0  0  0  0  0  0  0  0  0
  2  1  1  1
  2  3  1  0
  3  4  1  0
  4  5  1  0
  5  6  1  0
  6  7  1  0
  7  8  1  0
  8  9  1  0
  9 10  1  0
 10 11  2  0
 10 12  1  0
 12 13  1  0
 13 14  1  6
 13 15  1  0
 15 16  2  0
 15 17  1  0
 17 18  1  0
 18 19  1  1
 18 20  1  0
 20 21  1  6
 20 22  1  0
 22 23  1  0
 23 24  1  0
 24 25  1  0
 25 26  2  0
 26 27  1  0
 27 28  2  0
 28 29  1  0
 29 30  2  0
 29 31  1  0
 31 32  1  0
 31 33  1  0
 31 34  1  0
 19  2  1  0
 30 25  1  0
M  END
$$$$
