
     RDKit          3D

 34 35  0  0  0  0  0  0  0  0999 V2000
  -19.4150  -39.3298   -6.5618 C   0  0  0  0  0  0  0  0  0  0  0  0
  -19.8227  -39.0347   -7.9673 C   0  0  2  0  0  0  0  0  0  0  0  0
  -21.3525  -38.9222   -8.0828 C   0  0  0  0  0  0  0  0  0  0  0  0
  -22.0277  -39.3546   -6.8164 C   0  0  0  0  0  0  0  0  0  0  0  0
  -23.4194  -39.8688   -7.1992 C   0  0  0  0  0  0  0  0  0  0  0  0
  -24.1462  -40.3043   -5.9605 C   0  0  0  0  0  0  0  0  0  0  0  0
  -23.3504  -41.2587   -5.0969 C   0  0  0  0  0  0  0  0  0  0  0  0
  -23.0036  -42.5442   -5.7730 C   0  0  0  0  0  0  0  0  0  0  0  0
  -21.7801  -43.1000   -5.2354 N   0  0  0  0  0  0  0  0  0  0  0  0
  -20.7554  -43.6451   -6.0624 C   0  0  0  0  0  0  0  0  0  0  0  0
  -19.9715  -44.4791   -5.5823 O   0  0  0  0  0  0  0  0  0  0  0  0
  -20.6189  -43.2249   -7.4883 C   0  0  0  0  0  0  0  0  0  0  0  0
  -19.1980  -43.5470   -7.9613 C   0  0  1  0  0  0  0  0  0  0  0  0
  -19.2097  -43.6672   -9.4599 C   0  0  0  0  0  0  0  0  0  0  0  0
  -18.1878  -42.6767   -7.3982 C   0  0  0  0  0  0  0  0  0  0  0  0
  -17.5084  -43.1992   -6.4342 O   0  0  0  0  0  0  0  0  0  0  0  0
  -17.8288  -41.3733   -7.7228 N   0  0  0  0  0  0  0  0  0  0  0  0
  -18.0547  -40.6099   -8.9131 C   0  0  1  0  0  0  0  0  0  0  0  0
  -19.3548  -39.9309   -9.0277 C   0  0  0  0  0  0  0  0  0  0  0  0
  -16.8762  -39.7238   -9.2564 C   0  0  2  0  0  0  0  0  0  0  0  0
  -16.7449  -39.4270  -10.5890 O   0  0  0  0  0  0  0  0  0  0  0  0
  -15.5584  -40.2696   -8.7744 C   0  0  0  0  0  0  0  0  0  0  0  0
  -14.5357  -39.2674   -8.7767 N   0  0  0  0  0  0  0  0  0  0  0  0
  -13.3349  -39.6539   -9.4613 C   0  0  0  0  0  0  0  0  0  0  0  0
  -13.3615  -39.0567  -10.8226 C   0  0  0  0  0  0  0  0  0  0  0  0
  -13.8258  -39.7735  -11.9217 C   0  0  0  0  0  0  0  0  0  0  0  0
  -13.8503  -39.2224  -13.1735 C   0  0  0  0  0  0  0  0  0  0  0  0
  -13.4018  -37.9139  -13.3596 C   0  0  0  0  0  0  0  0  0  0  0  0
  -12.9370  -37.1805  -12.2905 C   0  0  0  0  0  0  0  0  0  0  0  0
  -12.9234  -37.7574  -11.0471 C   0  0  0  0  0  0  0  0  0  0  0  0
  -12.4523  -35.7763  -12.4706 C   0  0  0  0  0  0  0  0  0  0  0  0
  -11.1991  -35.5575  -11.6700 C   0  0  0  0  0  0  0  0  0  0  0  0
  -13.5279  -34.8727  -11.8817 C   0  0  0  0  0  0  0  0  0  0  0  0
  -12.2312  -35.4731  -13.9252 C   0  0  0  0  0  0  0  0  0  0  0  0
  2  1  1  1
  2  3  1  0
  3  4  1  0
  4  5  1  0
  5  6  1  0
  6  7  1  0
  7  8  1  0
  8  9  1  0
  9 10  1  0
 10 11  2  0
 10 12  1  0
 12 13  1  0
 13 14  1  6
 13 15  1  0
 15 16  2  0
 15 17  1  0
 17 18  1  0
 18 19  1  1
 18 20  1  0
 20 21  1  6
 20 22  1  0
 22 23  1  0
 23 24  1  0
 24 25  1  0
 25 26  2  0
 26 27  1  0
 27 28  2  0
 28 29  1  0
 29 30  2  0
 29 31  1  0
 31 32  1  0
 31 33  1  0
 31 34  1  0
 19  2  1  0
 30 25  1  0
M  END
$$$$
