
     RDKit          3D

 34 35  0  0  0  0  0  0  0  0999 V2000
  -19.2559  -39.6235   -5.8237 C   0  0  0  0  0  0  0  0  0  0  0  0
  -19.4235  -39.0407   -7.1880 C   0  0  2  0  0  0  0  0  0  0  0  0
  -20.9075  -38.7726   -7.4916 C   0  0  0  0  0  0  0  0  0  0  0  0
  -21.7949  -39.3676   -6.4404 C   0  0  0  0  0  0  0  0  0  0  0  0
  -23.1398  -39.6765   -7.1063 C   0  0  0  0  0  0  0  0  0  0  0  0
  -24.0740  -40.2648   -6.0898 C   0  0  0  0  0  0  0  0  0  0  0  0
  -23.4806  -41.4285   -5.3258 C   0  0  0  0  0  0  0  0  0  0  0  0
  -23.1132  -42.5942   -6.1837 C   0  0  0  0  0  0  0  0  0  0  0  0
  -22.0234  -43.3461   -5.5992 N   0  0  0  0  0  0  0  0  0  0  0  0
  -20.9189  -43.8199   -6.3651 C   0  0  0  0  0  0  0  0  0  0  0  0
  -20.2708  -44.7944   -5.9518 O   0  0  0  0  0  0  0  0  0  0  0  0
  -20.5390  -43.1594   -7.6488 C   0  0  0  0  0  0  0  0  0  0  0  0
  -19.0846  -43.5151   -7.9724 C   0  0  1  0  0  0  0  0  0  0  0  0
  -18.8726  -43.3571   -9.4524 C   0  0  0  0  0  0  0  0  0  0  0  0
  -18.1218  -42.8566   -7.1155 C   0  0  0  0  0  0  0  0  0  0  0  0
  -17.6322  -43.6055   -6.1863 O   0  0  0  0  0  0  0  0  0  0  0  0
  -17.6380  -41.5532   -7.1270 N   0  0  0  0  0  0  0  0  0  0  0  0
  -17.6307  -40.5675   -8.1659 C   0  0  1  0  0  0  0  0  0  0  0  0
  -18.8537  -39.7655   -8.3265 C   0  0  0  0  0  0  0  0  0  0  0  0
  -16.3614  -39.7424   -8.1624 C   0  0  2  0  0  0  0  0  0  0  0  0
  -16.5512  -38.3892   -8.2803 O   0  0  0  0  0  0  0  0  0  0  0  0
  -15.3734  -40.1623   -9.2182 C   0  0  0  0  0  0  0  0  0  0  0  0
  -14.0228  -39.9260   -8.8056 N   0  0  0  0  0  0  0  0  0  0  0  0
  -13.0332  -40.4546   -9.7008 C   0  0  0  0  0  0  0  0  0  0  0  0
  -13.1586  -39.7489  -11.0035 C   0  0  0  0  0  0  0  0  0  0  0  0
  -13.4936  -40.4306  -12.1699 C   0  0  0  0  0  0  0  0  0  0  0  0
  -13.6091  -39.7799  -13.3676 C   0  0  0  0  0  0  0  0  0  0  0  0
  -13.3880  -38.4032  -13.4283 C   0  0  0  0  0  0  0  0  0  0  0  0
  -13.0552  -37.7024  -12.2903 C   0  0  0  0  0  0  0  0  0  0  0  0
  -12.9460  -38.3795  -11.1035 C   0  0  0  0  0  0  0  0  0  0  0  0
  -12.8145  -36.2262  -12.3360 C   0  0  0  0  0  0  0  0  0  0  0  0
  -11.3680  -35.9314  -12.0530 C   0  0  0  0  0  0  0  0  0  0  0  0
  -13.6290  -35.6238  -11.1986 C   0  0  0  0  0  0  0  0  0  0  0  0
  -13.2385  -35.6596  -13.6611 C   0  0  0  0  0  0  0  0  0  0  0  0
  2  1  1  1
  2  3  1  0
  3  4  1  0
  4  5  1  0
  5  6  1  0
  6  7  1  0
  7  8  1  0
  8  9  1  0
  9 10  1  0
 10 11  2  0
 10 12  1  0
 12 13  1  0
 13 14  1  6
 13 15  1  0
 15 16  2  0
 15 17  1  0
 17 18  1  0
 18 19  1  1
 18 20  1  0
 20 21  1  6
 20 22  1  0
 22 23  1  0
 23 24  1  0
 24 25  1  0
 25 26  2  0
 26 27  1  0
 27 28  2  0
 28 29  1  0
 29 30  2  0
 29 31  1  0
 31 32  1  0
 31 33  1  0
 31 34  1  0
 19  2  1  0
 30 25  1  0
M  END
$$$$
