
     RDKit          3D

 34 35  0  0  0  0  0  0  0  0999 V2000
  -19.0937  -39.3717   -5.5869 C   0  0  0  0  0  0  0  0  0  0  0  0
  -19.4165  -38.6259   -6.8393 C   0  0  2  0  0  0  0  0  0  0  0  0
  -20.9380  -38.4921   -7.0217 C   0  0  0  0  0  0  0  0  0  0  0  0
  -21.6818  -39.3285   -6.0247 C   0  0  0  0  0  0  0  0  0  0  0  0
  -23.0284  -39.6947   -6.6574 C   0  0  0  0  0  0  0  0  0  0  0  0
  -23.8217  -40.5250   -5.6913 C   0  0  0  0  0  0  0  0  0  0  0  0
  -23.0556  -41.7078   -5.1399 C   0  0  0  0  0  0  0  0  0  0  0  0
  -22.6250  -42.6902   -6.1788 C   0  0  0  0  0  0  0  0  0  0  0  0
  -21.4230  -43.3852   -5.7699 N   0  0  0  0  0  0  0  0  0  0  0  0
  -20.3294  -43.6146   -6.6543 C   0  0  0  0  0  0  0  0  0  0  0  0
  -19.5535  -44.5555   -6.4243 O   0  0  0  0  0  0  0  0  0  0  0  0
  -20.1120  -42.7401   -7.8445 C   0  0  0  0  0  0  0  0  0  0  0  0
  -18.6535  -42.8750   -8.2931 C   0  0  1  0  0  0  0  0  0  0  0  0
  -18.5622  -42.4865   -9.7426 C   0  0  0  0  0  0  0  0  0  0  0  0
  -17.7104  -42.2364   -7.4001 C   0  0  0  0  0  0  0  0  0  0  0  0
  -17.0804  -43.0467   -6.6188 O   0  0  0  0  0  0  0  0  0  0  0  0
  -17.3713  -40.8970   -7.2443 N   0  0  0  0  0  0  0  0  0  0  0  0
  -17.5416  -39.7807   -8.1250 C   0  0  1  0  0  0  0  0  0  0  0  0
  -18.8517  -39.1118   -8.1008 C   0  0  0  0  0  0  0  0  0  0  0  0
  -16.3711  -38.8224   -8.0663 C   0  0  2  0  0  0  0  0  0  0  0  0
  -16.7089  -37.4938   -8.1095 O   0  0  0  0  0  0  0  0  0  0  0  0
  -15.3419  -39.0706   -9.1370 C   0  0  0  0  0  0  0  0  0  0  0  0
  -15.2115  -40.4650   -9.4350 N   0  0  0  0  0  0  0  0  0  0  0  0
  -14.9186  -40.7475  -10.8115 C   0  0  0  0  0  0  0  0  0  0  0  0
  -14.9088  -39.4624  -11.5592 C   0  0  0  0  0  0  0  0  0  0  0  0
  -16.0403  -39.0007  -12.2255 C   0  0  0  0  0  0  0  0  0  0  0  0
  -16.0300  -37.8178  -12.9125 C   0  0  0  0  0  0  0  0  0  0  0  0
  -14.8634  -37.0526  -12.9500 C   0  0  0  0  0  0  0  0  0  0  0  0
  -13.7285  -37.4842  -12.3000 C   0  0  0  0  0  0  0  0  0  0  0  0
  -13.7667  -38.6734  -11.6193 C   0  0  0  0  0  0  0  0  0  0  0  0
  -12.4687  -36.6773  -12.3290 C   0  0  0  0  0  0  0  0  0  0  0  0
  -11.4311  -37.3726  -13.1653 C   0  0  0  0  0  0  0  0  0  0  0  0
  -11.9475  -36.6447  -10.8981 C   0  0  0  0  0  0  0  0  0  0  0  0
  -12.7385  -35.2892  -12.8358 C   0  0  0  0  0  0  0  0  0  0  0  0
  2  1  1  1
  2  3  1  0
  3  4  1  0
  4  5  1  0
  5  6  1  0
  6  7  1  0
  7  8  1  0
  8  9  1  0
  9 10  1  0
 10 11  2  0
 10 12  1  0
 12 13  1  0
 13 14  1  6
 13 15  1  0
 15 16  2  0
 15 17  1  0
 17 18  1  0
 18 19  1  1
 18 20  1  0
 20 21  1  6
 20 22  1  0
 22 23  1  0
 23 24  1  0
 24 25  1  0
 25 26  2  0
 26 27  1  0
 27 28  2  0
 28 29  1  0
 29 30  2  0
 29 31  1  0
 31 32  1  0
 31 33  1  0
 31 34  1  0
 19  2  1  0
 30 25  1  0
M  END
$$$$
