
     RDKit          3D

 34 35  0  0  0  0  0  0  0  0999 V2000
  -19.0780  -39.3671   -6.0310 C   0  0  0  0  0  0  0  0  0  0  0  0
  -19.3246  -38.8504   -7.4098 C   0  0  2  0  0  0  0  0  0  0  0  0
  -20.8325  -38.7449   -7.6948 C   0  0  0  0  0  0  0  0  0  0  0  0
  -21.6387  -39.3914   -6.6091 C   0  0  0  0  0  0  0  0  0  0  0  0
  -22.9548  -39.8575   -7.2401 C   0  0  0  0  0  0  0  0  0  0  0  0
  -23.8088  -40.5032   -6.1885 C   0  0  0  0  0  0  0  0  0  0  0  0
  -23.0883  -41.5743   -5.3987 C   0  0  0  0  0  0  0  0  0  0  0  0
  -22.6165  -42.7247   -6.2256 C   0  0  0  0  0  0  0  0  0  0  0  0
  -21.4470  -43.3420   -5.6373 N   0  0  0  0  0  0  0  0  0  0  0  0
  -20.3114  -43.7266   -6.4078 C   0  0  0  0  0  0  0  0  0  0  0  0
  -19.5611  -44.6157   -5.9755 O   0  0  0  0  0  0  0  0  0  0  0  0
  -20.0202  -43.0744   -7.7186 C   0  0  0  0  0  0  0  0  0  0  0  0
  -18.5421  -43.2911   -8.0571 C   0  0  1  0  0  0  0  0  0  0  0  0
  -18.3694  -43.1622   -9.5451 C   0  0  0  0  0  0  0  0  0  0  0  0
  -17.6389  -42.5097   -7.2394 C   0  0  0  0  0  0  0  0  0  0  0  0
  -17.0616  -43.1734   -6.2958 O   0  0  0  0  0  0  0  0  0  0  0  0
  -17.2910  -41.1650   -7.3013 N   0  0  0  0  0  0  0  0  0  0  0  0
  -17.3999  -40.2192   -8.3710 C   0  0  1  0  0  0  0  0  0  0  0  0
  -18.7006  -39.5515   -8.5348 C   0  0  0  0  0  0  0  0  0  0  0  0
  -16.2216  -39.2697   -8.4171 C   0  0  2  0  0  0  0  0  0  0  0  0
  -16.4296  -38.1250   -9.1433 O   0  0  0  0  0  0  0  0  0  0  0  0
  -14.9568  -39.9118   -8.9221 C   0  0  0  0  0  0  0  0  0  0  0  0
  -13.7932  -39.1796   -8.5219 N   0  0  0  0  0  0  0  0  0  0  0  0
  -12.8074  -39.0317   -9.5546 C   0  0  0  0  0  0  0  0  0  0  0  0
  -13.1884  -37.8693  -10.3998 C   0  0  0  0  0  0  0  0  0  0  0  0
  -13.2531  -36.5809   -9.8771 C   0  0  0  0  0  0  0  0  0  0  0  0
  -13.6032  -35.5124  -10.6562 C   0  0  0  0  0  0  0  0  0  0  0  0
  -13.9031  -35.7113  -12.0047 C   0  0  0  0  0  0  0  0  0  0  0  0
  -13.8475  -36.9750  -12.5494 C   0  0  0  0  0  0  0  0  0  0  0  0
  -13.4939  -38.0278  -11.7460 C   0  0  0  0  0  0  0  0  0  0  0  0
  -14.1655  -37.2076  -13.9930 C   0  0  0  0  0  0  0  0  0  0  0  0
  -13.1351  -38.1130  -14.6078 C   0  0  0  0  0  0  0  0  0  0  0  0
  -14.0460  -35.8543  -14.6817 C   0  0  0  0  0  0  0  0  0  0  0  0
  -15.5497  -37.7705  -14.1480 C   0  0  0  0  0  0  0  0  0  0  0  0
  2  1  1  1
  2  3  1  0
  3  4  1  0
  4  5  1  0
  5  6  1  0
  6  7  1  0
  7  8  1  0
  8  9  1  0
  9 10  1  0
 10 11  2  0
 10 12  1  0
 12 13  1  0
 13 14  1  6
 13 15  1  0
 15 16  2  0
 15 17  1  0
 17 18  1  0
 18 19  1  1
 18 20  1  0
 20 21  1  6
 20 22  1  0
 22 23  1  0
 23 24  1  0
 24 25  1  0
 25 26  2  0
 26 27  1  0
 27 28  2  0
 28 29  1  0
 29 30  2  0
 29 31  1  0
 31 32  1  0
 31 33  1  0
 31 34  1  0
 19  2  1  0
 30 25  1  0
M  END
$$$$
