
     RDKit          3D

 34 35  0  0  0  0  0  0  0  0999 V2000
  -18.9897  -39.5491   -5.6387 C   0  0  0  0  0  0  0  0  0  0  0  0
  -19.2267  -39.0015   -7.0072 C   0  0  2  0  0  0  0  0  0  0  0  0
  -20.7285  -38.7828   -7.2583 C   0  0  0  0  0  0  0  0  0  0  0  0
  -21.5569  -39.3797   -6.1610 C   0  0  0  0  0  0  0  0  0  0  0  0
  -22.9167  -39.7416   -6.7673 C   0  0  0  0  0  0  0  0  0  0  0  0
  -23.7934  -40.3339   -5.7030 C   0  0  0  0  0  0  0  0  0  0  0  0
  -23.1371  -41.4630   -4.9386 C   0  0  0  0  0  0  0  0  0  0  0  0
  -22.7687  -42.6363   -5.7857 C   0  0  0  0  0  0  0  0  0  0  0  0
  -21.6355  -43.3437   -5.2285 N   0  0  0  0  0  0  0  0  0  0  0  0
  -20.5478  -43.8024   -6.0269 C   0  0  0  0  0  0  0  0  0  0  0  0
  -19.8559  -44.7486   -5.6190 O   0  0  0  0  0  0  0  0  0  0  0  0
  -20.2371  -43.1597   -7.3380 C   0  0  0  0  0  0  0  0  0  0  0  0
  -18.7864  -43.4806   -7.7106 C   0  0  1  0  0  0  0  0  0  0  0  0
  -18.6362  -43.3492   -9.2008 C   0  0  0  0  0  0  0  0  0  0  0  0
  -17.8112  -42.7760   -6.9059 C   0  0  0  0  0  0  0  0  0  0  0  0
  -17.2644  -43.4899   -5.9811 O   0  0  0  0  0  0  0  0  0  0  0  0
  -17.3668  -41.4599   -6.9636 N   0  0  0  0  0  0  0  0  0  0  0  0
  -17.4286  -40.4975   -8.0223 C   0  0  1  0  0  0  0  0  0  0  0  0
  -18.6799  -39.7346   -8.1518 C   0  0  0  0  0  0  0  0  0  0  0  0
  -16.1849  -39.6365   -8.0856 C   0  0  2  0  0  0  0  0  0  0  0  0
  -16.4192  -38.2898   -8.1970 O   0  0  0  0  0  0  0  0  0  0  0  0
  -15.2404  -40.0322   -9.1894 C   0  0  0  0  0  0  0  0  0  0  0  0
  -13.8912  -39.6539   -8.8948 N   0  0  0  0  0  0  0  0  0  0  0  0
  -12.9262  -40.1291   -9.8451 C   0  0  0  0  0  0  0  0  0  0  0  0
  -13.1893  -39.4644  -11.1488 C   0  0  0  0  0  0  0  0  0  0  0  0
  -13.4124  -40.2015  -12.3083 C   0  0  0  0  0  0  0  0  0  0  0  0
  -13.6550  -39.5885  -13.5069 C   0  0  0  0  0  0  0  0  0  0  0  0
  -13.6810  -38.1948  -13.5757 C   0  0  0  0  0  0  0  0  0  0  0  0
  -13.4638  -37.4395  -12.4447 C   0  0  0  0  0  0  0  0  0  0  0  0
  -13.2229  -38.0796  -11.2567 C   0  0  0  0  0  0  0  0  0  0  0  0
  -13.4880  -35.9443  -12.4990 C   0  0  0  0  0  0  0  0  0  0  0  0
  -13.8596  -35.4852  -13.8813 C   0  0  0  0  0  0  0  0  0  0  0  0
  -12.0599  -35.4828  -12.2387 C   0  0  0  0  0  0  0  0  0  0  0  0
  -14.4294  -35.3904  -11.4678 C   0  0  0  0  0  0  0  0  0  0  0  0
  2  1  1  1
  2  3  1  0
  3  4  1  0
  4  5  1  0
  5  6  1  0
  6  7  1  0
  7  8  1  0
  8  9  1  0
  9 10  1  0
 10 11  2  0
 10 12  1  0
 12 13  1  0
 13 14  1  6
 13 15  1  0
 15 16  2  0
 15 17  1  0
 17 18  1  0
 18 19  1  1
 18 20  1  0
 20 21  1  6
 20 22  1  0
 22 23  1  0
 23 24  1  0
 24 25  1  0
 25 26  2  0
 26 27  1  0
 27 28  2  0
 28 29  1  0
 29 30  2  0
 29 31  1  0
 31 32  1  0
 31 33  1  0
 31 34  1  0
 19  2  1  0
 30 25  1  0
M  END
$$$$
