
     RDKit          3D

 34 35  0  0  0  0  0  0  0  0999 V2000
  -19.4340  -39.9843   -5.6047 C   0  0  0  0  0  0  0  0  0  0  0  0
  -19.4045  -39.2851   -6.9235 C   0  0  2  0  0  0  0  0  0  0  0  0
  -20.8278  -39.0908   -7.4735 C   0  0  0  0  0  0  0  0  0  0  0  0
  -21.8347  -39.8438   -6.6577 C   0  0  0  0  0  0  0  0  0  0  0  0
  -23.0083  -40.1778   -7.5843 C   0  0  0  0  0  0  0  0  0  0  0  0
  -24.0555  -40.9240   -6.8106 C   0  0  0  0  0  0  0  0  0  0  0  0
  -23.5115  -42.1129   -6.0487 C   0  0  0  0  0  0  0  0  0  0  0  0
  -22.8996  -43.1624   -6.9171 C   0  0  0  0  0  0  0  0  0  0  0  0
  -21.8718  -43.8913   -6.2049 N   0  0  0  0  0  0  0  0  0  0  0  0
  -20.6123  -44.2124   -6.7895 C   0  0  0  0  0  0  0  0  0  0  0  0
  -19.9682  -45.1758   -6.3453 O   0  0  0  0  0  0  0  0  0  0  0  0
  -20.0670  -43.4065   -7.9216 C   0  0  0  0  0  0  0  0  0  0  0  0
  -18.5534  -43.6292   -7.9985 C   0  0  1  0  0  0  0  0  0  0  0  0
  -18.0952  -43.3148   -9.3955 C   0  0  0  0  0  0  0  0  0  0  0  0
  -17.8181  -42.9925   -6.9266 C   0  0  0  0  0  0  0  0  0  0  0  0
  -17.4404  -43.7926   -5.9880 O   0  0  0  0  0  0  0  0  0  0  0  0
  -17.4521  -41.6641   -6.7407 N   0  0  0  0  0  0  0  0  0  0  0  0
  -17.3433  -40.5844   -7.6752 C   0  0  1  0  0  0  0  0  0  0  0  0
  -18.5814  -39.8560   -7.9927 C   0  0  0  0  0  0  0  0  0  0  0  0
  -16.1694  -39.6789   -7.3685 C   0  0  2  0  0  0  0  0  0  0  0  0
  -16.3659  -38.3555   -7.6701 O   0  0  0  0  0  0  0  0  0  0  0  0
  -14.8892  -40.1165   -8.0293 C   0  0  0  0  0  0  0  0  0  0  0  0
  -14.6164  -39.3581   -9.2128 N   0  0  0  0  0  0  0  0  0  0  0  0
  -13.4380  -39.7736   -9.9192 C   0  0  0  0  0  0  0  0  0  0  0  0
  -13.4437  -39.1255  -11.2573 C   0  0  0  0  0  0  0  0  0  0  0  0
  -13.6500  -39.8616  -12.4204 C   0  0  0  0  0  0  0  0  0  0  0  0
  -13.6556  -39.2638  -13.6508 C   0  0  0  0  0  0  0  0  0  0  0  0
  -13.4509  -37.8867  -13.7490 C   0  0  0  0  0  0  0  0  0  0  0  0
  -13.2441  -37.1327  -12.6152 C   0  0  0  0  0  0  0  0  0  0  0  0
  -13.2434  -37.7575  -11.3951 C   0  0  0  0  0  0  0  0  0  0  0  0
  -13.0229  -35.6552  -12.7008 C   0  0  0  0  0  0  0  0  0  0  0  0
  -13.9084  -34.9441  -11.7162 C   0  0  0  0  0  0  0  0  0  0  0  0
  -13.4696  -35.2351  -14.0951 C   0  0  0  0  0  0  0  0  0  0  0  0
  -11.5759  -35.3208  -12.4752 C   0  0  0  0  0  0  0  0  0  0  0  0
  2  1  1  1
  2  3  1  0
  3  4  1  0
  4  5  1  0
  5  6  1  0
  6  7  1  0
  7  8  1  0
  8  9  1  0
  9 10  1  0
 10 11  2  0
 10 12  1  0
 12 13  1  0
 13 14  1  6
 13 15  1  0
 15 16  2  0
 15 17  1  0
 17 18  1  0
 18 19  1  1
 18 20  1  0
 20 21  1  6
 20 22  1  0
 22 23  1  0
 23 24  1  0
 24 25  1  0
 25 26  2  0
 26 27  1  0
 27 28  2  0
 28 29  1  0
 29 30  2  0
 29 31  1  0
 31 32  1  0
 31 33  1  0
 31 34  1  0
 19  2  1  0
 30 25  1  0
M  END
$$$$
