
     RDKit          3D

 43 47  0  0  0  0  0  0  0  0999 V2000
  -13.7764  -38.4053  -11.7079 C   0  0  0  0  0  0  0  0  0  0  0  0
  -14.7241  -39.2091  -10.8397 C   0  0  0  0  0  0  0  0  0  0  0  0
  -15.9335  -39.7314  -11.5248 C   0  0  0  0  0  0  0  0  0  0  0  0
  -15.0614  -38.5525   -9.6275 N   0  0  0  0  0  0  0  0  0  0  0  0
  -16.3510  -38.1714   -9.3513 C   0  0  0  0  0  0  0  0  0  0  0  0
  -17.1706  -38.7836   -8.2956 C   0  0  1  0  0  0  0  0  0  0  0  0
  -18.0954  -37.9715   -7.6709 O   0  0  0  0  0  0  0  0  0  0  0  0
  -17.7557  -40.1257   -8.7607 C   0  0  2  0  0  0  0  0  0  0  0  0
  -19.1869  -40.1528   -9.0147 C   0  0  0  0  0  0  0  0  0  0  0  0
  -20.2174  -39.6674   -8.0784 C   0  0  0  0  0  0  0  0  0  0  0  0
  -20.3084  -39.6386   -6.7018 C   0  0  0  0  0  0  0  0  0  0  0  0
  -21.4561  -39.1757   -6.1153 C   0  0  0  0  0  0  0  0  0  0  0  0
  -21.8539  -39.0685   -4.6830 C   0  0  0  0  0  0  0  0  0  0  0  0
  -22.9191  -40.1465   -4.4660 C   0  0  0  0  0  0  0  0  0  0  0  0
  -22.3895  -41.5392   -4.3772 C   0  0  0  0  0  0  0  0  0  0  0  0
  -23.0285  -42.3442   -5.4890 C   0  0  0  0  0  0  0  0  0  0  0  0
  -22.2401  -43.5002   -5.8754 N   0  0  0  0  0  0  0  0  0  0  0  0
  -21.0838  -43.6106   -6.7132 C   0  0  0  0  0  0  0  0  0  0  0  0
  -19.8767  -42.9375   -6.7001 C   0  0  0  0  0  0  0  0  0  0  0  0
  -18.9537  -43.1888   -7.6958 C   0  0  0  0  0  0  0  0  0  0  0  0
  -19.3077  -44.1486   -8.6822 C   0  0  0  0  0  0  0  0  0  0  0  0
  -20.4529  -44.8178   -8.7231 N   0  0  0  0  0  4  0  0  0  0  0  0
  -20.7510  -45.7912   -9.7669 C   0  0  0  0  0  0  0  0  0  0  0  0
  -19.6481  -46.6976  -10.0421 C   0  0  0  0  0  0  0  0  0  0  0  0
  -19.3799  -47.7489   -9.1954 C   0  0  0  0  0  0  0  0  0  0  0  0
  -18.3165  -48.6258   -9.4637 C   0  0  0  0  0  0  0  0  0  0  0  0
  -17.5369  -48.4335  -10.5809 C   0  0  0  0  0  0  0  0  0  0  0  0
  -17.7999  -47.3796  -11.4361 C   0  0  0  0  0  0  0  0  0  0  0  0
  -18.8569  -46.5198  -11.1555 C   0  0  0  0  0  0  0  0  0  0  0  0
  -21.3227  -44.5468   -7.7502 C   0  0  0  0  0  0  0  0  0  0  0  0
  -17.6379  -42.5856   -7.9716 C   0  0  0  0  0  0  0  0  0  0  0  0
  -16.6638  -43.4315   -8.2343 O   0  0  0  0  0  0  0  0  0  0  0  0
  -17.1928  -41.2421   -8.0165 N   0  0  0  0  0  0  0  0  0  0  0  0
  -22.5371  -38.7294   -6.9319 C   0  0  0  0  0  0  0  0  0  0  0  0
  -22.4980  -38.7358   -8.2915 C   0  0  0  0  0  0  0  0  0  0  0  0
  -21.3354  -39.2061   -8.8357 C   0  0  0  0  0  0  0  0  0  0  0  0
  -13.8910  -40.4050  -10.4249 C   0  0  0  0  0  0  0  0  0  0  0  0
  -14.2832  -41.6873  -10.6644 C   0  0  0  0  0  0  0  0  0  0  0  0
  -13.5090  -42.7607  -10.2725 C   0  0  0  0  0  0  0  0  0  0  0  0
  -14.0220  -44.5674  -10.5875 Br  0  0  0  0  0  0  0  0  0  0  0  0
  -12.2976  -42.5563   -9.6179 C   0  0  0  0  0  0  0  0  0  0  0  0
  -11.8999  -41.2547   -9.3751 C   0  0  0  0  0  0  0  0  0  0  0  0
  -12.6934  -40.2123   -9.7776 C   0  0  0  0  0  0  0  0  0  0  0  0
  1  2  1  0
  2  3  1  0
  2  4  1  0
  4  5  1  0
  5  6  1  0
  6  7  1  6
  6  8  1  0
  8  9  1  1
  9 10  1  0
 10 11  1  0
 11 12  2  0
 12 13  1  0
 13 14  1  0
 14 15  1  0
 15 16  1  0
 16 17  1  0
 17 18  1  0
 18 19  1  0
 19 20  2  0
 20 21  1  0
 21 22  2  0
 22 23  1  0
 23 24  1  0
 24 25  2  0
 25 26  1  0
 26 27  2  0
 27 28  1  0
 28 29  2  0
 22 30  1  0
 20 31  1  0
 31 32  2  0
 31 33  1  0
 12 34  1  0
 34 35  2  0
 35 36  1  0
  2 37  1  0
 37 38  2  0
 38 39  1  0
 39 40  1  0
 39 41  2  0
 41 42  1  0
 42 43  2  0
 29 24  1  0
 30 18  2  0
 33  8  1  0
 36 10  2  0
 43 37  1  0
M  CHG  1  22   1
M  END
$$$$
