
     RDKit          3D

 43 47  0  0  0  0  0  0  0  0999 V2000
  -14.0857  -39.6027  -12.2862 C   0  0  0  0  0  0  0  0  0  0  0  0
  -15.0364  -40.3119  -11.3423 C   0  0  0  0  0  0  0  0  0  0  0  0
  -15.0985  -41.7885  -11.4853 C   0  0  0  0  0  0  0  0  0  0  0  0
  -16.3354  -39.7404  -11.3269 N   0  0  0  0  0  0  0  0  0  0  0  0
  -16.7468  -38.9182  -10.3073 C   0  0  0  0  0  0  0  0  0  0  0  0
  -17.3392  -39.4108   -9.0553 C   0  0  1  0  0  0  0  0  0  0  0  0
  -18.1057  -38.5193   -8.3323 O   0  0  0  0  0  0  0  0  0  0  0  0
  -18.0238  -40.7696   -9.2667 C   0  0  2  0  0  0  0  0  0  0  0  0
  -19.4774  -40.7632   -9.2921 C   0  0  0  0  0  0  0  0  0  0  0  0
  -20.3345  -40.1342   -8.2702 C   0  0  0  0  0  0  0  0  0  0  0  0
  -20.2059  -39.9503   -6.9087 C   0  0  0  0  0  0  0  0  0  0  0  0
  -21.2345  -39.3771   -6.2095 C   0  0  0  0  0  0  0  0  0  0  0  0
  -21.3980  -39.0961   -4.7550 C   0  0  0  0  0  0  0  0  0  0  0  0
  -22.4421  -40.0972   -4.2534 C   0  0  0  0  0  0  0  0  0  0  0  0
  -21.9402  -41.4931   -4.0875 C   0  0  0  0  0  0  0  0  0  0  0  0
  -22.7669  -42.3874   -4.9870 C   0  0  0  0  0  0  0  0  0  0  0  0
  -22.0786  -43.6115   -5.3545 N   0  0  0  0  0  0  0  0  0  0  0  0
  -21.0725  -43.8627   -6.3423 C   0  0  0  0  0  0  0  0  0  0  0  0
  -19.8620  -43.2445   -6.5933 C   0  0  0  0  0  0  0  0  0  0  0  0
  -19.1147  -43.6430   -7.6838 C   0  0  0  0  0  0  0  0  0  0  0  0
  -19.6440  -44.6894   -8.4865 C   0  0  0  0  0  0  0  0  0  0  0  0
  -20.7977  -45.3094   -8.2727 N   0  0  0  0  0  4  0  0  0  0  0  0
  -21.2814  -46.3781   -9.1388 C   0  0  0  0  0  0  0  0  0  0  0  0
  -20.3126  -46.7911  -10.1410 C   0  0  0  0  0  0  0  0  0  0  0  0
  -19.9634  -45.9424  -11.1666 C   0  0  0  0  0  0  0  0  0  0  0  0
  -19.0252  -46.3410  -12.1324 C   0  0  0  0  0  0  0  0  0  0  0  0
  -18.4503  -47.5884  -12.0533 C   0  0  0  0  0  0  0  0  0  0  0  0
  -18.7961  -48.4467  -11.0262 C   0  0  0  0  0  0  0  0  0  0  0  0
  -19.7276  -48.0366  -10.0778 C   0  0  0  0  0  0  0  0  0  0  0  0
  -21.4956  -44.8962   -7.2151 C   0  0  0  0  0  0  0  0  0  0  0  0
  -17.8444  -43.1306   -8.2269 C   0  0  0  0  0  0  0  0  0  0  0  0
  -16.9455  -44.0411   -8.5375 O   0  0  0  0  0  0  0  0  0  0  0  0
  -17.3785  -41.8204   -8.4945 N   0  0  0  0  0  0  0  0  0  0  0  0
  -22.4195  -38.9774   -6.8955 C   0  0  0  0  0  0  0  0  0  0  0  0
  -22.5960  -39.1349   -8.2350 C   0  0  0  0  0  0  0  0  0  0  0  0
  -21.5462  -39.7115   -8.8941 C   0  0  0  0  0  0  0  0  0  0  0  0
  -14.4568  -40.0171   -9.9735 C   0  0  0  0  0  0  0  0  0  0  0  0
  -13.4955  -40.7960   -9.4037 C   0  0  0  0  0  0  0  0  0  0  0  0
  -12.9863  -40.5097   -8.1531 C   0  0  0  0  0  0  0  0  0  0  0  0
  -11.6433  -41.5735   -7.3218 Br  0  0  0  0  0  0  0  0  0  0  0  0
  -13.4469  -39.4075   -7.4384 C   0  0  0  0  0  0  0  0  0  0  0  0
  -14.4226  -38.6172   -8.0171 C   0  0  0  0  0  0  0  0  0  0  0  0
  -14.9062  -38.9308   -9.2605 C   0  0  0  0  0  0  0  0  0  0  0  0
  1  2  1  0
  2  3  1  0
  2  4  1  0
  4  5  1  0
  5  6  1  0
  6  7  1  6
  6  8  1  0
  8  9  1  1
  9 10  1  0
 10 11  1  0
 11 12  2  0
 12 13  1  0
 13 14  1  0
 14 15  1  0
 15 16  1  0
 16 17  1  0
 17 18  1  0
 18 19  1  0
 19 20  2  0
 20 21  1  0
 21 22  2  0
 22 23  1  0
 23 24  1  0
 24 25  2  0
 25 26  1  0
 26 27  2  0
 27 28  1  0
 28 29  2  0
 22 30  1  0
 20 31  1  0
 31 32  2  0
 31 33  1  0
 12 34  1  0
 34 35  2  0
 35 36  1  0
  2 37  1  0
 37 38  2  0
 38 39  1  0
 39 40  1  0
 39 41  2  0
 41 42  1  0
 42 43  2  0
 29 24  1  0
 30 18  2  0
 33  8  1  0
 36 10  2  0
 43 37  1  0
M  CHG  1  22   1
M  END
$$$$
