
     RDKit          3D

 43 47  0  0  0  0  0  0  0  0999 V2000
  -15.8872  -35.9876  -10.8365 C   0  0  0  0  0  0  0  0  0  0  0  0
  -15.5524  -37.4638  -10.7555 C   0  0  0  0  0  0  0  0  0  0  0  0
  -16.6009  -38.3871  -11.2582 C   0  0  0  0  0  0  0  0  0  0  0  0
  -15.0877  -37.8599   -9.4743 N   0  0  0  0  0  0  0  0  0  0  0  0
  -15.7553  -37.5084   -8.3274 C   0  0  0  0  0  0  0  0  0  0  0  0
  -16.6609  -38.4133   -7.6047 C   0  0  1  0  0  0  0  0  0  0  0  0
  -17.1878  -37.9529   -6.4150 O   0  0  0  0  0  0  0  0  0  0  0  0
  -17.7179  -39.0052   -8.5493 C   0  0  2  0  0  0  0  0  0  0  0  0
  -19.1073  -38.7883   -8.1805 C   0  0  0  0  0  0  0  0  0  0  0  0
  -19.6794  -39.0709   -6.8511 C   0  0  0  0  0  0  0  0  0  0  0  0
  -19.4140  -40.0234   -5.8887 C   0  0  0  0  0  0  0  0  0  0  0  0
  -20.1873  -40.0690   -4.7593 C   0  0  0  0  0  0  0  0  0  0  0  0
  -20.1673  -40.9940   -3.5909 C   0  0  0  0  0  0  0  0  0  0  0  0
  -21.4185  -41.8652   -3.7294 C   0  0  0  0  0  0  0  0  0  0  0  0
  -21.3269  -42.9290   -4.7725 C   0  0  0  0  0  0  0  0  0  0  0  0
  -22.4323  -42.6821   -5.7773 C   0  0  0  0  0  0  0  0  0  0  0  0
  -22.1485  -43.2523   -7.0818 N   0  0  0  0  0  0  0  0  0  0  0  0
  -21.3237  -42.7807   -8.1534 C   0  0  0  0  0  0  0  0  0  0  0  0
  -20.0063  -42.3632   -8.1786 C   0  0  0  0  0  0  0  0  0  0  0  0
  -19.4778  -41.8697   -9.3549 C   0  0  0  0  0  0  0  0  0  0  0  0
  -20.3360  -41.8317  -10.4869 C   0  0  0  0  0  0  0  0  0  0  0  0
  -21.6021  -42.2292  -10.5014 N   0  0  0  0  0  4  0  0  0  0  0  0
  -22.4272  -42.1623  -11.7018 C   0  0  0  0  0  0  0  0  0  0  0  0
  -21.6896  -41.7553  -12.8866 C   0  0  0  0  0  0  0  0  0  0  0  0
  -20.3162  -41.6701  -12.8596 C   0  0  0  0  0  0  0  0  0  0  0  0
  -19.6043  -41.2800  -14.0054 C   0  0  0  0  0  0  0  0  0  0  0  0
  -20.2838  -40.9809  -15.1637 C   0  0  0  0  0  0  0  0  0  0  0  0
  -21.6633  -41.0639  -15.1987 C   0  0  0  0  0  0  0  0  0  0  0  0
  -22.3534  -41.4515  -14.0546 C   0  0  0  0  0  0  0  0  0  0  0  0
  -22.0814  -42.6947   -9.3482 C   0  0  0  0  0  0  0  0  0  0  0  0
  -18.1528  -41.3008   -9.6578 C   0  0  0  0  0  0  0  0  0  0  0  0
  -17.5743  -41.7477  -10.7529 O   0  0  0  0  0  0  0  0  0  0  0  0
  -17.3504  -40.3407   -8.9947 N   0  0  0  0  0  0  0  0  0  0  0  0
  -21.2511  -39.1336   -4.5926 C   0  0  0  0  0  0  0  0  0  0  0  0
  -21.5533  -38.1752   -5.5092 C   0  0  0  0  0  0  0  0  0  0  0  0
  -20.7581  -38.1654   -6.6213 C   0  0  0  0  0  0  0  0  0  0  0  0
  -14.3541  -37.6027  -11.6727 C   0  0  0  0  0  0  0  0  0  0  0  0
  -13.3767  -38.5279  -11.4631 C   0  0  0  0  0  0  0  0  0  0  0  0
  -12.2919  -38.6319  -12.3103 C   0  0  0  0  0  0  0  0  0  0  0  0
  -10.9046  -39.9105  -12.0516 Br  0  0  0  0  0  0  0  0  0  0  0  0
  -12.1706  -37.7865  -13.4095 C   0  0  0  0  0  0  0  0  0  0  0  0
  -13.1629  -36.8476  -13.6219 C   0  0  0  0  0  0  0  0  0  0  0  0
  -14.2261  -36.7715  -12.7605 C   0  0  0  0  0  0  0  0  0  0  0  0
  1  2  1  0
  2  3  1  0
  2  4  1  0
  4  5  1  0
  5  6  1  0
  6  7  1  1
  6  8  1  0
  8  9  1  1
  9 10  1  0
 10 11  1  0
 11 12  2  0
 12 13  1  0
 13 14  1  0
 14 15  1  0
 15 16  1  0
 16 17  1  0
 17 18  1  0
 18 19  1  0
 19 20  2  0
 20 21  1  0
 21 22  2  0
 22 23  1  0
 23 24  1  0
 24 25  2  0
 25 26  1  0
 26 27  2  0
 27 28  1  0
 28 29  2  0
 22 30  1  0
 20 31  1  0
 31 32  2  0
 31 33  1  0
 12 34  1  0
 34 35  2  0
 35 36  1  0
  2 37  1  0
 37 38  2  0
 38 39  1  0
 39 40  1  0
 39 41  2  0
 41 42  1  0
 42 43  2  0
 29 24  1  0
 30 18  2  0
 33  8  1  0
 36 10  2  0
 43 37  1  0
M  CHG  1  22   1
M  END
$$$$
