
     RDKit          3D

 43 47  0  0  0  0  0  0  0  0999 V2000
  -14.1075  -38.8963  -10.2945 C   0  0  0  0  0  0  0  0  0  0  0  0
  -15.1959  -37.9686   -9.7920 C   0  0  0  0  0  0  0  0  0  0  0  0
  -14.8161  -36.5377   -9.6784 C   0  0  0  0  0  0  0  0  0  0  0  0
  -15.8185  -38.4325   -8.6040 N   0  0  0  0  0  0  0  0  0  0  0  0
  -16.8630  -37.7532   -8.0275 C   0  0  0  0  0  0  0  0  0  0  0  0
  -17.9408  -38.4090   -7.2729 C   0  0  1  0  0  0  0  0  0  0  0  0
  -18.8015  -37.5897   -6.5708 O   0  0  0  0  0  0  0  0  0  0  0  0
  -18.6640  -39.4518   -8.1384 C   0  0  2  0  0  0  0  0  0  0  0  0
  -20.1168  -39.4404   -8.0841 C   0  0  0  0  0  0  0  0  0  0  0  0
  -20.9130  -39.4542   -6.8431 C   0  0  0  0  0  0  0  0  0  0  0  0
  -20.7193  -40.0204   -5.5997 C   0  0  0  0  0  0  0  0  0  0  0  0
  -21.7026  -39.9111   -4.6527 C   0  0  0  0  0  0  0  0  0  0  0  0
  -21.7944  -40.4459   -3.2646 C   0  0  0  0  0  0  0  0  0  0  0  0
  -22.8367  -41.5658   -3.3192 C   0  0  0  0  0  0  0  0  0  0  0  0
  -22.3588  -42.8344   -3.9441 C   0  0  0  0  0  0  0  0  0  0  0  0
  -23.2446  -43.1190   -5.1386 C   0  0  0  0  0  0  0  0  0  0  0  0
  -22.6007  -43.9578   -6.1331 N   0  0  0  0  0  0  0  0  0  0  0  0
  -21.6458  -43.6411   -7.1524 C   0  0  0  0  0  0  0  0  0  0  0  0
  -20.4344  -42.9777   -7.0972 C   0  0  0  0  0  0  0  0  0  0  0  0
  -19.7458  -42.7327   -8.2686 C   0  0  0  0  0  0  0  0  0  0  0  0
  -20.3337  -43.1961   -9.4766 C   0  0  0  0  0  0  0  0  0  0  0  0
  -21.4900  -43.8410   -9.5671 N   0  0  0  0  0  4  0  0  0  0  0  0
  -22.0356  -44.2894  -10.8427 C   0  0  0  0  0  0  0  0  0  0  0  0
  -23.4889  -44.2857  -10.8816 C   0  0  0  0  0  0  0  0  0  0  0  0
  -24.2056  -45.3130  -10.3113 C   0  0  0  0  0  0  0  0  0  0  0  0
  -25.6093  -45.3070  -10.3464 C   0  0  0  0  0  0  0  0  0  0  0  0
  -26.2737  -44.2672  -10.9550 C   0  0  0  0  0  0  0  0  0  0  0  0
  -25.5608  -43.2318  -11.5303 C   0  0  0  0  0  0  0  0  0  0  0  0
  -24.1705  -43.2532  -11.4872 C   0  0  0  0  0  0  0  0  0  0  0  0
  -22.1304  -44.0558   -8.4181 C   0  0  0  0  0  0  0  0  0  0  0  0
  -18.4902  -42.0036   -8.5197 C   0  0  0  0  0  0  0  0  0  0  0  0
  -17.6265  -42.6058   -9.3102 O   0  0  0  0  0  0  0  0  0  0  0  0
  -18.0080  -40.7489   -8.0744 N   0  0  0  0  0  0  0  0  0  0  0  0
  -22.9081  -39.2143   -4.9623 C   0  0  0  0  0  0  0  0  0  0  0  0
  -23.1480  -38.6377   -6.1706 C   0  0  0  0  0  0  0  0  0  0  0  0
  -22.1419  -38.7710   -7.0866 C   0  0  0  0  0  0  0  0  0  0  0  0
  -16.2628  -38.0666  -10.8636 C   0  0  0  0  0  0  0  0  0  0  0  0
  -17.0145  -39.1878  -11.0462 C   0  0  0  0  0  0  0  0  0  0  0  0
  -17.9775  -39.2547  -12.0327 C   0  0  0  0  0  0  0  0  0  0  0  0
  -19.0481  -40.8030  -12.3208 Br  0  0  0  0  0  0  0  0  0  0  0  0
  -18.2059  -38.1676  -12.8717 C   0  0  0  0  0  0  0  0  0  0  0  0
  -17.4427  -37.0298  -12.6861 C   0  0  0  0  0  0  0  0  0  0  0  0
  -16.4948  -36.9978  -11.6969 C   0  0  0  0  0  0  0  0  0  0  0  0
  1  2  1  0
  2  3  1  0
  2  4  1  0
  4  5  1  0
  5  6  1  0
  6  7  1  6
  6  8  1  0
  8  9  1  1
  9 10  1  0
 10 11  1  0
 11 12  2  0
 12 13  1  0
 13 14  1  0
 14 15  1  0
 15 16  1  0
 16 17  1  0
 17 18  1  0
 18 19  1  0
 19 20  2  0
 20 21  1  0
 21 22  2  0
 22 23  1  0
 23 24  1  0
 24 25  2  0
 25 26  1  0
 26 27  2  0
 27 28  1  0
 28 29  2  0
 22 30  1  0
 20 31  1  0
 31 32  2  0
 31 33  1  0
 12 34  1  0
 34 35  2  0
 35 36  1  0
  2 37  1  0
 37 38  2  0
 38 39  1  0
 39 40  1  0
 39 41  2  0
 41 42  1  0
 42 43  2  0
 29 24  1  0
 30 18  2  0
 33  8  1  0
 36 10  2  0
 43 37  1  0
M  CHG  1  22   1
M  END
$$$$
