
     RDKit          3D

 43 47  0  0  0  0  0  0  0  0999 V2000
  -14.1675  -42.1092   -8.5865 C   0  0  0  0  0  0  0  0  0  0  0  0
  -14.2980  -40.6870   -9.0948 C   0  0  0  0  0  0  0  0  0  0  0  0
  -13.1109  -40.1497   -9.8067 C   0  0  0  0  0  0  0  0  0  0  0  0
  -14.7584  -39.7814   -8.1037 N   0  0  0  0  0  0  0  0  0  0  0  0
  -15.7784  -38.8979   -8.3558 C   0  0  0  0  0  0  0  0  0  0  0  0
  -17.1384  -39.0527   -7.8194 C   0  0  1  0  0  0  0  0  0  0  0  0
  -17.9920  -37.9770   -7.9576 O   0  0  0  0  0  0  0  0  0  0  0  0
  -17.7597  -40.3838   -8.2687 C   0  0  2  0  0  0  0  0  0  0  0  0
  -19.1602  -40.3442   -8.6569 C   0  0  0  0  0  0  0  0  0  0  0  0
  -20.2410  -39.7486   -7.8498 C   0  0  0  0  0  0  0  0  0  0  0  0
  -20.4570  -39.6360   -6.4916 C   0  0  0  0  0  0  0  0  0  0  0  0
  -21.6233  -39.0761   -6.0423 C   0  0  0  0  0  0  0  0  0  0  0  0
  -22.1445  -38.8648   -4.6621 C   0  0  0  0  0  0  0  0  0  0  0  0
  -23.2898  -39.8665   -4.4929 C   0  0  0  0  0  0  0  0  0  0  0  0
  -22.8579  -41.2797   -4.2822 C   0  0  0  0  0  0  0  0  0  0  0  0
  -23.4398  -42.1094   -5.4071 C   0  0  0  0  0  0  0  0  0  0  0  0
  -22.6919  -43.3284   -5.6562 N   0  0  0  0  0  0  0  0  0  0  0  0
  -21.4722  -43.5518   -6.3726 C   0  0  0  0  0  0  0  0  0  0  0  0
  -20.2321  -42.9486   -6.2786 C   0  0  0  0  0  0  0  0  0  0  0  0
  -19.2383  -43.3083   -7.1671 C   0  0  0  0  0  0  0  0  0  0  0  0
  -19.5581  -44.3012   -8.1321 C   0  0  0  0  0  0  0  0  0  0  0  0
  -20.7338  -44.9057   -8.2479 N   0  0  0  0  0  4  0  0  0  0  0  0
  -20.9937  -45.9187   -9.2640 C   0  0  0  0  0  0  0  0  0  0  0  0
  -22.3866  -46.3306   -9.3246 C   0  0  0  0  0  0  0  0  0  0  0  0
  -22.9392  -47.0772   -8.3091 C   0  0  0  0  0  0  0  0  0  0  0  0
  -24.2856  -47.4718   -8.3669 C   0  0  0  0  0  0  0  0  0  0  0  0
  -25.0585  -47.1098   -9.4460 C   0  0  0  0  0  0  0  0  0  0  0  0
  -24.5106  -46.3601  -10.4702 C   0  0  0  0  0  0  0  0  0  0  0  0
  -23.1750  -45.9777  -10.3976 C   0  0  0  0  0  0  0  0  0  0  0  0
  -21.6715  -44.5307   -7.3781 C   0  0  0  0  0  0  0  0  0  0  0  0
  -17.8679  -42.7974   -7.3463 C   0  0  0  0  0  0  0  0  0  0  0  0
  -16.9278  -43.7108   -7.4706 O   0  0  0  0  0  0  0  0  0  0  0  0
  -17.3383  -41.4860   -7.4175 N   0  0  0  0  0  0  0  0  0  0  0  0
  -22.5944  -38.6166   -6.9806 C   0  0  0  0  0  0  0  0  0  0  0  0
  -22.4301  -38.7028   -8.3281 C   0  0  0  0  0  0  0  0  0  0  0  0
  -21.2534  -39.2686   -8.7335 C   0  0  0  0  0  0  0  0  0  0  0  0
  -15.4246  -40.7772  -10.1042 C   0  0  0  0  0  0  0  0  0  0  0  0
  -15.8644  -39.6964  -10.8070 C   0  0  0  0  0  0  0  0  0  0  0  0
  -16.8959  -39.8027  -11.7180 C   0  0  0  0  0  0  0  0  0  0  0  0
  -17.5402  -38.3165  -12.7192 Br  0  0  0  0  0  0  0  0  0  0  0  0
  -17.5163  -41.0284  -11.9426 C   0  0  0  0  0  0  0  0  0  0  0  0
  -17.0696  -42.1251  -11.2291 C   0  0  0  0  0  0  0  0  0  0  0  0
  -16.0432  -41.9838  -10.3321 C   0  0  0  0  0  0  0  0  0  0  0  0
  1  2  1  0
  2  3  1  0
  2  4  1  0
  4  5  1  0
  5  6  1  0
  6  7  1  6
  6  8  1  0
  8  9  1  1
  9 10  1  0
 10 11  1  0
 11 12  2  0
 12 13  1  0
 13 14  1  0
 14 15  1  0
 15 16  1  0
 16 17  1  0
 17 18  1  0
 18 19  1  0
 19 20  2  0
 20 21  1  0
 21 22  2  0
 22 23  1  0
 23 24  1  0
 24 25  2  0
 25 26  1  0
 26 27  2  0
 27 28  1  0
 28 29  2  0
 22 30  1  0
 20 31  1  0
 31 32  2  0
 31 33  1  0
 12 34  1  0
 34 35  2  0
 35 36  1  0
  2 37  1  0
 37 38  2  0
 38 39  1  0
 39 40  1  0
 39 41  2  0
 41 42  1  0
 42 43  2  0
 29 24  1  0
 30 18  2  0
 33  8  1  0
 36 10  2  0
 43 37  1  0
M  CHG  1  22   1
M  END
$$$$
