
     RDKit          3D

 43 47  0  0  0  0  0  0  0  0999 V2000
  -12.9317  -40.3192   -8.3555 C   0  0  0  0  0  0  0  0  0  0  0  0
  -13.5264  -39.3221   -9.3302 C   0  0  0  0  0  0  0  0  0  0  0  0
  -12.5616  -38.3796   -9.9511 C   0  0  0  0  0  0  0  0  0  0  0  0
  -14.6532  -38.6360   -8.8069 N   0  0  0  0  0  0  0  0  0  0  0  0
  -15.5345  -39.2493   -7.9515 C   0  0  0  0  0  0  0  0  0  0  0  0
  -16.9398  -38.8432   -7.8044 C   0  0  1  0  0  0  0  0  0  0  0  0
  -17.2470  -37.5315   -8.1044 O   0  0  0  0  0  0  0  0  0  0  0  0
  -17.8793  -39.8567   -8.4750 C   0  0  2  0  0  0  0  0  0  0  0  0
  -19.3038  -39.5874   -8.3653 C   0  0  0  0  0  0  0  0  0  0  0  0
  -20.0096  -39.2893   -7.1054 C   0  0  0  0  0  0  0  0  0  0  0  0
  -19.8321  -39.7001   -5.8001 C   0  0  0  0  0  0  0  0  0  0  0  0
  -20.7207  -39.2910   -4.8418 C   0  0  0  0  0  0  0  0  0  0  0  0
  -20.8096  -39.6017   -3.3868 C   0  0  0  0  0  0  0  0  0  0  0  0
  -22.0236  -40.5215   -3.2320 C   0  0  0  0  0  0  0  0  0  0  0  0
  -21.8026  -41.9284   -3.6790 C   0  0  0  0  0  0  0  0  0  0  0  0
  -22.7984  -42.2208   -4.7814 C   0  0  0  0  0  0  0  0  0  0  0  0
  -22.3671  -43.2893   -5.6643 N   0  0  0  0  0  0  0  0  0  0  0  0
  -21.4408  -43.2884   -6.7566 C   0  0  0  0  0  0  0  0  0  0  0  0
  -20.1357  -42.8428   -6.8493 C   0  0  0  0  0  0  0  0  0  0  0  0
  -19.4932  -42.8872   -8.0706 C   0  0  0  0  0  0  0  0  0  0  0  0
  -20.2261  -43.4072   -9.1715 C   0  0  0  0  0  0  0  0  0  0  0  0
  -21.4763  -43.8493   -9.1186 N   0  0  0  0  0  4  0  0  0  0  0  0
  -22.1695  -44.3715  -10.2903 C   0  0  0  0  0  0  0  0  0  0  0  0
  -23.6024  -44.1263  -10.2695 C   0  0  0  0  0  0  0  0  0  0  0  0
  -24.0933  -42.8791   -9.9571 C   0  0  0  0  0  0  0  0  0  0  0  0
  -25.4773  -42.6424   -9.9405 C   0  0  0  0  0  0  0  0  0  0  0  0
  -26.3493  -43.6639  -10.2386 C   0  0  0  0  0  0  0  0  0  0  0  0
  -25.8639  -44.9195  -10.5531 C   0  0  0  0  0  0  0  0  0  0  0  0
  -24.4900  -45.1374  -10.5647 C   0  0  0  0  0  0  0  0  0  0  0  0
  -22.0679  -43.7869   -7.9259 C   0  0  0  0  0  0  0  0  0  0  0  0
  -18.1535  -42.4282   -8.4776 C   0  0  0  0  0  0  0  0  0  0  0  0
  -17.4537  -43.2753   -9.2030 O   0  0  0  0  0  0  0  0  0  0  0  0
  -17.4433  -41.2255   -8.2442 N   0  0  0  0  0  0  0  0  0  0  0  0
  -21.8123  -38.4472   -5.2037 C   0  0  0  0  0  0  0  0  0  0  0  0
  -22.0314  -38.0133   -6.4741 C   0  0  0  0  0  0  0  0  0  0  0  0
  -21.1223  -38.4455   -7.3991 C   0  0  0  0  0  0  0  0  0  0  0  0
  -14.0746  -40.1986  -10.4381 C   0  0  0  0  0  0  0  0  0  0  0  0
  -13.8922  -41.5483  -10.4602 C   0  0  0  0  0  0  0  0  0  0  0  0
  -14.3973  -42.3252  -11.4832 C   0  0  0  0  0  0  0  0  0  0  0  0
  -14.1634  -44.2139  -11.5513 Br  0  0  0  0  0  0  0  0  0  0  0  0
  -15.1124  -41.7424  -12.5256 C   0  0  0  0  0  0  0  0  0  0  0  0
  -15.2974  -40.3725  -12.5028 C   0  0  0  0  0  0  0  0  0  0  0  0
  -14.7818  -39.6313  -11.4718 C   0  0  0  0  0  0  0  0  0  0  0  0
  1  2  1  0
  2  3  1  0
  2  4  1  0
  4  5  1  0
  5  6  1  0
  6  7  1  6
  6  8  1  0
  8  9  1  1
  9 10  1  0
 10 11  1  0
 11 12  2  0
 12 13  1  0
 13 14  1  0
 14 15  1  0
 15 16  1  0
 16 17  1  0
 17 18  1  0
 18 19  1  0
 19 20  2  0
 20 21  1  0
 21 22  2  0
 22 23  1  0
 23 24  1  0
 24 25  2  0
 25 26  1  0
 26 27  2  0
 27 28  1  0
 28 29  2  0
 22 30  1  0
 20 31  1  0
 31 32  2  0
 31 33  1  0
 12 34  1  0
 34 35  2  0
 35 36  1  0
  2 37  1  0
 37 38  2  0
 38 39  1  0
 39 40  1  0
 39 41  2  0
 41 42  1  0
 42 43  2  0
 29 24  1  0
 30 18  2  0
 33  8  1  0
 36 10  2  0
 43 37  1  0
M  CHG  1  22   1
M  END
$$$$
