
     RDKit          3D

 43 47  0  0  0  0  0  0  0  0999 V2000
  -15.3295  -39.7984  -10.3729 C   0  0  0  0  0  0  0  0  0  0  0  0
  -14.6637  -38.5025   -9.9544 C   0  0  0  0  0  0  0  0  0  0  0  0
  -13.1792  -38.5055   -9.9860 C   0  0  0  0  0  0  0  0  0  0  0  0
  -15.1520  -37.9986   -8.7207 N   0  0  0  0  0  0  0  0  0  0  0  0
  -16.4736  -37.6674   -8.5524 C   0  0  0  0  0  0  0  0  0  0  0  0
  -17.3930  -38.4120   -7.6798 C   0  0  1  0  0  0  0  0  0  0  0  0
  -18.4977  -37.7318   -7.2087 O   0  0  0  0  0  0  0  0  0  0  0  0
  -17.7342  -39.7837   -8.2814 C   0  0  2  0  0  0  0  0  0  0  0  0
  -19.1201  -39.9927   -8.6675 C   0  0  0  0  0  0  0  0  0  0  0  0
  -20.2841  -39.7303   -7.8012 C   0  0  0  0  0  0  0  0  0  0  0  0
  -20.4910  -39.8197   -6.4398 C   0  0  0  0  0  0  0  0  0  0  0  0
  -21.7385  -39.5693   -5.9334 C   0  0  0  0  0  0  0  0  0  0  0  0
  -22.2639  -39.6288   -4.5399 C   0  0  0  0  0  0  0  0  0  0  0  0
  -23.1731  -40.8596   -4.4912 C   0  0  0  0  0  0  0  0  0  0  0  0
  -22.4536  -42.1665   -4.4428 C   0  0  0  0  0  0  0  0  0  0  0  0
  -22.8739  -42.9663   -5.6578 C   0  0  0  0  0  0  0  0  0  0  0  0
  -21.8950  -43.9668   -6.0426 N   0  0  0  0  0  0  0  0  0  0  0  0
  -20.6703  -43.8488   -6.7756 C   0  0  0  0  0  0  0  0  0  0  0  0
  -19.5804  -43.0153   -6.6084 C   0  0  0  0  0  0  0  0  0  0  0  0
  -18.5520  -43.0573   -7.5287 C   0  0  0  0  0  0  0  0  0  0  0  0
  -18.6788  -43.9793   -8.6027 C   0  0  0  0  0  0  0  0  0  0  0  0
  -19.7059  -44.7981   -8.7915 N   0  0  0  0  0  4  0  0  0  0  0  0
  -19.7710  -45.7213   -9.9182 C   0  0  0  0  0  0  0  0  0  0  0  0
  -20.1273  -47.0772   -9.5329 C   0  0  0  0  0  0  0  0  0  0  0  0
  -19.3483  -47.7772   -8.6401 C   0  0  0  0  0  0  0  0  0  0  0  0
  -19.6950  -49.0856   -8.2661 C   0  0  0  0  0  0  0  0  0  0  0  0
  -20.8212  -49.6723   -8.7953 C   0  0  0  0  0  0  0  0  0  0  0  0
  -21.6087  -48.9756   -9.6929 C   0  0  0  0  0  0  0  0  0  0  0  0
  -21.2510  -47.6804  -10.0533 C   0  0  0  0  0  0  0  0  0  0  0  0
  -20.6830  -44.7274   -7.8877 C   0  0  0  0  0  0  0  0  0  0  0  0
  -17.3211  -42.2554   -7.6430 C   0  0  0  0  0  0  0  0  0  0  0  0
  -16.2149  -42.9331   -7.8681 O   0  0  0  0  0  0  0  0  0  0  0  0
  -17.0762  -40.8631   -7.5610 N   0  0  0  0  0  0  0  0  0  0  0  0
  -22.8027  -39.2188   -6.8161 C   0  0  0  0  0  0  0  0  0  0  0  0
  -22.6516  -39.1158   -8.1639 C   0  0  0  0  0  0  0  0  0  0  0  0
  -21.3918  -39.3747   -8.6275 C   0  0  0  0  0  0  0  0  0  0  0  0
  -15.1334  -37.5127  -11.0013 C   0  0  0  0  0  0  0  0  0  0  0  0
  -14.5842  -36.2733  -11.1337 C   0  0  0  0  0  0  0  0  0  0  0  0
  -15.0325  -35.3871  -12.0923 C   0  0  0  0  0  0  0  0  0  0  0  0
  -14.2923  -33.6460  -12.3091 Br  0  0  0  0  0  0  0  0  0  0  0  0
  -16.0657  -35.7427  -12.9548 C   0  0  0  0  0  0  0  0  0  0  0  0
  -16.6229  -37.0008  -12.8200 C   0  0  0  0  0  0  0  0  0  0  0  0
  -16.1535  -37.8555  -11.8570 C   0  0  0  0  0  0  0  0  0  0  0  0
  1  2  1  0
  2  3  1  0
  2  4  1  0
  4  5  1  0
  5  6  1  0
  6  7  1  6
  6  8  1  0
  8  9  1  1
  9 10  1  0
 10 11  1  0
 11 12  2  0
 12 13  1  0
 13 14  1  0
 14 15  1  0
 15 16  1  0
 16 17  1  0
 17 18  1  0
 18 19  1  0
 19 20  2  0
 20 21  1  0
 21 22  2  0
 22 23  1  0
 23 24  1  0
 24 25  2  0
 25 26  1  0
 26 27  2  0
 27 28  1  0
 28 29  2  0
 22 30  1  0
 20 31  1  0
 31 32  2  0
 31 33  1  0
 12 34  1  0
 34 35  2  0
 35 36  1  0
  2 37  1  0
 37 38  2  0
 38 39  1  0
 39 40  1  0
 39 41  2  0
 41 42  1  0
 42 43  2  0
 29 24  1  0
 30 18  2  0
 33  8  1  0
 36 10  2  0
 43 37  1  0
M  CHG  1  22   1
M  END
$$$$
