
     RDKit          3D

 43 47  0  0  0  0  0  0  0  0999 V2000
  -20.0711  -35.2594  -11.5701 C   0  0  0  0  0  0  0  0  0  0  0  0
  -20.0253  -36.6962  -11.0891 C   0  0  0  0  0  0  0  0  0  0  0  0
  -21.3291  -37.4063  -11.0668 C   0  0  0  0  0  0  0  0  0  0  0  0
  -19.3333  -36.8501   -9.8595 N   0  0  0  0  0  0  0  0  0  0  0  0
  -17.9620  -36.8862   -9.8063 C   0  0  0  0  0  0  0  0  0  0  0  0
  -17.1999  -38.0163   -9.2557 C   0  0  1  0  0  0  0  0  0  0  0  0
  -16.0853  -37.7113   -8.5010 O   0  0  0  0  0  0  0  0  0  0  0  0
  -18.1325  -39.0328   -8.5798 C   0  0  2  0  0  0  0  0  0  0  0  0
  -17.7827  -39.4290   -7.2254 C   0  0  0  0  0  0  0  0  0  0  0  0
  -16.4492  -39.8951   -6.8025 C   0  0  0  0  0  0  0  0  0  0  0  0
  -15.4528  -40.6124   -7.4323 C   0  0  0  0  0  0  0  0  0  0  0  0
  -14.3289  -40.9575   -6.7298 C   0  0  0  0  0  0  0  0  0  0  0  0
  -13.1295  -41.7506   -7.1220 C   0  0  0  0  0  0  0  0  0  0  0  0
  -13.2486  -43.0810   -6.3739 C   0  0  0  0  0  0  0  0  0  0  0  0
  -14.2540  -44.0281   -6.9397 C   0  0  0  0  0  0  0  0  0  0  0  0
  -15.2757  -44.3115   -5.8588 C   0  0  0  0  0  0  0  0  0  0  0  0
  -16.5576  -44.7379   -6.3901 N   0  0  0  0  0  0  0  0  0  0  0  0
  -17.6378  -43.9849   -6.9534 C   0  0  0  0  0  0  0  0  0  0  0  0
  -17.6664  -43.0392   -7.9609 C   0  0  0  0  0  0  0  0  0  0  0  0
  -18.8544  -42.3977   -8.2500 C   0  0  0  0  0  0  0  0  0  0  0  0
  -19.9941  -42.7657   -7.4851 C   0  0  0  0  0  0  0  0  0  0  0  0
  -20.0055  -43.6723   -6.5161 N   0  0  0  0  0  4  0  0  0  0  0  0
  -21.2142  -44.0019   -5.7700 C   0  0  0  0  0  0  0  0  0  0  0  0
  -22.3052  -43.0684   -5.9982 C   0  0  0  0  0  0  0  0  0  0  0  0
  -23.0109  -43.0939   -7.1795 C   0  0  0  0  0  0  0  0  0  0  0  0
  -24.0666  -42.1941   -7.3977 C   0  0  0  0  0  0  0  0  0  0  0  0
  -24.3986  -41.2804   -6.4241 C   0  0  0  0  0  0  0  0  0  0  0  0
  -23.6943  -41.2484   -5.2350 C   0  0  0  0  0  0  0  0  0  0  0  0
  -22.6508  -42.1465   -5.0349 C   0  0  0  0  0  0  0  0  0  0  0  0
  -18.8411  -44.2680   -6.2598 C   0  0  0  0  0  0  0  0  0  0  0  0
  -19.1656  -41.3196   -9.2051 C   0  0  0  0  0  0  0  0  0  0  0  0
  -20.2400  -41.5016   -9.9440 O   0  0  0  0  0  0  0  0  0  0  0  0
  -18.5290  -40.0892   -9.4984 N   0  0  0  0  0  0  0  0  0  0  0  0
  -14.2029  -40.5707   -5.3627 C   0  0  0  0  0  0  0  0  0  0  0  0
  -15.1542  -39.8629   -4.6963 C   0  0  0  0  0  0  0  0  0  0  0  0
  -16.2593  -39.5400   -5.4335 C   0  0  0  0  0  0  0  0  0  0  0  0
  -19.1564  -37.3846  -12.1224 C   0  0  0  0  0  0  0  0  0  0  0  0
  -19.2041  -38.7285  -12.3390 C   0  0  0  0  0  0  0  0  0  0  0  0
  -18.3990  -39.3334  -13.2830 C   0  0  0  0  0  0  0  0  0  0  0  0
  -18.4348  -41.2082  -13.6152 Br  0  0  0  0  0  0  0  0  0  0  0  0
  -17.5116  -38.5771  -14.0434 C   0  0  0  0  0  0  0  0  0  0  0  0
  -17.4635  -37.2131  -13.8232 C   0  0  0  0  0  0  0  0  0  0  0  0
  -18.2769  -36.6453  -12.8777 C   0  0  0  0  0  0  0  0  0  0  0  0
  1  2  1  0
  2  3  1  0
  2  4  1  0
  4  5  1  0
  5  6  1  0
  6  7  1  1
  6  8  1  0
  8  9  1  1
  9 10  1  0
 10 11  1  0
 11 12  2  0
 12 13  1  0
 13 14  1  0
 14 15  1  0
 15 16  1  0
 16 17  1  0
 17 18  1  0
 18 19  1  0
 19 20  2  0
 20 21  1  0
 21 22  2  0
 22 23  1  0
 23 24  1  0
 24 25  2  0
 25 26  1  0
 26 27  2  0
 27 28  1  0
 28 29  2  0
 22 30  1  0
 20 31  1  0
 31 32  2  0
 31 33  1  0
 12 34  1  0
 34 35  2  0
 35 36  1  0
  2 37  1  0
 37 38  2  0
 38 39  1  0
 39 40  1  0
 39 41  2  0
 41 42  1  0
 42 43  2  0
 29 24  1  0
 30 18  2  0
 33  8  1  0
 36 10  2  0
 43 37  1  0
M  CHG  1  22   1
M  END
$$$$
