
     RDKit          3D

 43 47  0  0  0  0  0  0  0  0999 V2000
  -12.9698  -40.2833   -9.1479 C   0  0  0  0  0  0  0  0  0  0  0  0
  -14.1674  -39.3739   -9.3386 C   0  0  0  0  0  0  0  0  0  0  0  0
  -13.8815  -38.0623   -9.9730 C   0  0  0  0  0  0  0  0  0  0  0  0
  -14.9420  -39.2183   -8.1595 N   0  0  0  0  0  0  0  0  0  0  0  0
  -16.0916  -38.4682   -8.1487 C   0  0  0  0  0  0  0  0  0  0  0  0
  -17.3438  -38.9096   -7.5175 C   0  0  1  0  0  0  0  0  0  0  0  0
  -18.3756  -37.9943   -7.4663 O   0  0  0  0  0  0  0  0  0  0  0  0
  -17.7756  -40.2837   -8.0516 C   0  0  2  0  0  0  0  0  0  0  0  0
  -19.1410  -40.3865   -8.5403 C   0  0  0  0  0  0  0  0  0  0  0  0
  -20.3365  -39.9476   -7.7971 C   0  0  0  0  0  0  0  0  0  0  0  0
  -20.6579  -39.9125   -6.4556 C   0  0  0  0  0  0  0  0  0  0  0  0
  -21.9091  -39.5048   -6.0765 C   0  0  0  0  0  0  0  0  0  0  0  0
  -22.5459  -39.4069   -4.7325 C   0  0  0  0  0  0  0  0  0  0  0  0
  -23.5777  -40.5366   -4.6786 C   0  0  0  0  0  0  0  0  0  0  0  0
  -23.0022  -41.8995   -4.4799 C   0  0  0  0  0  0  0  0  0  0  0  0
  -23.4054  -42.7451   -5.6693 C   0  0  0  0  0  0  0  0  0  0  0  0
  -22.5071  -43.8620   -5.8997 N   0  0  0  0  0  0  0  0  0  0  0  0
  -21.2229  -43.9192   -6.5310 C   0  0  0  0  0  0  0  0  0  0  0  0
  -20.0698  -43.1847   -6.3278 C   0  0  0  0  0  0  0  0  0  0  0  0
  -18.9819  -43.3960   -7.1514 C   0  0  0  0  0  0  0  0  0  0  0  0
  -19.1178  -44.3805   -8.1671 C   0  0  0  0  0  0  0  0  0  0  0  0
  -20.2055  -45.1081   -8.3874 N   0  0  0  0  0  4  0  0  0  0  0  0
  -20.2761  -46.1039   -9.4502 C   0  0  0  0  0  0  0  0  0  0  0  0
  -19.5684  -47.3343   -9.1356 C   0  0  0  0  0  0  0  0  0  0  0  0
  -18.7004  -47.8932  -10.0458 C   0  0  0  0  0  0  0  0  0  0  0  0
  -18.0148  -49.0798   -9.7398 C   0  0  0  0  0  0  0  0  0  0  0  0
  -18.2114  -49.6885   -8.5218 C   0  0  0  0  0  0  0  0  0  0  0  0
  -19.0819  -49.1334   -7.6024 C   0  0  0  0  0  0  0  0  0  0  0  0
  -19.7536  -47.9576   -7.9214 C   0  0  0  0  0  0  0  0  0  0  0  0
  -21.2382  -44.8747   -7.5778 C   0  0  0  0  0  0  0  0  0  0  0  0
  -17.6700  -42.7279   -7.2137 C   0  0  0  0  0  0  0  0  0  0  0  0
  -16.6250  -43.5245   -7.2963 O   0  0  0  0  0  0  0  0  0  0  0  0
  -17.2907  -41.3637   -7.2057 N   0  0  0  0  0  0  0  0  0  0  0  0
  -22.8589  -39.1213   -7.0691 C   0  0  0  0  0  0  0  0  0  0  0  0
  -22.5924  -39.1364   -8.4029 C   0  0  0  0  0  0  0  0  0  0  0  0
  -21.3333  -39.5504   -8.7378 C   0  0  0  0  0  0  0  0  0  0  0  0
  -15.0502  -40.1519  -10.2935 C   0  0  0  0  0  0  0  0  0  0  0  0
  -15.3462  -41.4684  -10.1072 C   0  0  0  0  0  0  0  0  0  0  0  0
  -16.1490  -42.1571  -10.9939 C   0  0  0  0  0  0  0  0  0  0  0  0
  -16.5855  -43.9971  -10.7697 Br  0  0  0  0  0  0  0  0  0  0  0  0
  -16.6807  -41.5164  -12.1095 C   0  0  0  0  0  0  0  0  0  0  0  0
  -16.3800  -40.1802  -12.2983 C   0  0  0  0  0  0  0  0  0  0  0  0
  -15.5792  -39.5271  -11.3982 C   0  0  0  0  0  0  0  0  0  0  0  0
  1  2  1  0
  2  3  1  0
  2  4  1  0
  4  5  1  0
  5  6  1  0
  6  7  1  6
  6  8  1  0
  8  9  1  1
  9 10  1  0
 10 11  1  0
 11 12  2  0
 12 13  1  0
 13 14  1  0
 14 15  1  0
 15 16  1  0
 16 17  1  0
 17 18  1  0
 18 19  1  0
 19 20  2  0
 20 21  1  0
 21 22  2  0
 22 23  1  0
 23 24  1  0
 24 25  2  0
 25 26  1  0
 26 27  2  0
 27 28  1  0
 28 29  2  0
 22 30  1  0
 20 31  1  0
 31 32  2  0
 31 33  1  0
 12 34  1  0
 34 35  2  0
 35 36  1  0
  2 37  1  0
 37 38  2  0
 38 39  1  0
 39 40  1  0
 39 41  2  0
 41 42  1  0
 42 43  2  0
 29 24  1  0
 30 18  2  0
 33  8  1  0
 36 10  2  0
 43 37  1  0
M  CHG  1  22   1
M  END
$$$$
