
     RDKit          3D

 43 47  0  0  0  0  0  0  0  0999 V2000
  -13.6228  -37.4938  -10.7570 C   0  0  0  0  0  0  0  0  0  0  0  0
  -14.8039  -38.1274  -10.0490 C   0  0  0  0  0  0  0  0  0  0  0  0
  -16.1129  -37.9875  -10.7357 C   0  0  0  0  0  0  0  0  0  0  0  0
  -14.8970  -37.7583   -8.6817 N   0  0  0  0  0  0  0  0  0  0  0  0
  -15.3446  -38.6391   -7.7285 C   0  0  0  0  0  0  0  0  0  0  0  0
  -16.7639  -38.8170   -7.3893 C   0  0  1  0  0  0  0  0  0  0  0  0
  -17.5724  -37.7015   -7.4741 O   0  0  0  0  0  0  0  0  0  0  0  0
  -17.3496  -40.0479   -8.0974 C   0  0  2  0  0  0  0  0  0  0  0  0
  -18.7563  -39.9771   -8.4577 C   0  0  0  0  0  0  0  0  0  0  0  0
  -19.8432  -39.5967   -7.5366 C   0  0  0  0  0  0  0  0  0  0  0  0
  -20.0422  -39.7725   -6.1825 C   0  0  0  0  0  0  0  0  0  0  0  0
  -21.2187  -39.3565   -5.6182 C   0  0  0  0  0  0  0  0  0  0  0  0
  -21.7256  -39.4507   -4.2198 C   0  0  0  0  0  0  0  0  0  0  0  0
  -22.8360  -40.5041   -4.2507 C   0  0  0  0  0  0  0  0  0  0  0  0
  -22.3566  -41.9149   -4.3385 C   0  0  0  0  0  0  0  0  0  0  0  0
  -22.9289  -42.5155   -5.6050 C   0  0  0  0  0  0  0  0  0  0  0  0
  -22.1468  -43.6315   -6.1054 N   0  0  0  0  0  0  0  0  0  0  0  0
  -20.9315  -43.6616   -6.8624 C   0  0  0  0  0  0  0  0  0  0  0  0
  -19.7098  -43.0488   -6.6567 C   0  0  0  0  0  0  0  0  0  0  0  0
  -18.7185  -43.1846   -7.6082 C   0  0  0  0  0  0  0  0  0  0  0  0
  -19.0213  -43.9687   -8.7540 C   0  0  0  0  0  0  0  0  0  0  0  0
  -20.1790  -44.5762   -8.9819 N   0  0  0  0  0  4  0  0  0  0  0  0
  -20.4220  -45.3674  -10.1823 C   0  0  0  0  0  0  0  0  0  0  0  0
  -19.2161  -45.9633  -10.7341 C   0  0  0  0  0  0  0  0  0  0  0  0
  -18.3439  -45.2079  -11.4843 C   0  0  0  0  0  0  0  0  0  0  0  0
  -17.1778  -45.7835  -12.0141 C   0  0  0  0  0  0  0  0  0  0  0  0
  -16.9044  -47.1117  -11.7819 C   0  0  0  0  0  0  0  0  0  0  0  0
  -17.7757  -47.8770  -11.0296 C   0  0  0  0  0  0  0  0  0  0  0  0
  -18.9268  -47.2916  -10.5122 C   0  0  0  0  0  0  0  0  0  0  0  0
  -21.1148  -44.4196   -8.0459 C   0  0  0  0  0  0  0  0  0  0  0  0
  -17.3678  -42.6016   -7.6898 C   0  0  0  0  0  0  0  0  0  0  0  0
  -16.4013  -43.4376   -8.0068 O   0  0  0  0  0  0  0  0  0  0  0  0
  -16.8809  -41.2863   -7.4943 N   0  0  0  0  0  0  0  0  0  0  0  0
  -22.2177  -38.7476   -6.4341 C   0  0  0  0  0  0  0  0  0  0  0  0
  -22.0710  -38.5499   -7.7718 C   0  0  0  0  0  0  0  0  0  0  0  0
  -20.8833  -38.9803   -8.2945 C   0  0  0  0  0  0  0  0  0  0  0  0
  -14.4570  -39.6025  -10.0392 C   0  0  0  0  0  0  0  0  0  0  0  0
  -15.2673  -40.5475  -10.5923 C   0  0  0  0  0  0  0  0  0  0  0  0
  -14.9318  -41.8861  -10.5667 C   0  0  0  0  0  0  0  0  0  0  0  0
  -16.0370  -43.2375  -11.3275 Br  0  0  0  0  0  0  0  0  0  0  0  0
  -13.7462  -42.3058   -9.9702 C   0  0  0  0  0  0  0  0  0  0  0  0
  -12.9241  -41.3464   -9.4090 C   0  0  0  0  0  0  0  0  0  0  0  0
  -13.2881  -40.0259   -9.4519 C   0  0  0  0  0  0  0  0  0  0  0  0
  1  2  1  0
  2  3  1  0
  2  4  1  0
  4  5  1  0
  5  6  1  0
  6  7  1  6
  6  8  1  0
  8  9  1  1
  9 10  1  0
 10 11  1  0
 11 12  2  0
 12 13  1  0
 13 14  1  0
 14 15  1  0
 15 16  1  0
 16 17  1  0
 17 18  1  0
 18 19  1  0
 19 20  2  0
 20 21  1  0
 21 22  2  0
 22 23  1  0
 23 24  1  0
 24 25  2  0
 25 26  1  0
 26 27  2  0
 27 28  1  0
 28 29  2  0
 22 30  1  0
 20 31  1  0
 31 32  2  0
 31 33  1  0
 12 34  1  0
 34 35  2  0
 35 36  1  0
  2 37  1  0
 37 38  2  0
 38 39  1  0
 39 40  1  0
 39 41  2  0
 41 42  1  0
 42 43  2  0
 29 24  1  0
 30 18  2  0
 33  8  1  0
 36 10  2  0
 43 37  1  0
M  CHG  1  22   1
M  END
$$$$
