
     RDKit          3D

 43 47  0  0  0  0  0  0  0  0999 V2000
  -12.4773  -38.7406   -8.5268 C   0  0  0  0  0  0  0  0  0  0  0  0
  -13.7248  -39.1519   -9.2833 C   0  0  0  0  0  0  0  0  0  0  0  0
  -14.2340  -38.1619  -10.2658 C   0  0  0  0  0  0  0  0  0  0  0  0
  -14.7630  -39.6167   -8.4345 N   0  0  0  0  0  0  0  0  0  0  0  0
  -15.3973  -38.7798   -7.5503 C   0  0  0  0  0  0  0  0  0  0  0  0
  -16.7512  -39.0217   -7.0311 C   0  0  1  0  0  0  0  0  0  0  0  0
  -17.3535  -37.9857   -6.3464 O   0  0  0  0  0  0  0  0  0  0  0  0
  -17.6519  -39.6431   -8.1092 C   0  0  2  0  0  0  0  0  0  0  0  0
  -19.0358  -39.1979   -8.1296 C   0  0  0  0  0  0  0  0  0  0  0  0
  -19.9269  -39.1650   -6.9552 C   0  0  0  0  0  0  0  0  0  0  0  0
  -20.0377  -39.9531   -5.8279 C   0  0  0  0  0  0  0  0  0  0  0  0
  -21.0401  -39.7008   -4.9295 C   0  0  0  0  0  0  0  0  0  0  0  0
  -21.4285  -40.3953   -3.6693 C   0  0  0  0  0  0  0  0  0  0  0  0
  -22.7400  -41.1205   -3.9820 C   0  0  0  0  0  0  0  0  0  0  0  0
  -22.5894  -42.3582   -4.8024 C   0  0  0  0  0  0  0  0  0  0  0  0
  -23.3895  -42.1659   -6.0734 C   0  0  0  0  0  0  0  0  0  0  0  0
  -22.9173  -42.9921   -7.1696 N   0  0  0  0  0  0  0  0  0  0  0  0
  -21.8103  -42.8241   -8.0625 C   0  0  0  0  0  0  0  0  0  0  0  0
  -20.4710  -42.5795   -7.8239 C   0  0  0  0  0  0  0  0  0  0  0  0
  -19.6222  -42.3735   -8.8933 C   0  0  0  0  0  0  0  0  0  0  0  0
  -20.1896  -42.4377  -10.1946 C   0  0  0  0  0  0  0  0  0  0  0  0
  -21.4675  -42.6763  -10.4616 N   0  0  0  0  0  4  0  0  0  0  0  0
  -21.9832  -42.7285  -11.8245 C   0  0  0  0  0  0  0  0  0  0  0  0
  -21.4306  -41.6995  -12.6901 C   0  0  0  0  0  0  0  0  0  0  0  0
  -21.9688  -40.4328  -12.7012 C   0  0  0  0  0  0  0  0  0  0  0  0
  -21.4324  -39.4386  -13.5351 C   0  0  0  0  0  0  0  0  0  0  0  0
  -20.3611  -39.7318  -14.3469 C   0  0  0  0  0  0  0  0  0  0  0  0
  -19.8150  -41.0019  -14.3416 C   0  0  0  0  0  0  0  0  0  0  0  0
  -20.3586  -41.9755  -13.5098 C   0  0  0  0  0  0  0  0  0  0  0  0
  -22.2593  -42.8650   -9.4063 C   0  0  0  0  0  0  0  0  0  0  0  0
  -18.1897  -42.0319   -8.9410 C   0  0  0  0  0  0  0  0  0  0  0  0
  -17.4609  -42.7354   -9.7822 O   0  0  0  0  0  0  0  0  0  0  0  0
  -17.4124  -41.0714   -8.2494 N   0  0  0  0  0  0  0  0  0  0  0  0
  -21.9512  -38.6297   -5.1690 C   0  0  0  0  0  0  0  0  0  0  0  0
  -21.8850  -37.8233   -6.2623 C   0  0  0  0  0  0  0  0  0  0  0  0
  -20.8711  -38.1101   -7.1334 C   0  0  0  0  0  0  0  0  0  0  0  0
  -13.2756  -40.3701  -10.0647 C   0  0  0  0  0  0  0  0  0  0  0  0
  -13.1847  -41.6070   -9.5014 C   0  0  0  0  0  0  0  0  0  0  0  0
  -12.7682  -42.7009  -10.2329 C   0  0  0  0  0  0  0  0  0  0  0  0
  -12.6268  -44.4456   -9.4827 Br  0  0  0  0  0  0  0  0  0  0  0  0
  -12.4288  -42.5648  -11.5760 C   0  0  0  0  0  0  0  0  0  0  0  0
  -12.5212  -41.3093  -12.1473 C   0  0  0  0  0  0  0  0  0  0  0  0
  -12.9381  -40.2447  -11.3917 C   0  0  0  0  0  0  0  0  0  0  0  0
  1  2  1  0
  2  3  1  0
  2  4  1  0
  4  5  1  0
  5  6  1  0
  6  7  1  6
  6  8  1  0
  8  9  1  1
  9 10  1  0
 10 11  1  0
 11 12  2  0
 12 13  1  0
 13 14  1  0
 14 15  1  0
 15 16  1  0
 16 17  1  0
 17 18  1  0
 18 19  1  0
 19 20  2  0
 20 21  1  0
 21 22  2  0
 22 23  1  0
 23 24  1  0
 24 25  2  0
 25 26  1  0
 26 27  2  0
 27 28  1  0
 28 29  2  0
 22 30  1  0
 20 31  1  0
 31 32  2  0
 31 33  1  0
 12 34  1  0
 34 35  2  0
 35 36  1  0
  2 37  1  0
 37 38  2  0
 38 39  1  0
 39 40  1  0
 39 41  2  0
 41 42  1  0
 42 43  2  0
 29 24  1  0
 30 18  2  0
 33  8  1  0
 36 10  2  0
 43 37  1  0
M  CHG  1  22   1
M  END
$$$$
