
     RDKit          3D

 43 47  0  0  0  0  0  0  0  0999 V2000
  -14.8339  -36.5421  -10.4940 C   0  0  0  0  0  0  0  0  0  0  0  0
  -15.4865  -37.9034  -10.6311 C   0  0  0  0  0  0  0  0  0  0  0  0
  -16.8320  -37.9086  -11.2589 C   0  0  0  0  0  0  0  0  0  0  0  0
  -15.4780  -38.6493   -9.4237 N   0  0  0  0  0  0  0  0  0  0  0  0
  -15.9014  -38.1020   -8.2379 C   0  0  0  0  0  0  0  0  0  0  0  0
  -17.1032  -38.5502   -7.5195 C   0  0  1  0  0  0  0  0  0  0  0  0
  -17.8366  -37.5833   -6.8623 O   0  0  0  0  0  0  0  0  0  0  0  0
  -17.9612  -39.4700   -8.4012 C   0  0  2  0  0  0  0  0  0  0  0  0
  -19.3986  -39.2579   -8.3487 C   0  0  0  0  0  0  0  0  0  0  0  0
  -20.1931  -39.1788   -7.1090 C   0  0  0  0  0  0  0  0  0  0  0  0
  -20.0840  -39.7841   -5.8738 C   0  0  0  0  0  0  0  0  0  0  0  0
  -21.0458  -39.5529   -4.9266 C   0  0  0  0  0  0  0  0  0  0  0  0
  -21.2155  -40.0896   -3.5466 C   0  0  0  0  0  0  0  0  0  0  0  0
  -22.4029  -41.0531   -3.6189 C   0  0  0  0  0  0  0  0  0  0  0  0
  -22.1036  -42.3666   -4.2616 C   0  0  0  0  0  0  0  0  0  0  0  0
  -23.0164  -42.5084   -5.4613 C   0  0  0  0  0  0  0  0  0  0  0  0
  -22.4918  -43.4141   -6.4672 N   0  0  0  0  0  0  0  0  0  0  0  0
  -21.4988  -43.2185   -7.4804 C   0  0  0  0  0  0  0  0  0  0  0  0
  -20.2073  -42.7306   -7.4139 C   0  0  0  0  0  0  0  0  0  0  0  0
  -19.4875  -42.5669   -8.5808 C   0  0  0  0  0  0  0  0  0  0  0  0
  -20.1300  -42.9268   -9.7961 C   0  0  0  0  0  0  0  0  0  0  0  0
  -21.3643  -43.4036   -9.8976 N   0  0  0  0  0  4  0  0  0  0  0  0
  -21.9625  -43.7537  -11.1804 C   0  0  0  0  0  0  0  0  0  0  0  0
  -23.1174  -42.9383  -11.5198 C   0  0  0  0  0  0  0  0  0  0  0  0
  -24.2929  -43.5270  -11.9267 C   0  0  0  0  0  0  0  0  0  0  0  0
  -25.4089  -42.7389  -12.2512 C   0  0  0  0  0  0  0  0  0  0  0  0
  -25.3274  -41.3684  -12.1617 C   0  0  0  0  0  0  0  0  0  0  0  0
  -24.1500  -40.7696  -11.7540 C   0  0  0  0  0  0  0  0  0  0  0  0
  -23.0535  -41.5649  -11.4365 C   0  0  0  0  0  0  0  0  0  0  0  0
  -22.0321  -43.5438   -8.7527 C   0  0  0  0  0  0  0  0  0  0  0  0
  -18.1420  -42.0156   -8.8195 C   0  0  0  0  0  0  0  0  0  0  0  0
  -17.3676  -42.7205   -9.6176 O   0  0  0  0  0  0  0  0  0  0  0  0
  -17.4918  -40.8465   -8.3553 N   0  0  0  0  0  0  0  0  0  0  0  0
  -22.1418  -38.6912   -5.2276 C   0  0  0  0  0  0  0  0  0  0  0  0
  -22.2954  -38.0696   -6.4276 C   0  0  0  0  0  0  0  0  0  0  0  0
  -21.3145  -38.3282   -7.3441 C   0  0  0  0  0  0  0  0  0  0  0  0
  -14.5526  -38.6478  -11.5640 C   0  0  0  0  0  0  0  0  0  0  0  0
  -14.6835  -39.9792  -11.8198 C   0  0  0  0  0  0  0  0  0  0  0  0
  -13.8171  -40.6363  -12.6700 C   0  0  0  0  0  0  0  0  0  0  0  0
  -13.9655  -42.4959  -13.0528 Br  0  0  0  0  0  0  0  0  0  0  0  0
  -12.7800  -39.9473  -13.2924 C   0  0  0  0  0  0  0  0  0  0  0  0
  -12.6475  -38.5959  -13.0325 C   0  0  0  0  0  0  0  0  0  0  0  0
  -13.5254  -37.9751  -12.1827 C   0  0  0  0  0  0  0  0  0  0  0  0
  1  2  1  0
  2  3  1  0
  2  4  1  0
  4  5  1  0
  5  6  1  0
  6  7  1  6
  6  8  1  0
  8  9  1  1
  9 10  1  0
 10 11  1  0
 11 12  2  0
 12 13  1  0
 13 14  1  0
 14 15  1  0
 15 16  1  0
 16 17  1  0
 17 18  1  0
 18 19  1  0
 19 20  2  0
 20 21  1  0
 21 22  2  0
 22 23  1  0
 23 24  1  0
 24 25  2  0
 25 26  1  0
 26 27  2  0
 27 28  1  0
 28 29  2  0
 22 30  1  0
 20 31  1  0
 31 32  2  0
 31 33  1  0
 12 34  1  0
 34 35  2  0
 35 36  1  0
  2 37  1  0
 37 38  2  0
 38 39  1  0
 39 40  1  0
 39 41  2  0
 41 42  1  0
 42 43  2  0
 29 24  1  0
 30 18  2  0
 33  8  1  0
 36 10  2  0
 43 37  1  0
M  CHG  1  22   1
M  END
$$$$
