
     RDKit          3D

 43 47  0  0  0  0  0  0  0  0999 V2000
  -13.4219  -41.1530   -8.5013 C   0  0  0  0  0  0  0  0  0  0  0  0
  -13.9082  -40.0457   -9.4152 C   0  0  0  0  0  0  0  0  0  0  0  0
  -12.8649  -39.4019  -10.2530 C   0  0  0  0  0  0  0  0  0  0  0  0
  -14.7007  -39.0779   -8.7448 N   0  0  0  0  0  0  0  0  0  0  0  0
  -15.0954  -39.2503   -7.4412 C   0  0  0  0  0  0  0  0  0  0  0  0
  -16.4908  -39.1361   -6.9930 C   0  0  1  0  0  0  0  0  0  0  0  0
  -16.9452  -37.8718   -6.6767 O   0  0  0  0  0  0  0  0  0  0  0  0
  -17.4351  -39.9051   -7.9293 C   0  0  2  0  0  0  0  0  0  0  0  0
  -18.8117  -39.4407   -7.9817 C   0  0  0  0  0  0  0  0  0  0  0  0
  -19.6643  -39.1996   -6.8030 C   0  0  0  0  0  0  0  0  0  0  0  0
  -19.7515  -39.7922   -5.5598 C   0  0  0  0  0  0  0  0  0  0  0  0
  -20.7206  -39.3771   -4.6858 C   0  0  0  0  0  0  0  0  0  0  0  0
  -21.0794  -39.8501   -3.3187 C   0  0  0  0  0  0  0  0  0  0  0  0
  -22.4114  -40.5891   -3.4712 C   0  0  0  0  0  0  0  0  0  0  0  0
  -22.3065  -41.9463   -4.0836 C   0  0  0  0  0  0  0  0  0  0  0  0
  -23.1436  -41.9459   -5.3452 C   0  0  0  0  0  0  0  0  0  0  0  0
  -22.7196  -42.9483   -6.3057 N   0  0  0  0  0  0  0  0  0  0  0  0
  -21.6391  -42.9502   -7.2458 C   0  0  0  0  0  0  0  0  0  0  0  0
  -20.2893  -42.6977   -7.0889 C   0  0  0  0  0  0  0  0  0  0  0  0
  -19.4719  -42.6853   -8.2017 C   0  0  0  0  0  0  0  0  0  0  0  0
  -20.0815  -42.9478   -9.4582 C   0  0  0  0  0  0  0  0  0  0  0  0
  -21.3708  -43.2000   -9.6459 N   0  0  0  0  0  4  0  0  0  0  0  0
  -21.9305  -43.4618  -10.9666 C   0  0  0  0  0  0  0  0  0  0  0  0
  -23.3173  -43.0456  -11.0979 C   0  0  0  0  0  0  0  0  0  0  0  0
  -24.3396  -43.9260  -10.8257 C   0  0  0  0  0  0  0  0  0  0  0  0
  -25.6787  -43.5222  -10.9497 C   0  0  0  0  0  0  0  0  0  0  0  0
  -25.9718  -42.2377  -11.3459 C   0  0  0  0  0  0  0  0  0  0  0  0
  -24.9505  -41.3477  -11.6215 C   0  0  0  0  0  0  0  0  0  0  0  0
  -23.6291  -41.7638  -11.4940 C   0  0  0  0  0  0  0  0  0  0  0  0
  -22.1314  -43.1989   -8.5514 C   0  0  0  0  0  0  0  0  0  0  0  0
  -18.0364  -42.3856   -8.3457 C   0  0  0  0  0  0  0  0  0  0  0  0
  -17.3459  -43.2309   -9.0821 O   0  0  0  0  0  0  0  0  0  0  0  0
  -17.2225  -41.3419   -7.8422 N   0  0  0  0  0  0  0  0  0  0  0  0
  -21.6220  -38.3404   -5.0697 C   0  0  0  0  0  0  0  0  0  0  0  0
  -21.5780  -37.7233   -6.2810 C   0  0  0  0  0  0  0  0  0  0  0  0
  -20.5971  -38.1683   -7.1229 C   0  0  0  0  0  0  0  0  0  0  0  0
  -14.8612  -40.7583  -10.3535 C   0  0  0  0  0  0  0  0  0  0  0  0
  -14.7172  -42.0723  -10.6822 C   0  0  0  0  0  0  0  0  0  0  0  0
  -15.5958  -42.6983  -11.5431 C   0  0  0  0  0  0  0  0  0  0  0  0
  -15.4287  -44.5323  -12.0282 Br  0  0  0  0  0  0  0  0  0  0  0  0
  -16.6602  -41.9953  -12.1004 C   0  0  0  0  0  0  0  0  0  0  0  0
  -16.8060  -40.6616  -11.7665 C   0  0  0  0  0  0  0  0  0  0  0  0
  -15.9150  -40.0715  -10.9087 C   0  0  0  0  0  0  0  0  0  0  0  0
  1  2  1  0
  2  3  1  0
  2  4  1  0
  4  5  1  0
  5  6  1  0
  6  7  1  6
  6  8  1  0
  8  9  1  1
  9 10  1  0
 10 11  1  0
 11 12  2  0
 12 13  1  0
 13 14  1  0
 14 15  1  0
 15 16  1  0
 16 17  1  0
 17 18  1  0
 18 19  1  0
 19 20  2  0
 20 21  1  0
 21 22  2  0
 22 23  1  0
 23 24  1  0
 24 25  2  0
 25 26  1  0
 26 27  2  0
 27 28  1  0
 28 29  2  0
 22 30  1  0
 20 31  1  0
 31 32  2  0
 31 33  1  0
 12 34  1  0
 34 35  2  0
 35 36  1  0
  2 37  1  0
 37 38  2  0
 38 39  1  0
 39 40  1  0
 39 41  2  0
 41 42  1  0
 42 43  2  0
 29 24  1  0
 30 18  2  0
 33  8  1  0
 36 10  2  0
 43 37  1  0
M  CHG  1  22   1
M  END
$$$$
