
     RDKit          3D

 43 47  0  0  0  0  0  0  0  0999 V2000
  -19.8724  -40.4354   -8.0038 C   0  0  0  0  0  0  0  0  0  0  0  0
  -20.7326  -39.2955   -7.4951 C   0  0  0  0  0  0  0  0  0  0  0  0
  -21.7379  -38.7737   -8.4551 C   0  0  0  0  0  0  0  0  0  0  0  0
  -19.9768  -38.2426   -6.9169 N   0  0  0  0  0  0  0  0  0  0  0  0
  -19.0147  -37.5724   -7.6308 C   0  0  0  0  0  0  0  0  0  0  0  0
  -17.6299  -38.0458   -7.7713 C   0  0  1  0  0  0  0  0  0  0  0  0
  -16.7682  -37.7787   -6.7268 O   0  0  0  0  0  0  0  0  0  0  0  0
  -17.5924  -39.5109   -8.2313 C   0  0  2  0  0  0  0  0  0  0  0  0
  -16.3001  -40.1741   -8.1697 C   0  0  0  0  0  0  0  0  0  0  0  0
  -15.0492  -39.6345   -8.7339 C   0  0  0  0  0  0  0  0  0  0  0  0
  -14.7665  -38.8540   -9.8362 C   0  0  0  0  0  0  0  0  0  0  0  0
  -13.4614  -38.5728  -10.1416 C   0  0  0  0  0  0  0  0  0  0  0  0
  -12.8587  -37.8088  -11.2704 C   0  0  0  0  0  0  0  0  0  0  0  0
  -12.1921  -38.8532  -12.1697 C   0  0  0  0  0  0  0  0  0  0  0  0
  -13.1361  -39.6505  -13.0071 C   0  0  0  0  0  0  0  0  0  0  0  0
  -12.9585  -41.1078  -12.6366 C   0  0  0  0  0  0  0  0  0  0  0  0
  -14.1307  -41.9127  -12.9293 N   0  0  0  0  0  0  0  0  0  0  0  0
  -15.3611  -42.0740  -12.2145 C   0  0  0  0  0  0  0  0  0  0  0  0
  -16.2630  -41.1482  -11.7246 C   0  0  0  0  0  0  0  0  0  0  0  0
  -17.3441  -41.5858  -10.9855 C   0  0  0  0  0  0  0  0  0  0  0  0
  -17.4667  -42.9867  -10.7811 C   0  0  0  0  0  0  0  0  0  0  0  0
  -16.6252  -43.9041  -11.2408 N   0  0  0  0  0  4  0  0  0  0  0  0
  -16.8124  -45.3287  -10.9932 C   0  0  0  0  0  0  0  0  0  0  0  0
  -18.2084  -45.7348  -10.9892 C   0  0  0  0  0  0  0  0  0  0  0  0
  -18.8829  -45.9286  -12.1731 C   0  0  0  0  0  0  0  0  0  0  0  0
  -20.2303  -46.3240  -12.1683 C   0  0  0  0  0  0  0  0  0  0  0  0
  -20.8813  -46.5194  -10.9722 C   0  0  0  0  0  0  0  0  0  0  0  0
  -20.2106  -46.3266   -9.7789 C   0  0  0  0  0  0  0  0  0  0  0  0
  -18.8761  -45.9344   -9.8011 C   0  0  0  0  0  0  0  0  0  0  0  0
  -15.5904  -43.4466  -11.9453 C   0  0  0  0  0  0  0  0  0  0  0  0
  -18.4100  -40.8400  -10.2936 C   0  0  0  0  0  0  0  0  0  0  0  0
  -19.6357  -41.2795  -10.4885 O   0  0  0  0  0  0  0  0  0  0  0  0
  -18.3862  -39.7153   -9.4335 N   0  0  0  0  0  0  0  0  0  0  0  0
  -12.4161  -39.0866   -9.3183 C   0  0  0  0  0  0  0  0  0  0  0  0
  -12.6406  -39.8587   -8.2213 C   0  0  0  0  0  0  0  0  0  0  0  0
  -13.9562  -40.1160   -7.9530 C   0  0  0  0  0  0  0  0  0  0  0  0
  -21.4934  -39.9179   -6.3418 C   0  0  0  0  0  0  0  0  0  0  0  0
  -21.0193  -40.9891   -5.6468 C   0  0  0  0  0  0  0  0  0  0  0  0
  -21.7333  -41.5416   -4.6026 C   0  0  0  0  0  0  0  0  0  0  0  0
  -21.1060  -43.0390   -3.6072 Br  0  0  0  0  0  0  0  0  0  0  0  0
  -22.9657  -41.0116   -4.2313 C   0  0  0  0  0  0  0  0  0  0  0  0
  -23.4466  -39.9244   -4.9370 C   0  0  0  0  0  0  0  0  0  0  0  0
  -22.7116  -39.4010   -5.9685 C   0  0  0  0  0  0  0  0  0  0  0  0
  1  2  1  0
  2  3  1  0
  2  4  1  0
  4  5  1  0
  5  6  1  0
  6  7  1  1
  6  8  1  0
  8  9  1  6
  9 10  1  0
 10 11  1  0
 11 12  2  0
 12 13  1  0
 13 14  1  0
 14 15  1  0
 15 16  1  0
 16 17  1  0
 17 18  1  0
 18 19  1  0
 19 20  2  0
 20 21  1  0
 21 22  2  0
 22 23  1  0
 23 24  1  0
 24 25  2  0
 25 26  1  0
 26 27  2  0
 27 28  1  0
 28 29  2  0
 22 30  1  0
 20 31  1  0
 31 32  2  0
 31 33  1  0
 12 34  1  0
 34 35  2  0
 35 36  1  0
  2 37  1  0
 37 38  2  0
 38 39  1  0
 39 40  1  0
 39 41  2  0
 41 42  1  0
 42 43  2  0
 29 24  1  0
 30 18  2  0
 33  8  1  0
 36 10  2  0
 43 37  1  0
M  CHG  1  22   1
M  END
$$$$
