
     RDKit          3D

 43 47  0  0  0  0  0  0  0  0999 V2000
  -23.8733  -40.6827  -12.1915 C   0  0  0  0  0  0  0  0  0  0  0  0
  -22.6266  -40.3671  -11.3890 C   0  0  0  0  0  0  0  0  0  0  0  0
  -22.7148  -39.1726  -10.5114 C   0  0  0  0  0  0  0  0  0  0  0  0
  -21.4477  -40.3405  -12.1789 N   0  0  0  0  0  0  0  0  0  0  0  0
  -20.9810  -39.1750  -12.7344 C   0  0  0  0  0  0  0  0  0  0  0  0
  -19.6494  -38.6182  -12.4553 C   0  0  1  0  0  0  0  0  0  0  0  0
  -19.4168  -37.3192  -12.8593 O   0  0  0  0  0  0  0  0  0  0  0  0
  -19.2336  -38.8866  -11.0011 C   0  0  2  0  0  0  0  0  0  0  0  0
  -18.5123  -37.8187  -10.3282 C   0  0  0  0  0  0  0  0  0  0  0  0
  -17.3276  -37.1299  -10.8725 C   0  0  0  0  0  0  0  0  0  0  0  0
  -16.2822  -37.5356  -11.6766 C   0  0  0  0  0  0  0  0  0  0  0  0
  -15.2708  -36.6555  -11.9563 C   0  0  0  0  0  0  0  0  0  0  0  0
  -14.0152  -36.8187  -12.7424 C   0  0  0  0  0  0  0  0  0  0  0  0
  -12.8804  -36.8294  -11.7149 C   0  0  0  0  0  0  0  0  0  0  0  0
  -12.7479  -38.1003  -10.9435 C   0  0  0  0  0  0  0  0  0  0  0  0
  -12.9208  -37.7664   -9.4768 C   0  0  0  0  0  0  0  0  0  0  0  0
  -13.3628  -38.9012   -8.6867 N   0  0  0  0  0  0  0  0  0  0  0  0
  -14.6628  -39.4776   -8.5168 C   0  0  0  0  0  0  0  0  0  0  0  0
  -15.6037  -39.9004   -9.4368 C   0  0  0  0  0  0  0  0  0  0  0  0
  -16.8312  -40.3470   -8.9892 C   0  0  0  0  0  0  0  0  0  0  0  0
  -17.0476  -40.3524   -7.5847 C   0  0  0  0  0  0  0  0  0  0  0  0
  -16.1667  -39.9605   -6.6729 N   0  0  0  0  0  4  0  0  0  0  0  0
  -16.4558  -39.9930   -5.2441 C   0  0  0  0  0  0  0  0  0  0  0  0
  -17.5574  -39.1260   -4.8588 C   0  0  0  0  0  0  0  0  0  0  0  0
  -17.5749  -37.8051   -5.2450 C   0  0  0  0  0  0  0  0  0  0  0  0
  -18.6409  -36.9693   -4.8751 C   0  0  0  0  0  0  0  0  0  0  0  0
  -19.6755  -37.4736   -4.1215 C   0  0  0  0  0  0  0  0  0  0  0  0
  -19.6650  -38.7992   -3.7295 C   0  0  0  0  0  0  0  0  0  0  0  0
  -18.6012  -39.6137   -4.1040 C   0  0  0  0  0  0  0  0  0  0  0  0
  -14.9948  -39.5305   -7.1399 C   0  0  0  0  0  0  0  0  0  0  0  0
  -18.0292  -40.7868   -9.7257 C   0  0  0  0  0  0  0  0  0  0  0  0
  -18.5872  -41.9003   -9.2989 O   0  0  0  0  0  0  0  0  0  0  0  0
  -18.7269  -40.2398  -10.8299 N   0  0  0  0  0  0  0  0  0  0  0  0
  -15.3125  -35.3359  -11.4167 C   0  0  0  0  0  0  0  0  0  0  0  0
  -16.3196  -34.8860  -10.6207 C   0  0  0  0  0  0  0  0  0  0  0  0
  -17.3075  -35.7960  -10.3659 C   0  0  0  0  0  0  0  0  0  0  0  0
  -22.4737  -41.5761  -10.4883 C   0  0  0  0  0  0  0  0  0  0  0  0
  -22.5035  -41.4837   -9.1297 C   0  0  0  0  0  0  0  0  0  0  0  0
  -22.3571  -42.5992   -8.3300 C   0  0  0  0  0  0  0  0  0  0  0  0
  -22.3921  -42.5122   -6.4280 Br  0  0  0  0  0  0  0  0  0  0  0  0
  -22.1747  -43.8567   -8.8985 C   0  0  0  0  0  0  0  0  0  0  0  0
  -22.1444  -43.9500  -10.2775 C   0  0  0  0  0  0  0  0  0  0  0  0
  -22.2927  -42.8218  -11.0413 C   0  0  0  0  0  0  0  0  0  0  0  0
  1  2  1  0
  2  3  1  0
  2  4  1  0
  4  5  1  0
  5  6  1  0
  6  7  1  1
  6  8  1  0
  8  9  1  6
  9 10  1  0
 10 11  1  0
 11 12  2  0
 12 13  1  0
 13 14  1  0
 14 15  1  0
 15 16  1  0
 16 17  1  0
 17 18  1  0
 18 19  1  0
 19 20  2  0
 20 21  1  0
 21 22  2  0
 22 23  1  0
 23 24  1  0
 24 25  2  0
 25 26  1  0
 26 27  2  0
 27 28  1  0
 28 29  2  0
 22 30  1  0
 20 31  1  0
 31 32  2  0
 31 33  1  0
 12 34  1  0
 34 35  2  0
 35 36  1  0
  2 37  1  0
 37 38  2  0
 38 39  1  0
 39 40  1  0
 39 41  2  0
 41 42  1  0
 42 43  2  0
 29 24  1  0
 30 18  2  0
 33  8  1  0
 36 10  2  0
 43 37  1  0
M  CHG  1  22   1
M  END
$$$$
