
     RDKit          3D

 43 47  0  0  0  0  0  0  0  0999 V2000
  -19.7515  -39.1530   -7.6713 C   0  0  0  0  0  0  0  0  0  0  0  0
  -20.3207  -38.3140   -6.5444 C   0  0  0  0  0  0  0  0  0  0  0  0
  -21.2535  -37.2351   -6.9570 C   0  0  0  0  0  0  0  0  0  0  0  0
  -19.3266  -37.8248   -5.6574 N   0  0  0  0  0  0  0  0  0  0  0  0
  -18.1027  -38.4358   -5.5421 C   0  0  0  0  0  0  0  0  0  0  0  0
  -17.1528  -38.5687   -6.6562 C   0  0  1  0  0  0  0  0  0  0  0  0
  -15.8950  -38.0306   -6.4740 O   0  0  0  0  0  0  0  0  0  0  0  0
  -17.1267  -40.0091   -7.1893 C   0  0  2  0  0  0  0  0  0  0  0  0
  -15.9916  -40.3684   -8.0236 C   0  0  0  0  0  0  0  0  0  0  0  0
  -15.5233  -39.5932   -9.1873 C   0  0  0  0  0  0  0  0  0  0  0  0
  -16.1673  -38.8208  -10.1321 C   0  0  0  0  0  0  0  0  0  0  0  0
  -15.4430  -38.2736  -11.1576 C   0  0  0  0  0  0  0  0  0  0  0  0
  -15.8617  -37.4480  -12.3257 C   0  0  0  0  0  0  0  0  0  0  0  0
  -15.7286  -38.3602  -13.5479 C   0  0  0  0  0  0  0  0  0  0  0  0
  -16.8071  -39.3829  -13.6848 C   0  0  0  0  0  0  0  0  0  0  0  0
  -16.1505  -40.7471  -13.6648 C   0  0  0  0  0  0  0  0  0  0  0  0
  -17.0518  -41.8025  -13.2392 N   0  0  0  0  0  0  0  0  0  0  0  0
  -17.4840  -42.1977  -11.9323 C   0  0  0  0  0  0  0  0  0  0  0  0
  -18.0294  -41.4716  -10.8904 C   0  0  0  0  0  0  0  0  0  0  0  0
  -18.2800  -42.1020   -9.6877 C   0  0  0  0  0  0  0  0  0  0  0  0
  -17.9641  -43.4848   -9.6012 C   0  0  0  0  0  0  0  0  0  0  0  0
  -17.4462  -44.2146  -10.5812 N   0  0  0  0  0  4  0  0  0  0  0  0
  -17.1463  -45.6327  -10.4232 C   0  0  0  0  0  0  0  0  0  0  0  0
  -18.3231  -46.4830  -10.4993 C   0  0  0  0  0  0  0  0  0  0  0  0
  -19.4710  -46.1498   -9.8170 C   0  0  0  0  0  0  0  0  0  0  0  0
  -20.6082  -46.9700   -9.8936 C   0  0  0  0  0  0  0  0  0  0  0  0
  -20.5756  -48.1147  -10.6560 C   0  0  0  0  0  0  0  0  0  0  0  0
  -19.4262  -48.4563  -11.3440 C   0  0  0  0  0  0  0  0  0  0  0  0
  -18.3081  -47.6331  -11.2572 C   0  0  0  0  0  0  0  0  0  0  0  0
  -17.2122  -43.5733  -11.7259 C   0  0  0  0  0  0  0  0  0  0  0  0
  -18.7838  -41.5781   -8.4060 C   0  0  0  0  0  0  0  0  0  0  0  0
  -19.7354  -42.2848   -7.8328 O   0  0  0  0  0  0  0  0  0  0  0  0
  -18.4425  -40.4377   -7.6391 N   0  0  0  0  0  0  0  0  0  0  0  0
  -14.0379  -38.5069  -11.2339 C   0  0  0  0  0  0  0  0  0  0  0  0
  -13.3555  -39.2586  -10.3287 C   0  0  0  0  0  0  0  0  0  0  0  0
  -14.1160  -39.7865   -9.3227 C   0  0  0  0  0  0  0  0  0  0  0  0
  -21.1202  -39.3130   -5.7324 C   0  0  0  0  0  0  0  0  0  0  0  0
  -20.5803  -40.0094   -4.6937 C   0  0  0  0  0  0  0  0  0  0  0  0
  -21.3278  -40.9179   -3.9718 C   0  0  0  0  0  0  0  0  0  0  0  0
  -20.6105  -41.9116   -2.5142 Br  0  0  0  0  0  0  0  0  0  0  0  0
  -22.6635  -41.1455   -4.2908 C   0  0  0  0  0  0  0  0  0  0  0  0
  -23.2111  -40.4384   -5.3452 C   0  0  0  0  0  0  0  0  0  0  0  0
  -22.4400  -39.5442   -6.0408 C   0  0  0  0  0  0  0  0  0  0  0  0
  1  2  1  0
  2  3  1  0
  2  4  1  0
  4  5  1  0
  5  6  1  0
  6  7  1  1
  6  8  1  0
  8  9  1  6
  9 10  1  0
 10 11  1  0
 11 12  2  0
 12 13  1  0
 13 14  1  0
 14 15  1  0
 15 16  1  0
 16 17  1  0
 17 18  1  0
 18 19  1  0
 19 20  2  0
 20 21  1  0
 21 22  2  0
 22 23  1  0
 23 24  1  0
 24 25  2  0
 25 26  1  0
 26 27  2  0
 27 28  1  0
 28 29  2  0
 22 30  1  0
 20 31  1  0
 31 32  2  0
 31 33  1  0
 12 34  1  0
 34 35  2  0
 35 36  1  0
  2 37  1  0
 37 38  2  0
 38 39  1  0
 39 40  1  0
 39 41  2  0
 41 42  1  0
 42 43  2  0
 29 24  1  0
 30 18  2  0
 33  8  1  0
 36 10  2  0
 43 37  1  0
M  CHG  1  22   1
M  END
$$$$
