
     RDKit          3D

 43 47  0  0  0  0  0  0  0  0999 V2000
  -14.0685  -41.4345   -8.2945 C   0  0  0  0  0  0  0  0  0  0  0  0
  -13.6528  -40.0178   -8.6378 C   0  0  0  0  0  0  0  0  0  0  0  0
  -12.1890  -39.7786   -8.7071 C   0  0  0  0  0  0  0  0  0  0  0  0
  -14.2978  -39.0388   -7.8380 N   0  0  0  0  0  0  0  0  0  0  0  0
  -15.5238  -38.5248   -8.1806 C   0  0  0  0  0  0  0  0  0  0  0  0
  -16.7695  -38.8543   -7.4728 C   0  0  1  0  0  0  0  0  0  0  0  0
  -17.4403  -37.8109   -6.8676 O   0  0  0  0  0  0  0  0  0  0  0  0
  -17.6775  -39.7404   -8.3388 C   0  0  2  0  0  0  0  0  0  0  0  0
  -19.0762  -39.3511   -8.4158 C   0  0  0  0  0  0  0  0  0  0  0  0
  -19.9349  -39.0620   -7.2525 C   0  0  0  0  0  0  0  0  0  0  0  0
  -19.9866  -39.5596   -5.9664 C   0  0  0  0  0  0  0  0  0  0  0  0
  -20.9718  -39.1267   -5.1193 C   0  0  0  0  0  0  0  0  0  0  0  0
  -21.3003  -39.5092   -3.7168 C   0  0  0  0  0  0  0  0  0  0  0  0
  -22.5938  -40.3237   -3.8006 C   0  0  0  0  0  0  0  0  0  0  0  0
  -22.4229  -41.7176   -4.3067 C   0  0  0  0  0  0  0  0  0  0  0  0
  -23.2643  -41.8575   -5.5576 C   0  0  0  0  0  0  0  0  0  0  0  0
  -22.7941  -42.9091   -6.4409 N   0  0  0  0  0  0  0  0  0  0  0  0
  -21.7190  -42.9300   -7.3867 C   0  0  0  0  0  0  0  0  0  0  0  0
  -20.3830  -42.5987   -7.2610 C   0  0  0  0  0  0  0  0  0  0  0  0
  -19.5720  -42.6320   -8.3780 C   0  0  0  0  0  0  0  0  0  0  0  0
  -20.1729  -43.0218   -9.6054 C   0  0  0  0  0  0  0  0  0  0  0  0
  -21.4485  -43.3523   -9.7623 N   0  0  0  0  0  4  0  0  0  0  0  0
  -21.9998  -43.7439  -11.0541 C   0  0  0  0  0  0  0  0  0  0  0  0
  -22.6169  -42.6427  -11.7754 C   0  0  0  0  0  0  0  0  0  0  0  0
  -22.0008  -42.0980  -12.8790 C   0  0  0  0  0  0  0  0  0  0  0  0
  -22.5991  -41.0366  -13.5770 C   0  0  0  0  0  0  0  0  0  0  0  0
  -23.8098  -40.5373  -13.1556 C   0  0  0  0  0  0  0  0  0  0  0  0
  -24.4348  -41.0790  -12.0479 C   0  0  0  0  0  0  0  0  0  0  0  0
  -23.8284  -42.1300  -11.3673 C   0  0  0  0  0  0  0  0  0  0  0  0
  -22.2036  -43.3041   -8.6651 C   0  0  0  0  0  0  0  0  0  0  0  0
  -18.1542  -42.2728   -8.5566 C   0  0  0  0  0  0  0  0  0  0  0  0
  -17.4249  -43.1372   -9.2308 O   0  0  0  0  0  0  0  0  0  0  0  0
  -17.3921  -41.1535   -8.1422 N   0  0  0  0  0  0  0  0  0  0  0  0
  -21.9262  -38.1697   -5.5751 C   0  0  0  0  0  0  0  0  0  0  0  0
  -21.9187  -37.6474   -6.8310 C   0  0  0  0  0  0  0  0  0  0  0  0
  -20.9200  -38.1068   -7.6439 C   0  0  0  0  0  0  0  0  0  0  0  0
  -14.2072  -39.8180  -10.0339 C   0  0  0  0  0  0  0  0  0  0  0  0
  -15.3128  -40.4754  -10.4822 C   0  0  0  0  0  0  0  0  0  0  0  0
  -15.7961  -40.2801  -11.7603 C   0  0  0  0  0  0  0  0  0  0  0  0
  -17.3371  -41.1800  -12.4251 Br  0  0  0  0  0  0  0  0  0  0  0  0
  -15.1597  -39.3980  -12.6290 C   0  0  0  0  0  0  0  0  0  0  0  0
  -14.0377  -38.7310  -12.1735 C   0  0  0  0  0  0  0  0  0  0  0  0
  -13.5847  -38.9489  -10.8986 C   0  0  0  0  0  0  0  0  0  0  0  0
  1  2  1  0
  2  3  1  0
  2  4  1  0
  4  5  1  0
  5  6  1  0
  6  7  1  6
  6  8  1  0
  8  9  1  1
  9 10  1  0
 10 11  1  0
 11 12  2  0
 12 13  1  0
 13 14  1  0
 14 15  1  0
 15 16  1  0
 16 17  1  0
 17 18  1  0
 18 19  1  0
 19 20  2  0
 20 21  1  0
 21 22  2  0
 22 23  1  0
 23 24  1  0
 24 25  2  0
 25 26  1  0
 26 27  2  0
 27 28  1  0
 28 29  2  0
 22 30  1  0
 20 31  1  0
 31 32  2  0
 31 33  1  0
 12 34  1  0
 34 35  2  0
 35 36  1  0
  2 37  1  0
 37 38  2  0
 38 39  1  0
 39 40  1  0
 39 41  2  0
 41 42  1  0
 42 43  2  0
 29 24  1  0
 30 18  2  0
 33  8  1  0
 36 10  2  0
 43 37  1  0
M  CHG  1  22   1
M  END
$$$$
