
     RDKit          3D

 43 47  0  0  0  0  0  0  0  0999 V2000
  -19.6915  -36.6171  -10.3384 C   0  0  0  0  0  0  0  0  0  0  0  0
  -19.3179  -37.4342   -9.1175 C   0  0  0  0  0  0  0  0  0  0  0  0
  -20.3845  -37.5834   -8.0954 C   0  0  0  0  0  0  0  0  0  0  0  0
  -18.0926  -37.0269   -8.5283 N   0  0  0  0  0  0  0  0  0  0  0  0
  -16.8852  -37.4933   -8.9857 C   0  0  0  0  0  0  0  0  0  0  0  0
  -16.5117  -38.9152   -8.9882 C   0  0  1  0  0  0  0  0  0  0  0  0
  -15.1859  -39.2145   -8.7482 O   0  0  0  0  0  0  0  0  0  0  0  0
  -17.4859  -39.7424   -8.1360 C   0  0  2  0  0  0  0  0  0  0  0  0
  -16.9463  -40.9450   -7.5226 C   0  0  0  0  0  0  0  0  0  0  0  0
  -16.1899  -41.9887   -8.2388 C   0  0  0  0  0  0  0  0  0  0  0  0
  -16.2485  -42.4873   -9.5241 C   0  0  0  0  0  0  0  0  0  0  0  0
  -15.4379  -43.5341   -9.8747 C   0  0  0  0  0  0  0  0  0  0  0  0
  -15.3128  -44.2965  -11.1492 C   0  0  0  0  0  0  0  0  0  0  0  0
  -15.9211  -45.6735  -10.8708 C   0  0  0  0  0  0  0  0  0  0  0  0
  -17.4126  -45.6989  -10.8193 C   0  0  0  0  0  0  0  0  0  0  0  0
  -17.8155  -46.1926   -9.4458 C   0  0  0  0  0  0  0  0  0  0  0  0
  -19.1458  -45.7606   -9.0573 N   0  0  0  0  0  0  0  0  0  0  0  0
  -19.6129  -44.5096   -8.5397 C   0  0  0  0  0  0  0  0  0  0  0  0
  -19.4515  -43.2140   -8.9935 C   0  0  0  0  0  0  0  0  0  0  0  0
  -19.9464  -42.1688   -8.2390 C   0  0  0  0  0  0  0  0  0  0  0  0
  -20.6107  -42.5001   -7.0273 C   0  0  0  0  0  0  0  0  0  0  0  0
  -20.7896  -43.7307   -6.5640 N   0  0  0  0  0  4  0  0  0  0  0  0
  -21.4828  -43.9991   -5.3096 C   0  0  0  0  0  0  0  0  0  0  0  0
  -21.7994  -42.7962   -4.5568 C   0  0  0  0  0  0  0  0  0  0  0  0
  -22.8061  -41.9557   -4.9741 C   0  0  0  0  0  0  0  0  0  0  0  0
  -23.1134  -40.7958   -4.2447 C   0  0  0  0  0  0  0  0  0  0  0  0
  -22.4036  -40.4970   -3.1046 C   0  0  0  0  0  0  0  0  0  0  0  0
  -21.3908  -41.3362   -2.6792 C   0  0  0  0  0  0  0  0  0  0  0  0
  -21.0988  -42.4811   -3.4135 C   0  0  0  0  0  0  0  0  0  0  0  0
  -20.2948  -44.7149   -7.3142 C   0  0  0  0  0  0  0  0  0  0  0  0
  -19.8654  -40.7105   -8.4336 C   0  0  0  0  0  0  0  0  0  0  0  0
  -20.9911  -40.0475   -8.2703 O   0  0  0  0  0  0  0  0  0  0  0  0
  -18.7925  -39.8488   -8.7674 N   0  0  0  0  0  0  0  0  0  0  0  0
  -14.5461  -44.0913   -8.9110 C   0  0  0  0  0  0  0  0  0  0  0  0
  -14.4487  -43.6364   -7.6328 C   0  0  0  0  0  0  0  0  0  0  0  0
  -15.2754  -42.5921   -7.3247 C   0  0  0  0  0  0  0  0  0  0  0  0
  -19.0458  -38.8119   -9.6872 C   0  0  0  0  0  0  0  0  0  0  0  0
  -18.0214  -39.0562  -10.5511 C   0  0  0  0  0  0  0  0  0  0  0  0
  -17.7966  -40.3192  -11.0605 C   0  0  0  0  0  0  0  0  0  0  0  0
  -16.3769  -40.7018  -12.2706 Br  0  0  0  0  0  0  0  0  0  0  0  0
  -18.6185  -41.3831  -10.6993 C   0  0  0  0  0  0  0  0  0  0  0  0
  -19.6580  -41.1346   -9.8224 C   0  0  0  0  0  0  0  0  0  0  0  0
  -19.8528  -39.8683   -9.3361 C   0  0  0  0  0  0  0  0  0  0  0  0
  1  2  1  0
  2  3  1  0
  2  4  1  0
  4  5  1  0
  5  6  1  0
  6  7  1  1
  6  8  1  0
  8  9  1  6
  9 10  1  0
 10 11  1  0
 11 12  2  0
 12 13  1  0
 13 14  1  0
 14 15  1  0
 15 16  1  0
 16 17  1  0
 17 18  1  0
 18 19  1  0
 19 20  2  0
 20 21  1  0
 21 22  2  0
 22 23  1  0
 23 24  1  0
 24 25  2  0
 25 26  1  0
 26 27  2  0
 27 28  1  0
 28 29  2  0
 22 30  1  0
 20 31  1  0
 31 32  2  0
 31 33  1  0
 12 34  1  0
 34 35  2  0
 35 36  1  0
  2 37  1  0
 37 38  2  0
 38 39  1  0
 39 40  1  0
 39 41  2  0
 41 42  1  0
 42 43  2  0
 29 24  1  0
 30 18  2  0
 33  8  1  0
 36 10  2  0
 43 37  1  0
M  CHG  1  22   1
M  END
$$$$
