
     RDKit          3D

 43 47  0  0  0  0  0  0  0  0999 V2000
  -16.0050  -39.5815  -10.9702 C   0  0  0  0  0  0  0  0  0  0  0  0
  -14.5589  -39.2895  -10.6217 C   0  0  0  0  0  0  0  0  0  0  0  0
  -13.5487  -40.1013  -11.3462 C   0  0  0  0  0  0  0  0  0  0  0  0
  -14.3124  -39.2872   -9.2240 N   0  0  0  0  0  0  0  0  0  0  0  0
  -15.1708  -38.6764   -8.3438 C   0  0  0  0  0  0  0  0  0  0  0  0
  -16.2332  -39.3883   -7.6188 C   0  0  1  0  0  0  0  0  0  0  0  0
  -16.7820  -38.7488   -6.5257 O   0  0  0  0  0  0  0  0  0  0  0  0
  -17.2857  -39.9445   -8.5897 C   0  0  2  0  0  0  0  0  0  0  0  0
  -18.6768  -39.7509   -8.2143 C   0  0  0  0  0  0  0  0  0  0  0  0
  -19.2493  -40.0932   -6.8992 C   0  0  0  0  0  0  0  0  0  0  0  0
  -18.9803  -41.0849   -5.9782 C   0  0  0  0  0  0  0  0  0  0  0  0
  -19.7551  -41.1829   -4.8531 C   0  0  0  0  0  0  0  0  0  0  0  0
  -19.7319  -42.1571   -3.7254 C   0  0  0  0  0  0  0  0  0  0  0  0
  -20.9784  -43.0280   -3.9034 C   0  0  0  0  0  0  0  0  0  0  0  0
  -20.8796  -44.0455   -4.9910 C   0  0  0  0  0  0  0  0  0  0  0  0
  -21.9848  -43.7614   -5.9862 C   0  0  0  0  0  0  0  0  0  0  0  0
  -21.6962  -44.2736   -7.3135 N   0  0  0  0  0  0  0  0  0  0  0  0
  -20.8723  -43.7521   -8.3624 C   0  0  0  0  0  0  0  0  0  0  0  0
  -19.5571  -43.3272   -8.3675 C   0  0  0  0  0  0  0  0  0  0  0  0
  -19.0294  -42.7809   -9.5206 C   0  0  0  0  0  0  0  0  0  0  0  0
  -19.8862  -42.6988  -10.6513 C   0  0  0  0  0  0  0  0  0  0  0  0
  -21.1501  -43.1018  -10.6851 N   0  0  0  0  0  4  0  0  0  0  0  0
  -21.9737  -42.9877  -11.8828 C   0  0  0  0  0  0  0  0  0  0  0  0
  -22.2532  -41.6121  -12.2616 C   0  0  0  0  0  0  0  0  0  0  0  0
  -21.9617  -41.1638  -13.5298 C   0  0  0  0  0  0  0  0  0  0  0  0
  -22.2349  -39.8360  -13.8958 C   0  0  0  0  0  0  0  0  0  0  0  0
  -22.7982  -38.9765  -12.9809 C   0  0  0  0  0  0  0  0  0  0  0  0
  -23.0936  -39.4194  -11.7051 C   0  0  0  0  0  0  0  0  0  0  0  0
  -22.8162  -40.7378  -11.3584 C   0  0  0  0  0  0  0  0  0  0  0  0
  -21.6286  -43.6189   -9.5537 C   0  0  0  0  0  0  0  0  0  0  0  0
  -17.7069  -42.1926   -9.7965 C   0  0  0  0  0  0  0  0  0  0  0  0
  -17.1245  -42.5891  -10.9087 O   0  0  0  0  0  0  0  0  0  0  0  0
  -16.9106  -41.2578   -9.0914 N   0  0  0  0  0  0  0  0  0  0  0  0
  -20.8240  -40.2610   -4.6482 C   0  0  0  0  0  0  0  0  0  0  0  0
  -21.1299  -39.2657   -5.5233 C   0  0  0  0  0  0  0  0  0  0  0  0
  -20.3331  -39.2041   -6.6326 C   0  0  0  0  0  0  0  0  0  0  0  0
  -14.3763  -37.8501  -11.0592 C   0  0  0  0  0  0  0  0  0  0  0  0
  -13.2456  -37.1413  -10.7867 C   0  0  0  0  0  0  0  0  0  0  0  0
  -13.1046  -35.8293  -11.1918 C   0  0  0  0  0  0  0  0  0  0  0  0
  -11.5411  -34.8042  -10.8300 Br  0  0  0  0  0  0  0  0  0  0  0  0
  -14.1238  -35.1941  -11.8956 C   0  0  0  0  0  0  0  0  0  0  0  0
  -15.2713  -35.9139  -12.1720 C   0  0  0  0  0  0  0  0  0  0  0  0
  -15.3780  -37.2148  -11.7545 C   0  0  0  0  0  0  0  0  0  0  0  0
  1  2  1  0
  2  3  1  0
  2  4  1  0
  4  5  1  0
  5  6  1  0
  6  7  1  1
  6  8  1  0
  8  9  1  1
  9 10  1  0
 10 11  1  0
 11 12  2  0
 12 13  1  0
 13 14  1  0
 14 15  1  0
 15 16  1  0
 16 17  1  0
 17 18  1  0
 18 19  1  0
 19 20  2  0
 20 21  1  0
 21 22  2  0
 22 23  1  0
 23 24  1  0
 24 25  2  0
 25 26  1  0
 26 27  2  0
 27 28  1  0
 28 29  2  0
 22 30  1  0
 20 31  1  0
 31 32  2  0
 31 33  1  0
 12 34  1  0
 34 35  2  0
 35 36  1  0
  2 37  1  0
 37 38  2  0
 38 39  1  0
 39 40  1  0
 39 41  2  0
 41 42  1  0
 42 43  2  0
 29 24  1  0
 30 18  2  0
 33  8  1  0
 36 10  2  0
 43 37  1  0
M  CHG  1  22   1
M  END
$$$$
