
     RDKit          3D

 43 46  0  0  0  0  0  0  0  0999 V2000
  -20.9071  -38.1664   -7.4665 C   0  0  0  0  0  0  0  0  0  0  0  0
  -20.5797  -39.4766   -6.7776 C   0  0  2  0  0  0  0  0  0  0  0  0
  -20.7609  -39.2497   -5.2924 C   0  0  0  0  0  0  0  0  0  0  0  0
  -22.2552  -39.0686   -5.0063 C   0  0  0  0  0  0  0  0  0  0  0  0
  -22.6498  -39.6895   -3.6849 C   0  0  0  0  0  0  0  0  0  0  0  0
  -23.4907  -40.9121   -3.8403 C   0  0  0  0  0  0  0  0  0  0  0  0
  -23.1961  -41.6969   -5.0966 C   0  0  0  0  0  0  0  0  0  0  0  0
  -23.4653  -43.1835   -4.9268 C   0  0  0  0  0  0  0  0  0  0  0  0
  -22.2638  -43.9219   -4.4378 C   0  0  0  0  0  0  0  0  0  0  0  0
  -21.6094  -44.7044   -5.4704 N   0  0  0  0  0  0  0  0  0  0  0  0
  -20.7072  -44.3401   -6.5144 C   0  0  0  0  0  0  0  0  0  0  0  0
  -19.6322  -45.2802   -6.5458 C   0  0  0  0  0  0  0  0  0  0  0  0
  -18.5942  -45.2188   -7.4197 C   0  0  0  0  0  0  0  0  0  0  0  0
  -18.6227  -44.1741   -8.3073 C   0  0  0  0  0  0  0  0  0  0  0  0
  -19.6608  -43.2052   -8.3309 C   0  0  0  0  0  0  0  0  0  0  0  0
  -20.7131  -43.2985   -7.4196 C   0  0  0  0  0  0  0  0  0  0  0  0
  -19.3753  -42.2306   -9.3931 C   0  0  0  0  0  0  0  0  0  0  0  0
  -19.0002  -42.7894  -10.5332 O   0  0  0  0  0  0  0  0  0  0  0  0
  -19.4118  -40.8214   -9.4638 N   0  0  0  0  0  0  0  0  0  0  0  0
  -18.8964  -39.8265   -8.5938 C   0  0  1  0  0  0  0  0  0  0  0  0
  -19.2067  -39.9778   -7.1394 C   0  0  0  0  0  0  0  0  0  0  0  0
  -17.4179  -39.5214   -8.7229 C   0  0  2  0  0  0  0  0  0  0  0  0
  -17.1450  -38.1903   -8.5059 O   0  0  0  0  0  0  0  0  0  0  0  0
  -16.9481  -39.8334  -10.1635 C   0  0  0  0  0  0  0  0  0  0  0  0
  -15.7445  -40.5742  -10.1537 N   0  0  0  0  0  0  0  0  0  0  0  0
  -14.6368  -40.0389  -10.9267 C   0  0  0  0  0  0  0  0  0  0  0  0
  -13.3618  -40.8657  -10.6332 C   0  0  0  0  0  0  0  0  0  0  0  0
  -14.0073  -40.9755  -11.9676 C   0  0  0  0  0  0  0  0  0  0  0  0
  -14.4261  -38.5857  -11.0345 C   0  0  0  0  0  0  0  0  0  0  0  0
  -13.6333  -38.0341  -12.0097 C   0  0  0  0  0  0  0  0  0  0  0  0
  -13.4568  -36.6466  -12.1342 C   0  0  0  0  0  0  0  0  0  0  0  0
  -14.0976  -35.7994  -11.2505 C   0  0  0  0  0  0  0  0  0  0  0  0
  -14.8923  -36.3382  -10.2719 C   0  0  0  0  0  0  0  0  0  0  0  0
  -15.0498  -37.7272  -10.1727 C   0  0  0  0  0  0  0  0  0  0  0  0
  -12.6138  -36.0518  -13.1879 C   0  0  0  0  0  0  0  0  0  0  0  0
  -12.3042  -37.0406  -14.2924 C   0  0  0  0  0  0  0  0  0  0  0  0
  -13.2852  -34.8435  -13.7517 C   0  0  0  0  0  0  0  0  0  0  0  0
  -11.2730  -35.6567  -12.5709 C   0  0  0  0  0  0  0  0  0  0  0  0
  -17.5292  -46.2093   -7.4051 C   0  0  0  0  0  0  0  0  0  0  0  0
  -16.8128  -46.3599   -6.4095 O   0  0  0  0  0  0  0  0  0  0  0  0
  -17.3263  -46.9995   -8.5524 N   0  0  0  0  0  0  0  0  0  0  0  0
  -16.0213  -47.5731   -8.7897 C   0  0  0  0  0  0  0  0  0  0  0  0
  -18.3583  -47.2856   -9.5356 C   0  0  0  0  0  0  0  0  0  0  0  0
  2  1  1  6
  2  3  1  0
  3  4  1  0
  4  5  1  0
  5  6  1  0
  6  7  1  0
  7  8  1  0
  8  9  1  0
  9 10  1  0
 10 11  1  0
 11 12  1  0
 12 13  2  0
 13 14  1  0
 14 15  2  0
 15 16  1  0
 15 17  1  0
 17 18  2  0
 17 19  1  0
 19 20  1  0
 20 21  1  1
 20 22  1  0
 22 23  1  6
 22 24  1  0
 24 25  1  0
 25 26  1  0
 26 27  1  0
 27 28  1  0
 26 29  1  0
 29 30  2  0
 30 31  1  0
 31 32  2  0
 32 33  1  0
 33 34  2  0
 31 35  1  0
 35 36  1  0
 35 37  1  0
 35 38  1  0
 13 39  1  0
 39 40  2  0
 39 41  1  0
 41 42  1  0
 41 43  1  0
 16 11  2  0
 21  2  1  0
 28 26  1  0
 34 29  1  0
M  END
$$$$
