
     RDKit          3D

 43 46  0  0  0  0  0  0  0  0999 V2000
  -13.5947  -36.9893   -9.0737 C   0  0  0  0  0  0  0  0  0  0  0  0
  -13.9072  -37.9516  -10.2026 C   0  0  2  0  0  0  0  0  0  0  0  0
  -13.5368  -37.2517  -11.4922 C   0  0  0  0  0  0  0  0  0  0  0  0
  -12.0114  -37.1228  -11.5555 C   0  0  0  0  0  0  0  0  0  0  0  0
  -11.4950  -37.2918  -12.9668 C   0  0  0  0  0  0  0  0  0  0  0  0
  -10.7461  -38.5665  -13.1677 C   0  0  0  0  0  0  0  0  0  0  0  0
  -11.2315  -39.7005  -12.2964 C   0  0  0  0  0  0  0  0  0  0  0  0
  -11.0246  -41.0592  -12.9462 C   0  0  0  0  0  0  0  0  0  0  0  0
  -12.1968  -41.4737  -13.7722 C   0  0  0  0  0  0  0  0  0  0  0  0
  -13.0119  -42.4964  -13.1424 N   0  0  0  0  0  0  0  0  0  0  0  0
  -14.0119  -42.4267  -12.1268 C   0  0  0  0  0  0  0  0  0  0  0  0
  -15.1322  -43.2183  -12.5255 C   0  0  0  0  0  0  0  0  0  0  0  0
  -16.2628  -43.3618  -11.7866 C   0  0  0  0  0  0  0  0  0  0  0  0
  -16.2847  -42.6879  -10.5928 C   0  0  0  0  0  0  0  0  0  0  0  0
  -15.2062  -41.8846  -10.1362 C   0  0  0  0  0  0  0  0  0  0  0  0
  -14.0586  -41.7595  -10.9198 C   0  0  0  0  0  0  0  0  0  0  0  0
  -15.5642  -41.3066   -8.8334 C   0  0  0  0  0  0  0  0  0  0  0  0
  -16.1032  -42.1822   -7.9994 O   0  0  0  0  0  0  0  0  0  0  0  0
  -15.4604  -40.0148   -8.2741 N   0  0  0  0  0  0  0  0  0  0  0  0
  -15.8130  -38.7407   -8.7884 C   0  0  1  0  0  0  0  0  0  0  0  0
  -15.3389  -38.4171  -10.1685 C   0  0  0  0  0  0  0  0  0  0  0  0
  -17.2776  -38.3626   -8.7010 C   0  0  2  0  0  0  0  0  0  0  0  0
  -17.4541  -37.0959   -8.1933 O   0  0  0  0  0  0  0  0  0  0  0  0
  -18.0047  -39.3256   -7.7328 C   0  0  0  0  0  0  0  0  0  0  0  0
  -18.8549  -40.2064   -8.4391 N   0  0  0  0  0  0  0  0  0  0  0  0
  -19.8813  -40.8880   -7.6691 C   0  0  0  0  0  0  0  0  0  0  0  0
  -20.7195  -41.7827   -8.6138 C   0  0  0  0  0  0  0  0  0  0  0  0
  -19.8078  -42.4209   -7.6285 C   0  0  0  0  0  0  0  0  0  0  0  0
  -20.6545  -40.1697   -6.6424 C   0  0  0  0  0  0  0  0  0  0  0  0
  -21.1465  -40.7995   -5.5266 C   0  0  0  0  0  0  0  0  0  0  0  0
  -21.8562  -40.1099   -4.5303 C   0  0  0  0  0  0  0  0  0  0  0  0
  -22.0725  -38.7522   -4.6682 C   0  0  0  0  0  0  0  0  0  0  0  0
  -21.5861  -38.1116   -5.7784 C   0  0  0  0  0  0  0  0  0  0  0  0
  -20.8807  -38.8263   -6.7559 C   0  0  0  0  0  0  0  0  0  0  0  0
  -22.3765  -40.7830   -3.3256 C   0  0  0  0  0  0  0  0  0  0  0  0
  -22.6462  -39.8051   -2.2011 C   0  0  0  0  0  0  0  0  0  0  0  0
  -23.6208  -41.5354   -3.6633 C   0  0  0  0  0  0  0  0  0  0  0  0
  -21.3111  -41.7507   -2.8127 C   0  0  0  0  0  0  0  0  0  0  0  0
  -17.3703  -44.1858  -12.2449 C   0  0  0  0  0  0  0  0  0  0  0  0
  -17.3051  -45.4192  -12.2066 O   0  0  0  0  0  0  0  0  0  0  0  0
  -18.5264  -43.5504  -12.7364 N   0  0  0  0  0  0  0  0  0  0  0  0
  -18.6603  -42.1193  -12.5861 C   0  0  0  0  0  0  0  0  0  0  0  0
  -19.6175  -44.2463  -13.3988 C   0  0  0  0  0  0  0  0  0  0  0  0
  2  1  1  1
  2  3  1  0
  3  4  1  0
  4  5  1  0
  5  6  1  0
  6  7  1  0
  7  8  1  0
  8  9  1  0
  9 10  1  0
 10 11  1  0
 11 12  1  0
 12 13  2  0
 13 14  1  0
 14 15  2  0
 15 16  1  0
 15 17  1  0
 17 18  2  0
 17 19  1  0
 19 20  1  0
 20 21  1  6
 20 22  1  0
 22 23  1  1
 22 24  1  0
 24 25  1  0
 25 26  1  0
 26 27  1  0
 27 28  1  0
 26 29  1  0
 29 30  2  0
 30 31  1  0
 31 32  2  0
 32 33  1  0
 33 34  2  0
 31 35  1  0
 35 36  1  0
 35 37  1  0
 35 38  1  0
 13 39  1  0
 39 40  2  0
 39 41  1  0
 41 42  1  0
 41 43  1  0
 16 11  2  0
 21  2  1  0
 28 26  1  0
 34 29  1  0
M  END
$$$$
