
     RDKit          3D

 43 46  0  0  0  0  0  0  0  0999 V2000
  -19.5634  -37.9869   -6.3579 C   0  0  0  0  0  0  0  0  0  0  0  0
  -19.7574  -39.4216   -5.9081 C   0  0  2  0  0  0  0  0  0  0  0  0
  -20.4242  -39.3705   -4.5506 C   0  0  0  0  0  0  0  0  0  0  0  0
  -21.8589  -38.8642   -4.7316 C   0  0  0  0  0  0  0  0  0  0  0  0
  -22.8162  -39.5484   -3.7815 C   0  0  0  0  0  0  0  0  0  0  0  0
  -23.7514  -40.4870   -4.4675 C   0  0  0  0  0  0  0  0  0  0  0  0
  -23.1674  -41.1335   -5.7012 C   0  0  0  0  0  0  0  0  0  0  0  0
  -23.7483  -42.5141   -5.9612 C   0  0  0  0  0  0  0  0  0  0  0  0
  -22.9665  -43.5912   -5.2855 C   0  0  0  0  0  0  0  0  0  0  0  0
  -22.1356  -44.3572   -6.1964 N   0  0  0  0  0  0  0  0  0  0  0  0
  -20.8637  -44.0852   -6.7837 C   0  0  0  0  0  0  0  0  0  0  0  0
  -20.0441  -45.2498   -6.6723 C   0  0  0  0  0  0  0  0  0  0  0  0
  -18.7662  -45.3259   -7.1261 C   0  0  0  0  0  0  0  0  0  0  0  0
  -18.2757  -44.1920   -7.7206 C   0  0  0  0  0  0  0  0  0  0  0  0
  -19.0361  -43.0012   -7.8642 C   0  0  0  0  0  0  0  0  0  0  0  0
  -20.3467  -42.9573   -7.3877 C   0  0  0  0  0  0  0  0  0  0  0  0
  -18.2081  -41.9879   -8.5330 C   0  0  0  0  0  0  0  0  0  0  0  0
  -17.5517  -42.4545   -9.5838 O   0  0  0  0  0  0  0  0  0  0  0  0
  -17.9567  -40.6190   -8.2981 N   0  0  0  0  0  0  0  0  0  0  0  0
  -17.6217  -39.9189   -7.1107 C   0  0  1  0  0  0  0  0  0  0  0  0
  -18.4644  -40.1933   -5.9070 C   0  0  0  0  0  0  0  0  0  0  0  0
  -16.1694  -39.9778   -6.6828 C   0  0  2  0  0  0  0  0  0  0  0  0
  -15.7157  -38.7609   -6.2283 O   0  0  0  0  0  0  0  0  0  0  0  0
  -15.2856  -40.3465   -7.8979 C   0  0  0  0  0  0  0  0  0  0  0  0
  -15.3392  -39.3382   -8.8868 N   0  0  0  0  0  0  0  0  0  0  0  0
  -14.6428  -39.6031  -10.1341 C   0  0  0  0  0  0  0  0  0  0  0  0
  -13.1188  -39.4499   -9.9113 C   0  0  0  0  0  0  0  0  0  0  0  0
  -13.6858  -40.8036  -10.1470 C   0  0  0  0  0  0  0  0  0  0  0  0
  -15.1441  -39.0594  -11.4072 C   0  0  0  0  0  0  0  0  0  0  0  0
  -14.6344  -37.9118  -11.9612 C   0  0  0  0  0  0  0  0  0  0  0  0
  -15.0887  -37.4092  -13.1911 C   0  0  0  0  0  0  0  0  0  0  0  0
  -16.0819  -38.0843  -13.8745 C   0  0  0  0  0  0  0  0  0  0  0  0
  -16.5993  -39.2318  -13.3315 C   0  0  0  0  0  0  0  0  0  0  0  0
  -16.1254  -39.7096  -12.1022 C   0  0  0  0  0  0  0  0  0  0  0  0
  -14.5347  -36.1820  -13.7930 C   0  0  0  0  0  0  0  0  0  0  0  0
  -15.5317  -35.0423  -13.7772 C   0  0  0  0  0  0  0  0  0  0  0  0
  -13.2871  -35.7849  -13.0757 C   0  0  0  0  0  0  0  0  0  0  0  0
  -14.2190  -36.4620  -15.2615 C   0  0  0  0  0  0  0  0  0  0  0  0
  -17.9818  -46.5429   -6.9867 C   0  0  0  0  0  0  0  0  0  0  0  0
  -17.5588  -46.9053   -5.8837 O   0  0  0  0  0  0  0  0  0  0  0  0
  -17.7104  -47.3067   -8.1378 N   0  0  0  0  0  0  0  0  0  0  0  0
  -16.9856  -48.5496   -8.0024 C   0  0  0  0  0  0  0  0  0  0  0  0
  -18.1165  -46.9259   -9.4808 C   0  0  0  0  0  0  0  0  0  0  0  0
  2  1  1  1
  2  3  1  0
  3  4  1  0
  4  5  1  0
  5  6  1  0
  6  7  1  0
  7  8  1  0
  8  9  1  0
  9 10  1  0
 10 11  1  0
 11 12  1  0
 12 13  2  0
 13 14  1  0
 14 15  2  0
 15 16  1  0
 15 17  1  0
 17 18  2  0
 17 19  1  0
 19 20  1  0
 20 21  1  1
 20 22  1  0
 22 23  1  6
 22 24  1  0
 24 25  1  0
 25 26  1  0
 26 27  1  0
 27 28  1  0
 26 29  1  0
 29 30  2  0
 30 31  1  0
 31 32  2  0
 32 33  1  0
 33 34  2  0
 31 35  1  0
 35 36  1  0
 35 37  1  0
 35 38  1  0
 13 39  1  0
 39 40  2  0
 39 41  1  0
 41 42  1  0
 41 43  1  0
 16 11  2  0
 21  2  1  0
 28 26  1  0
 34 29  1  0
M  END
$$$$
