
     RDKit          3D

 43 46  0  0  0  0  0  0  0  0999 V2000
  -19.1412  -37.8476   -7.9713 C   0  0  0  0  0  0  0  0  0  0  0  0
  -19.5163  -39.1291   -7.2535 C   0  0  2  0  0  0  0  0  0  0  0  0
  -20.2366  -38.7277   -5.9846 C   0  0  0  0  0  0  0  0  0  0  0  0
  -21.5952  -38.1297   -6.3643 C   0  0  0  0  0  0  0  0  0  0  0  0
  -22.6673  -38.4998   -5.3639 C   0  0  0  0  0  0  0  0  0  0  0  0
  -23.6684  -39.4630   -5.9079 C   0  0  0  0  0  0  0  0  0  0  0  0
  -23.1031  -40.4092   -6.9404 C   0  0  0  0  0  0  0  0  0  0  0  0
  -23.8224  -41.7484   -6.9537 C   0  0  0  0  0  0  0  0  0  0  0  0
  -23.1996  -42.7324   -6.0200 C   0  0  0  0  0  0  0  0  0  0  0  0
  -22.4178  -43.7518   -6.6958 N   0  0  0  0  0  0  0  0  0  0  0  0
  -21.0971  -43.7379   -7.2361 C   0  0  0  0  0  0  0  0  0  0  0  0
  -20.4197  -44.9292   -6.8331 C   0  0  0  0  0  0  0  0  0  0  0  0
  -19.1385  -45.2265   -7.1718 C   0  0  0  0  0  0  0  0  0  0  0  0
  -18.4960  -44.2975   -7.9490 C   0  0  0  0  0  0  0  0  0  0  0  0
  -19.1101  -43.0934   -8.3847 C   0  0  0  0  0  0  0  0  0  0  0  0
  -20.4286  -42.8194   -8.0195 C   0  0  0  0  0  0  0  0  0  0  0  0
  -18.1427  -42.3312   -9.1864 C   0  0  0  0  0  0  0  0  0  0  0  0
  -17.4939  -43.0713  -10.0719 O   0  0  0  0  0  0  0  0  0  0  0  0
  -17.7504  -40.9757   -9.2182 N   0  0  0  0  0  0  0  0  0  0  0  0
  -17.3955  -40.0791   -8.1778 C   0  0  1  0  0  0  0  0  0  0  0  0
  -18.3197  -40.0089   -7.0051 C   0  0  0  0  0  0  0  0  0  0  0  0
  -15.9809  -40.1920   -7.6468 C   0  0  2  0  0  0  0  0  0  0  0  0
  -15.6027  -39.0711   -6.9438 O   0  0  0  0  0  0  0  0  0  0  0  0
  -14.9918  -40.3191   -8.8296 C   0  0  0  0  0  0  0  0  0  0  0  0
  -15.6223  -39.9974  -10.0529 N   0  0  0  0  0  0  0  0  0  0  0  0
  -14.8663  -40.2487  -11.2680 C   0  0  0  0  0  0  0  0  0  0  0  0
  -13.8447  -41.3822  -11.0092 C   0  0  0  0  0  0  0  0  0  0  0  0
  -15.0110  -41.6436  -11.8929 C   0  0  0  0  0  0  0  0  0  0  0  0
  -14.3651  -39.1332  -12.0878 C   0  0  0  0  0  0  0  0  0  0  0  0
  -14.6273  -37.8228  -11.7748 C   0  0  0  0  0  0  0  0  0  0  0  0
  -14.1232  -36.7565  -12.5368 C   0  0  0  0  0  0  0  0  0  0  0  0
  -13.3364  -37.0241  -13.6407 C   0  0  0  0  0  0  0  0  0  0  0  0
  -13.0674  -38.3290  -13.9638 C   0  0  0  0  0  0  0  0  0  0  0  0
  -13.5840  -39.3725  -13.1839 C   0  0  0  0  0  0  0  0  0  0  0  0
  -14.3951  -35.3477  -12.1958 C   0  0  0  0  0  0  0  0  0  0  0  0
  -15.8761  -35.0327  -12.2246 C   0  0  0  0  0  0  0  0  0  0  0  0
  -13.8279  -35.0336  -10.8511 C   0  0  0  0  0  0  0  0  0  0  0  0
  -13.7417  -34.4582  -13.2524 C   0  0  0  0  0  0  0  0  0  0  0  0
  -18.5033  -46.4594   -6.7332 C   0  0  0  0  0  0  0  0  0  0  0  0
  -18.8086  -47.5467   -7.2348 O   0  0  0  0  0  0  0  0  0  0  0  0
  -17.5278  -46.3930   -5.7203 N   0  0  0  0  0  0  0  0  0  0  0  0
  -16.9534  -47.6192   -5.2155 C   0  0  0  0  0  0  0  0  0  0  0  0
  -17.0471  -45.1524   -5.1343 C   0  0  0  0  0  0  0  0  0  0  0  0
  2  1  1  1
  2  3  1  0
  3  4  1  0
  4  5  1  0
  5  6  1  0
  6  7  1  0
  7  8  1  0
  8  9  1  0
  9 10  1  0
 10 11  1  0
 11 12  1  0
 12 13  2  0
 13 14  1  0
 14 15  2  0
 15 16  1  0
 15 17  1  0
 17 18  2  0
 17 19  1  0
 19 20  1  0
 20 21  1  1
 20 22  1  0
 22 23  1  6
 22 24  1  0
 24 25  1  0
 25 26  1  0
 26 27  1  0
 27 28  1  0
 26 29  1  0
 29 30  2  0
 30 31  1  0
 31 32  2  0
 32 33  1  0
 33 34  2  0
 31 35  1  0
 35 36  1  0
 35 37  1  0
 35 38  1  0
 13 39  1  0
 39 40  2  0
 39 41  1  0
 41 42  1  0
 41 43  1  0
 16 11  2  0
 21  2  1  0
 28 26  1  0
 34 29  1  0
M  END
$$$$
