
     RDKit          3D

 43 46  0  0  0  0  0  0  0  0999 V2000
  -19.4739  -37.9360   -7.1239 C   0  0  0  0  0  0  0  0  0  0  0  0
  -19.7869  -39.3264   -6.6070 C   0  0  2  0  0  0  0  0  0  0  0  0
  -20.5359  -39.1526   -5.3036 C   0  0  0  0  0  0  0  0  0  0  0  0
  -21.9211  -38.5745   -5.6115 C   0  0  0  0  0  0  0  0  0  0  0  0
  -22.9794  -39.1412   -4.6917 C   0  0  0  0  0  0  0  0  0  0  0  0
  -23.9253  -40.0633   -5.3854 C   0  0  0  0  0  0  0  0  0  0  0  0
  -23.3043  -40.8177   -6.5369 C   0  0  0  0  0  0  0  0  0  0  0  0
  -23.9529  -42.1749   -6.7566 C   0  0  0  0  0  0  0  0  0  0  0  0
  -23.2863  -43.2529   -5.9682 C   0  0  0  0  0  0  0  0  0  0  0  0
  -22.4479  -44.1211   -6.7745 N   0  0  0  0  0  0  0  0  0  0  0  0
  -21.1259  -43.9614   -7.2877 C   0  0  0  0  0  0  0  0  0  0  0  0
  -20.3904  -45.1633   -7.0536 C   0  0  0  0  0  0  0  0  0  0  0  0
  -19.0930  -45.3426   -7.4135 C   0  0  0  0  0  0  0  0  0  0  0  0
  -18.4943  -44.2783   -8.0369 C   0  0  0  0  0  0  0  0  0  0  0  0
  -19.1672  -43.0557   -8.3005 C   0  0  0  0  0  0  0  0  0  0  0  0
  -20.5006  -42.9052   -7.9183 C   0  0  0  0  0  0  0  0  0  0  0  0
  -18.2351  -42.1362   -8.9678 C   0  0  0  0  0  0  0  0  0  0  0  0
  -17.5425  -42.7044   -9.9425 O   0  0  0  0  0  0  0  0  0  0  0  0
  -17.9136  -40.7727   -8.7950 N   0  0  0  0  0  0  0  0  0  0  0  0
  -17.6131  -40.0220   -7.6295 C   0  0  1  0  0  0  0  0  0  0  0  0
  -18.5479  -40.1716   -6.4727 C   0  0  0  0  0  0  0  0  0  0  0  0
  -16.1983  -40.1403   -7.1002 C   0  0  2  0  0  0  0  0  0  0  0  0
  -16.0335  -39.4646   -5.9129 O   0  0  0  0  0  0  0  0  0  0  0  0
  -15.2131  -39.5000   -8.1066 C   0  0  0  0  0  0  0  0  0  0  0  0
  -15.1303  -40.2668   -9.2909 N   0  0  0  0  0  0  0  0  0  0  0  0
  -14.0929  -39.9005  -10.2400 C   0  0  0  0  0  0  0  0  0  0  0  0
  -12.7538  -40.5451   -9.8076 C   0  0  0  0  0  0  0  0  0  0  0  0
  -13.4420  -41.0479  -11.0254 C   0  0  0  0  0  0  0  0  0  0  0  0
  -13.9864  -38.5216  -10.7448 C   0  0  0  0  0  0  0  0  0  0  0  0
  -13.5041  -38.2391  -11.9984 C   0  0  0  0  0  0  0  0  0  0  0  0
  -13.4320  -36.9273  -12.4940 C   0  0  0  0  0  0  0  0  0  0  0  0
  -13.8575  -35.8785  -11.7014 C   0  0  0  0  0  0  0  0  0  0  0  0
  -14.3413  -36.1477  -10.4473 C   0  0  0  0  0  0  0  0  0  0  0  0
  -14.4018  -37.4675   -9.9800 C   0  0  0  0  0  0  0  0  0  0  0  0
  -12.9239  -36.6230  -13.8447 C   0  0  0  0  0  0  0  0  0  0  0  0
  -11.8649  -37.6105  -14.2884 C   0  0  0  0  0  0  0  0  0  0  0  0
  -14.0545  -36.6076  -14.8194 C   0  0  0  0  0  0  0  0  0  0  0  0
  -12.2516  -35.2513  -13.8121 C   0  0  0  0  0  0  0  0  0  0  0  0
  -18.3977  -46.5929   -7.1510 C   0  0  0  0  0  0  0  0  0  0  0  0
  -18.0958  -46.9245   -5.9995 O   0  0  0  0  0  0  0  0  0  0  0  0
  -18.0718  -47.4254   -8.2386 N   0  0  0  0  0  0  0  0  0  0  0  0
  -18.4595  -47.0249   -9.5718 C   0  0  0  0  0  0  0  0  0  0  0  0
  -17.3575  -48.6854   -8.1127 C   0  0  0  0  0  0  0  0  0  0  0  0
  2  1  1  1
  2  3  1  0
  3  4  1  0
  4  5  1  0
  5  6  1  0
  6  7  1  0
  7  8  1  0
  8  9  1  0
  9 10  1  0
 10 11  1  0
 11 12  1  0
 12 13  2  0
 13 14  1  0
 14 15  2  0
 15 16  1  0
 15 17  1  0
 17 18  2  0
 17 19  1  0
 19 20  1  0
 20 21  1  1
 20 22  1  0
 22 23  1  1
 22 24  1  0
 24 25  1  0
 25 26  1  0
 26 27  1  0
 27 28  1  0
 26 29  1  0
 29 30  2  0
 30 31  1  0
 31 32  2  0
 32 33  1  0
 33 34  2  0
 31 35  1  0
 35 36  1  0
 35 37  1  0
 35 38  1  0
 13 39  1  0
 39 40  2  0
 39 41  1  0
 41 42  1  0
 41 43  1  0
 16 11  2  0
 21  2  1  0
 28 26  1  0
 34 29  1  0
M  END
$$$$
