
     RDKit          3D

 43 46  0  0  0  0  0  0  0  0999 V2000
  -19.7964  -37.5376   -6.8892 C   0  0  0  0  0  0  0  0  0  0  0  0
  -20.0976  -38.9749   -6.5125 C   0  0  2  0  0  0  0  0  0  0  0  0
  -20.8922  -38.9347   -5.2252 C   0  0  0  0  0  0  0  0  0  0  0  0
  -22.2781  -38.3550   -5.5265 C   0  0  0  0  0  0  0  0  0  0  0  0
  -23.3541  -39.0223   -4.6993 C   0  0  0  0  0  0  0  0  0  0  0  0
  -24.2577  -39.8930   -5.5064 C   0  0  0  0  0  0  0  0  0  0  0  0
  -23.5840  -40.5275   -6.7000 C   0  0  0  0  0  0  0  0  0  0  0  0
  -24.1972  -41.8698   -7.0649 C   0  0  0  0  0  0  0  0  0  0  0  0
  -23.5347  -43.0039   -6.3557 C   0  0  0  0  0  0  0  0  0  0  0  0
  -22.6527  -43.7796   -7.2085 N   0  0  0  0  0  0  0  0  0  0  0  0
  -21.3183  -43.5503   -7.6591 C   0  0  0  0  0  0  0  0  0  0  0  0
  -20.5662  -44.7557   -7.5106 C   0  0  0  0  0  0  0  0  0  0  0  0
  -19.2544  -44.8785   -7.8405 C   0  0  0  0  0  0  0  0  0  0  0  0
  -18.6576  -43.7511   -8.3431 C   0  0  0  0  0  0  0  0  0  0  0  0
  -19.3464  -42.5214   -8.5170 C   0  0  0  0  0  0  0  0  0  0  0  0
  -20.6944  -42.4299   -8.1689 C   0  0  0  0  0  0  0  0  0  0  0  0
  -18.4122  -41.5283   -9.0651 C   0  0  0  0  0  0  0  0  0  0  0  0
  -17.6765  -41.9923  -10.0632 O   0  0  0  0  0  0  0  0  0  0  0  0
  -18.1245  -40.1810   -8.7576 N   0  0  0  0  0  0  0  0  0  0  0  0
  -17.8777  -39.5355   -7.5188 C   0  0  1  0  0  0  0  0  0  0  0  0
  -18.8466  -39.8071   -6.4134 C   0  0  0  0  0  0  0  0  0  0  0  0
  -16.4789  -39.6772   -6.9541 C   0  0  2  0  0  0  0  0  0  0  0  0
  -15.8677  -38.4571   -6.7775 O   0  0  0  0  0  0  0  0  0  0  0  0
  -15.5958  -40.4672   -7.9489 C   0  0  0  0  0  0  0  0  0  0  0  0
  -15.4789  -39.7793   -9.1780 N   0  0  0  0  0  0  0  0  0  0  0  0
  -14.5383  -40.3177  -10.1457 C   0  0  0  0  0  0  0  0  0  0  0  0
  -13.5473  -41.2627   -9.4243 C   0  0  0  0  0  0  0  0  0  0  0  0
  -14.5566  -41.8391  -10.3508 C   0  0  0  0  0  0  0  0  0  0  0  0
  -13.9376  -39.4525  -11.1745 C   0  0  0  0  0  0  0  0  0  0  0  0
  -13.9290  -38.0846  -11.0627 C   0  0  0  0  0  0  0  0  0  0  0  0
  -13.3281  -37.2592  -12.0267 C   0  0  0  0  0  0  0  0  0  0  0  0
  -12.7231  -37.8327  -13.1286 C   0  0  0  0  0  0  0  0  0  0  0  0
  -12.7251  -39.1980  -13.2517 C   0  0  0  0  0  0  0  0  0  0  0  0
  -13.3323  -39.9963  -12.2730 C   0  0  0  0  0  0  0  0  0  0  0  0
  -13.3086  -35.7897  -11.9028 C   0  0  0  0  0  0  0  0  0  0  0  0
  -13.6387  -35.3344  -10.4966 C   0  0  0  0  0  0  0  0  0  0  0  0
  -11.9731  -35.2645  -12.3140 C   0  0  0  0  0  0  0  0  0  0  0  0
  -14.3927  -35.2121  -12.8115 C   0  0  0  0  0  0  0  0  0  0  0  0
  -18.5425  -46.1353   -7.6695 C   0  0  0  0  0  0  0  0  0  0  0  0
  -18.9940  -47.1906   -8.1271 O   0  0  0  0  0  0  0  0  0  0  0  0
  -17.3215  -46.1297   -6.9686 N   0  0  0  0  0  0  0  0  0  0  0  0
  -16.7500  -44.8664   -6.5616 C   0  0  0  0  0  0  0  0  0  0  0  0
  -16.5799  -47.3298   -6.6177 C   0  0  0  0  0  0  0  0  0  0  0  0
  2  1  1  1
  2  3  1  0
  3  4  1  0
  4  5  1  0
  5  6  1  0
  6  7  1  0
  7  8  1  0
  8  9  1  0
  9 10  1  0
 10 11  1  0
 11 12  1  0
 12 13  2  0
 13 14  1  0
 14 15  2  0
 15 16  1  0
 15 17  1  0
 17 18  2  0
 17 19  1  0
 19 20  1  0
 20 21  1  1
 20 22  1  0
 22 23  1  6
 22 24  1  0
 24 25  1  0
 25 26  1  0
 26 27  1  0
 27 28  1  0
 26 29  1  0
 29 30  2  0
 30 31  1  0
 31 32  2  0
 32 33  1  0
 33 34  2  0
 31 35  1  0
 35 36  1  0
 35 37  1  0
 35 38  1  0
 13 39  1  0
 39 40  2  0
 39 41  1  0
 41 42  1  0
 41 43  1  0
 16 11  2  0
 21  2  1  0
 28 26  1  0
 34 29  1  0
M  END
$$$$
