
     RDKit          3D

 43 46  0  0  0  0  0  0  0  0999 V2000
  -21.5507  -40.4285  -11.8201 C   0  0  0  0  0  0  0  0  0  0  0  0
  -21.7371  -41.1607  -10.5057 C   0  0  2  0  0  0  0  0  0  0  0  0
  -23.0110  -40.6308   -9.8841 C   0  0  0  0  0  0  0  0  0  0  0  0
  -24.1991  -41.1119  -10.7234 C   0  0  0  0  0  0  0  0  0  0  0  0
  -25.3981  -41.4348   -9.8600 C   0  0  0  0  0  0  0  0  0  0  0  0
  -25.6912  -42.8959   -9.7877 C   0  0  0  0  0  0  0  0  0  0  0  0
  -24.4640  -43.7686   -9.9025 C   0  0  0  0  0  0  0  0  0  0  0  0
  -24.6153  -45.0818   -9.1517 C   0  0  0  0  0  0  0  0  0  0  0  0
  -24.1501  -44.9795   -7.7371 C   0  0  0  0  0  0  0  0  0  0  0  0
  -22.8651  -45.6138   -7.5065 N   0  0  0  0  0  0  0  0  0  0  0  0
  -21.5293  -45.1815   -7.7618 C   0  0  0  0  0  0  0  0  0  0  0  0
  -20.7263  -45.4570   -6.6130 C   0  0  0  0  0  0  0  0  0  0  0  0
  -19.4036  -45.1620   -6.5220 C   0  0  0  0  0  0  0  0  0  0  0  0
  -18.8483  -44.5647   -7.6241 C   0  0  0  0  0  0  0  0  0  0  0  0
  -19.5886  -44.2635   -8.7980 C   0  0  0  0  0  0  0  0  0  0  0  0
  -20.9459  -44.5810   -8.8587 C   0  0  0  0  0  0  0  0  0  0  0  0
  -18.6929  -43.6246   -9.7722 C   0  0  0  0  0  0  0  0  0  0  0  0
  -17.5260  -44.2378   -9.8955 O   0  0  0  0  0  0  0  0  0  0  0  0
  -18.8041  -42.4930  -10.6086 N   0  0  0  0  0  0  0  0  0  0  0  0
  -19.2416  -41.1704  -10.3412 C   0  0  1  0  0  0  0  0  0  0  0  0
  -20.5359  -41.0248   -9.6078 C   0  0  0  0  0  0  0  0  0  0  0  0
  -18.2326  -40.2480   -9.6878 C   0  0  2  0  0  0  0  0  0  0  0  0
  -18.6118  -38.9278   -9.7696 O   0  0  0  0  0  0  0  0  0  0  0  0
  -16.8765  -40.3584  -10.4242 C   0  0  0  0  0  0  0  0  0  0  0  0
  -16.0814  -41.3864   -9.8685 N   0  0  0  0  0  0  0  0  0  0  0  0
  -14.6559  -41.1279   -9.7581 C   0  0  0  0  0  0  0  0  0  0  0  0
  -13.9573  -42.3676   -9.1493 C   0  0  0  0  0  0  0  0  0  0  0  0
  -13.7264  -42.0330  -10.5789 C   0  0  0  0  0  0  0  0  0  0  0  0
  -14.1611  -39.8306   -9.2683 C   0  0  0  0  0  0  0  0  0  0  0  0
  -14.2786  -38.6795  -10.0065 C   0  0  0  0  0  0  0  0  0  0  0  0
  -13.8367  -37.4356   -9.5278 C   0  0  0  0  0  0  0  0  0  0  0  0
  -13.2626  -37.3566   -8.2734 C   0  0  0  0  0  0  0  0  0  0  0  0
  -13.1396  -38.4994   -7.5263 C   0  0  0  0  0  0  0  0  0  0  0  0
  -13.5905  -39.7268   -8.0304 C   0  0  0  0  0  0  0  0  0  0  0  0
  -13.9717  -36.1960  -10.3153 C   0  0  0  0  0  0  0  0  0  0  0  0
  -13.5852  -36.4000  -11.7653 C   0  0  0  0  0  0  0  0  0  0  0  0
  -15.3720  -35.6870  -10.2224 C   0  0  0  0  0  0  0  0  0  0  0  0
  -13.0056  -35.1554   -9.7511 C   0  0  0  0  0  0  0  0  0  0  0  0
  -18.6371  -45.4709   -5.3250 C   0  0  0  0  0  0  0  0  0  0  0  0
  -18.0823  -46.5666   -5.1888 O   0  0  0  0  0  0  0  0  0  0  0  0
  -18.5370  -44.4936   -4.3165 N   0  0  0  0  0  0  0  0  0  0  0  0
  -17.8328  -44.8124   -3.0955 C   0  0  0  0  0  0  0  0  0  0  0  0
  -19.1033  -43.1586   -4.4189 C   0  0  0  0  0  0  0  0  0  0  0  0
  2  1  1  6
  2  3  1  0
  3  4  1  0
  4  5  1  0
  5  6  1  0
  6  7  1  0
  7  8  1  0
  8  9  1  0
  9 10  1  0
 10 11  1  0
 11 12  1  0
 12 13  2  0
 13 14  1  0
 14 15  2  0
 15 16  1  0
 15 17  1  0
 17 18  2  0
 17 19  1  0
 19 20  1  0
 20 21  1  1
 20 22  1  0
 22 23  1  6
 22 24  1  0
 24 25  1  0
 25 26  1  0
 26 27  1  0
 27 28  1  0
 26 29  1  0
 29 30  2  0
 30 31  1  0
 31 32  2  0
 32 33  1  0
 33 34  2  0
 31 35  1  0
 35 36  1  0
 35 37  1  0
 35 38  1  0
 13 39  1  0
 39 40  2  0
 39 41  1  0
 41 42  1  0
 41 43  1  0
 16 11  2  0
 21  2  1  0
 28 26  1  0
 34 29  1  0
M  END
$$$$
