
     RDKit          3D

 43 46  0  0  0  0  0  0  0  0999 V2000
  -19.2363  -38.4595   -6.3586 C   0  0  0  0  0  0  0  0  0  0  0  0
  -19.7617  -39.8580   -6.1006 C   0  0  2  0  0  0  0  0  0  0  0  0
  -20.6120  -39.7847   -4.8509 C   0  0  0  0  0  0  0  0  0  0  0  0
  -21.8812  -38.9886   -5.1717 C   0  0  0  0  0  0  0  0  0  0  0  0
  -23.0861  -39.5420   -4.4442 C   0  0  0  0  0  0  0  0  0  0  0  0
  -24.0598  -40.2157   -5.3519 C   0  0  0  0  0  0  0  0  0  0  0  0
  -23.4198  -40.8638   -6.5566 C   0  0  0  0  0  0  0  0  0  0  0  0
  -24.1989  -42.0745   -7.0447 C   0  0  0  0  0  0  0  0  0  0  0  0
  -23.7468  -43.3375   -6.3901 C   0  0  0  0  0  0  0  0  0  0  0  0
  -22.9401  -44.1779   -7.2562 N   0  0  0  0  0  0  0  0  0  0  0  0
  -21.5637  -44.1192   -7.6285 C   0  0  0  0  0  0  0  0  0  0  0  0
  -21.0025  -45.4294   -7.5336 C   0  0  0  0  0  0  0  0  0  0  0  0
  -19.7059  -45.7227   -7.8121 C   0  0  0  0  0  0  0  0  0  0  0  0
  -18.9261  -44.6655   -8.2046 C   0  0  0  0  0  0  0  0  0  0  0  0
  -19.4200  -43.3390   -8.3201 C   0  0  0  0  0  0  0  0  0  0  0  0
  -20.7579  -43.0725   -8.0273 C   0  0  0  0  0  0  0  0  0  0  0  0
  -18.3236  -42.4611   -8.7524 C   0  0  0  0  0  0  0  0  0  0  0  0
  -17.6086  -42.9629   -9.7472 O   0  0  0  0  0  0  0  0  0  0  0  0
  -17.8622  -41.1939   -8.3357 N   0  0  0  0  0  0  0  0  0  0  0  0
  -17.5937  -40.6736   -7.0437 C   0  0  1  0  0  0  0  0  0  0  0  0
  -18.6510  -40.8704   -6.0056 C   0  0  0  0  0  0  0  0  0  0  0  0
  -16.2631  -41.0564   -6.4282 C   0  0  2  0  0  0  0  0  0  0  0  0
  -15.9053  -40.2093   -5.4047 O   0  0  0  0  0  0  0  0  0  0  0  0
  -15.1479  -40.9468   -7.4949 C   0  0  0  0  0  0  0  0  0  0  0  0
  -15.5481  -40.1094   -8.5608 N   0  0  0  0  0  0  0  0  0  0  0  0
  -14.5954  -39.9201   -9.6414 C   0  0  0  0  0  0  0  0  0  0  0  0
  -13.1897  -39.6672   -9.0450 C   0  0  0  0  0  0  0  0  0  0  0  0
  -13.4608  -40.9489   -9.7471 C   0  0  0  0  0  0  0  0  0  0  0  0
  -14.9355  -39.0901  -10.8089 C   0  0  0  0  0  0  0  0  0  0  0  0
  -14.7427  -37.7313  -10.8188 C   0  0  0  0  0  0  0  0  0  0  0  0
  -15.0360  -36.9424  -11.9428 C   0  0  0  0  0  0  0  0  0  0  0  0
  -15.5364  -37.5438  -13.0817 C   0  0  0  0  0  0  0  0  0  0  0  0
  -15.7336  -38.9004  -13.0843 C   0  0  0  0  0  0  0  0  0  0  0  0
  -15.4309  -39.6620  -11.9475 C   0  0  0  0  0  0  0  0  0  0  0  0
  -14.8194  -35.4836  -11.9588 C   0  0  0  0  0  0  0  0  0  0  0  0
  -14.8493  -34.9210  -13.3645 C   0  0  0  0  0  0  0  0  0  0  0  0
  -15.8478  -34.8096  -11.1123 C   0  0  0  0  0  0  0  0  0  0  0  0
  -13.4249  -35.1945  -11.4053 C   0  0  0  0  0  0  0  0  0  0  0  0
  -19.1931  -47.0793   -7.7003 C   0  0  0  0  0  0  0  0  0  0  0  0
  -19.5993  -47.9773   -8.4456 O   0  0  0  0  0  0  0  0  0  0  0  0
  -18.2190  -47.3543   -6.7218 N   0  0  0  0  0  0  0  0  0  0  0  0
  -17.7960  -48.7206   -6.5149 C   0  0  0  0  0  0  0  0  0  0  0  0
  -17.5953  -46.3400   -5.8877 C   0  0  0  0  0  0  0  0  0  0  0  0
  2  1  1  1
  2  3  1  0
  3  4  1  0
  4  5  1  0
  5  6  1  0
  6  7  1  0
  7  8  1  0
  8  9  1  0
  9 10  1  0
 10 11  1  0
 11 12  1  0
 12 13  2  0
 13 14  1  0
 14 15  2  0
 15 16  1  0
 15 17  1  0
 17 18  2  0
 17 19  1  0
 19 20  1  0
 20 21  1  1
 20 22  1  0
 22 23  1  1
 22 24  1  0
 24 25  1  0
 25 26  1  0
 26 27  1  0
 27 28  1  0
 26 29  1  0
 29 30  2  0
 30 31  1  0
 31 32  2  0
 32 33  1  0
 33 34  2  0
 31 35  1  0
 35 36  1  0
 35 37  1  0
 35 38  1  0
 13 39  1  0
 39 40  2  0
 39 41  1  0
 41 42  1  0
 41 43  1  0
 16 11  2  0
 21  2  1  0
 28 26  1  0
 34 29  1  0
M  END
$$$$
