
     RDKit          3D

 43 46  0  0  0  0  0  0  0  0999 V2000
  -20.7800  -38.1335   -8.7776 C   0  0  0  0  0  0  0  0  0  0  0  0
  -20.6588  -39.2794   -7.7925 C   0  0  2  0  0  0  0  0  0  0  0  0
  -21.1660  -38.7699   -6.4608 C   0  0  0  0  0  0  0  0  0  0  0  0
  -22.6798  -38.5580   -6.5652 C   0  0  0  0  0  0  0  0  0  0  0  0
  -23.3837  -38.9150   -5.2752 C   0  0  0  0  0  0  0  0  0  0  0  0
  -24.2047  -40.1563   -5.3801 C   0  0  0  0  0  0  0  0  0  0  0  0
  -23.6565  -41.1667   -6.3597 C   0  0  0  0  0  0  0  0  0  0  0  0
  -24.0032  -42.5953   -5.9724 C   0  0  0  0  0  0  0  0  0  0  0  0
  -22.9679  -43.2070   -5.0881 C   0  0  0  0  0  0  0  0  0  0  0  0
  -22.1203  -44.1663   -5.7723 N   0  0  0  0  0  0  0  0  0  0  0  0
  -20.9934  -43.9996   -6.6319 C   0  0  0  0  0  0  0  0  0  0  0  0
  -19.9691  -44.9123   -6.2341 C   0  0  0  0  0  0  0  0  0  0  0  0
  -18.7582  -45.0075   -6.8419 C   0  0  0  0  0  0  0  0  0  0  0  0
  -18.5516  -44.1564   -7.8969 C   0  0  0  0  0  0  0  0  0  0  0  0
  -19.5265  -43.2257   -8.3442 C   0  0  0  0  0  0  0  0  0  0  0  0
  -20.7610  -43.1547   -7.6979 C   0  0  0  0  0  0  0  0  0  0  0  0
  -18.9768  -42.4729   -9.4803 C   0  0  0  0  0  0  0  0  0  0  0  0
  -18.3698  -43.2378  -10.3743 O   0  0  0  0  0  0  0  0  0  0  0  0
  -18.9527  -41.1052   -9.8282 N   0  0  0  0  0  0  0  0  0  0  0  0
  -18.6181  -39.9525   -9.0720 C   0  0  1  0  0  0  0  0  0  0  0  0
  -19.2556  -39.8218   -7.7264 C   0  0  0  0  0  0  0  0  0  0  0  0
  -17.1403  -39.6572   -8.9153 C   0  0  2  0  0  0  0  0  0  0  0  0
  -16.8729  -38.3094   -8.9880 O   0  0  0  0  0  0  0  0  0  0  0  0
  -16.3538  -40.3206  -10.0707 C   0  0  0  0  0  0  0  0  0  0  0  0
  -15.1778  -40.9408   -9.5913 N   0  0  0  0  0  0  0  0  0  0  0  0
  -14.0988  -41.1306  -10.5457 C   0  0  0  0  0  0  0  0  0  0  0  0
  -12.7991  -41.4858   -9.7839 C   0  0  0  0  0  0  0  0  0  0  0  0
  -13.4688  -42.5295  -10.6035 C   0  0  0  0  0  0  0  0  0  0  0  0
  -13.9243  -40.2072  -11.6790 C   0  0  0  0  0  0  0  0  0  0  0  0
  -13.3516  -38.9689  -11.5292 C   0  0  0  0  0  0  0  0  0  0  0  0
  -13.1547  -38.0997  -12.6143 C   0  0  0  0  0  0  0  0  0  0  0  0
  -13.5473  -38.4939  -13.8791 C   0  0  0  0  0  0  0  0  0  0  0  0
  -14.1206  -39.7285  -14.0417 C   0  0  0  0  0  0  0  0  0  0  0  0
  -14.3038  -40.5748  -12.9398 C   0  0  0  0  0  0  0  0  0  0  0  0
  -12.5299  -36.7731  -12.4569 C   0  0  0  0  0  0  0  0  0  0  0  0
  -11.3086  -36.8236  -11.5629 C   0  0  0  0  0  0  0  0  0  0  0  0
  -12.1655  -36.2228  -13.7959 C   0  0  0  0  0  0  0  0  0  0  0  0
  -13.5308  -35.8439  -11.7718 C   0  0  0  0  0  0  0  0  0  0  0  0
  -17.7556  -45.9608   -6.3927 C   0  0  0  0  0  0  0  0  0  0  0  0
  -18.0561  -47.1345   -6.1499 O   0  0  0  0  0  0  0  0  0  0  0  0
  -16.4272  -45.5209   -6.2379 N   0  0  0  0  0  0  0  0  0  0  0  0
  -16.1096  -44.1360   -6.5017 C   0  0  0  0  0  0  0  0  0  0  0  0
  -15.3297  -46.3790   -5.8224 C   0  0  0  0  0  0  0  0  0  0  0  0
  2  1  1  6
  2  3  1  0
  3  4  1  0
  4  5  1  0
  5  6  1  0
  6  7  1  0
  7  8  1  0
  8  9  1  0
  9 10  1  0
 10 11  1  0
 11 12  1  0
 12 13  2  0
 13 14  1  0
 14 15  2  0
 15 16  1  0
 15 17  1  0
 17 18  2  0
 17 19  1  0
 19 20  1  0
 20 21  1  1
 20 22  1  0
 22 23  1  6
 22 24  1  0
 24 25  1  0
 25 26  1  0
 26 27  1  0
 27 28  1  0
 26 29  1  0
 29 30  2  0
 30 31  1  0
 31 32  2  0
 32 33  1  0
 33 34  2  0
 31 35  1  0
 35 36  1  0
 35 37  1  0
 35 38  1  0
 13 39  1  0
 39 40  2  0
 39 41  1  0
 41 42  1  0
 41 43  1  0
 16 11  2  0
 21  2  1  0
 28 26  1  0
 34 29  1  0
M  END
$$$$
