
     RDKit          3D

 43 46  0  0  0  0  0  0  0  0999 V2000
  -18.5448  -37.7173   -9.8344 C   0  0  0  0  0  0  0  0  0  0  0  0
  -19.4953  -38.1695   -8.7433 C   0  0  2  0  0  0  0  0  0  0  0  0
  -20.3083  -36.9590   -8.3387 C   0  0  0  0  0  0  0  0  0  0  0  0
  -21.2487  -36.5963   -9.4927 C   0  0  0  0  0  0  0  0  0  0  0  0
  -22.5847  -36.0983   -8.9885 C   0  0  0  0  0  0  0  0  0  0  0  0
  -23.6998  -37.0572   -9.2396 C   0  0  0  0  0  0  0  0  0  0  0  0
  -23.2706  -38.5051   -9.2283 C   0  0  0  0  0  0  0  0  0  0  0  0
  -24.3831  -39.4350   -8.7713 C   0  0  0  0  0  0  0  0  0  0  0  0
  -24.3740  -39.6413   -7.2930 C   0  0  0  0  0  0  0  0  0  0  0  0
  -23.8567  -40.9380   -6.8960 N   0  0  0  0  0  0  0  0  0  0  0  0
  -22.5248  -41.4341   -6.7674 C   0  0  0  0  0  0  0  0  0  0  0  0
  -22.4137  -42.1471   -5.5346 C   0  0  0  0  0  0  0  0  0  0  0  0
  -21.2720  -42.7414   -5.1007 C   0  0  0  0  0  0  0  0  0  0  0  0
  -20.1862  -42.6240   -5.9296 C   0  0  0  0  0  0  0  0  0  0  0  0
  -20.2278  -41.9301   -7.1679 C   0  0  0  0  0  0  0  0  0  0  0  0
  -21.4174  -41.3318   -7.5844 C   0  0  0  0  0  0  0  0  0  0  0  0
  -18.8982  -41.9922   -7.7909 C   0  0  0  0  0  0  0  0  0  0  0  0
  -18.3565  -43.1997   -7.7559 O   0  0  0  0  0  0  0  0  0  0  0  0
  -18.0670  -41.0408   -8.4203 N   0  0  0  0  0  0  0  0  0  0  0  0
  -17.6784  -39.7334   -8.0305 C   0  0  1  0  0  0  0  0  0  0  0  0
  -18.7685  -38.8101   -7.5905 C   0  0  0  0  0  0  0  0  0  0  0  0
  -16.5552  -39.6400   -7.0178 C   0  0  2  0  0  0  0  0  0  0  0  0
  -15.9896  -38.3860   -6.9888 O   0  0  0  0  0  0  0  0  0  0  0  0
  -15.4232  -40.6199   -7.4074 C   0  0  0  0  0  0  0  0  0  0  0  0
  -15.9038  -41.6304   -8.2708 N   0  0  0  0  0  0  0  0  0  0  0  0
  -14.9238  -42.2999   -9.1089 C   0  0  0  0  0  0  0  0  0  0  0  0
  -14.4674  -41.3364  -10.2310 C   0  0  0  0  0  0  0  0  0  0  0  0
  -13.5159  -41.6885   -9.1447 C   0  0  0  0  0  0  0  0  0  0  0  0
  -15.1206  -43.6971   -9.5292 C   0  0  0  0  0  0  0  0  0  0  0  0
  -16.1534  -44.4640   -9.0506 C   0  0  0  0  0  0  0  0  0  0  0  0
  -16.3620  -45.7863   -9.4746 C   0  0  0  0  0  0  0  0  0  0  0  0
  -15.5046  -46.3440  -10.4036 C   0  0  0  0  0  0  0  0  0  0  0  0
  -14.4691  -45.5881  -10.8892 C   0  0  0  0  0  0  0  0  0  0  0  0
  -14.2863  -44.2707  -10.4477 C   0  0  0  0  0  0  0  0  0  0  0  0
  -17.4775  -46.6082   -8.9694 C   0  0  0  0  0  0  0  0  0  0  0  0
  -18.8248  -46.0004   -9.2993 C   0  0  0  0  0  0  0  0  0  0  0  0
  -17.3840  -47.9885   -9.5301 C   0  0  0  0  0  0  0  0  0  0  0  0
  -17.3879  -46.6629   -7.4451 C   0  0  0  0  0  0  0  0  0  0  0  0
  -21.2219  -43.4576   -3.8357 C   0  0  0  0  0  0  0  0  0  0  0  0
  -21.7398  -44.5729   -3.7141 O   0  0  0  0  0  0  0  0  0  0  0  0
  -20.5687  -42.8547   -2.7440 N   0  0  0  0  0  0  0  0  0  0  0  0
  -19.8378  -41.6257   -2.9530 C   0  0  0  0  0  0  0  0  0  0  0  0
  -20.5779  -43.3920   -1.3931 C   0  0  0  0  0  0  0  0  0  0  0  0
  2  1  1  6
  2  3  1  0
  3  4  1  0
  4  5  1  0
  5  6  1  0
  6  7  1  0
  7  8  1  0
  8  9  1  0
  9 10  1  0
 10 11  1  0
 11 12  1  0
 12 13  2  0
 13 14  1  0
 14 15  2  0
 15 16  1  0
 15 17  1  0
 17 18  2  0
 17 19  1  0
 19 20  1  0
 20 21  1  1
 20 22  1  0
 22 23  1  6
 22 24  1  0
 24 25  1  0
 25 26  1  0
 26 27  1  0
 27 28  1  0
 26 29  1  0
 29 30  2  0
 30 31  1  0
 31 32  2  0
 32 33  1  0
 33 34  2  0
 31 35  1  0
 35 36  1  0
 35 37  1  0
 35 38  1  0
 13 39  1  0
 39 40  2  0
 39 41  1  0
 41 42  1  0
 41 43  1  0
 16 11  2  0
 21  2  1  0
 28 26  1  0
 34 29  1  0
M  END
$$$$
