
     RDKit          3D

 43 46  0  0  0  0  0  0  0  0999 V2000
  -19.5597  -38.1403   -6.4614 C   0  0  0  0  0  0  0  0  0  0  0  0
  -19.9539  -39.5794   -6.1930 C   0  0  2  0  0  0  0  0  0  0  0  0
  -20.5983  -39.6108   -4.8242 C   0  0  0  0  0  0  0  0  0  0  0  0
  -21.9471  -38.8884   -4.9043 C   0  0  0  0  0  0  0  0  0  0  0  0
  -22.9866  -39.5480   -4.0258 C   0  0  0  0  0  0  0  0  0  0  0  0
  -24.0503  -40.2489   -4.8026 C   0  0  0  0  0  0  0  0  0  0  0  0
  -23.5721  -40.8061   -6.1223 C   0  0  0  0  0  0  0  0  0  0  0  0
  -24.3458  -42.0458   -6.5415 C   0  0  0  0  0  0  0  0  0  0  0  0
  -23.7218  -43.3006   -6.0275 C   0  0  0  0  0  0  0  0  0  0  0  0
  -23.0143  -44.0517   -7.0484 N   0  0  0  0  0  0  0  0  0  0  0  0
  -21.7202  -43.8879   -7.6272 C   0  0  0  0  0  0  0  0  0  0  0  0
  -21.0747  -45.1608   -7.6847 C   0  0  0  0  0  0  0  0  0  0  0  0
  -19.8235  -45.3569   -8.1756 C   0  0  0  0  0  0  0  0  0  0  0  0
  -19.1796  -44.2361   -8.6328 C   0  0  0  0  0  0  0  0  0  0  0  0
  -19.7631  -42.9416   -8.6053 C   0  0  0  0  0  0  0  0  0  0  0  0
  -21.0511  -42.7755   -8.0952 C   0  0  0  0  0  0  0  0  0  0  0  0
  -18.8029  -41.9772   -9.1599 C   0  0  0  0  0  0  0  0  0  0  0  0
  -18.2262  -42.3917  -10.2771 O   0  0  0  0  0  0  0  0  0  0  0  0
  -18.3571  -40.6993   -8.7590 N   0  0  0  0  0  0  0  0  0  0  0  0
  -17.9184  -40.2129   -7.5007 C   0  0  1  0  0  0  0  0  0  0  0  0
  -18.7843  -40.5191   -6.3215 C   0  0  0  0  0  0  0  0  0  0  0  0
  -16.4868  -40.5306   -7.1194 C   0  0  2  0  0  0  0  0  0  0  0  0
  -15.8892  -39.4901   -6.4459 O   0  0  0  0  0  0  0  0  0  0  0  0
  -15.6483  -40.7605   -8.3990 C   0  0  0  0  0  0  0  0  0  0  0  0
  -15.0485  -39.5568   -8.8337 N   0  0  0  0  0  0  0  0  0  0  0  0
  -14.5185  -39.5376  -10.1864 C   0  0  0  0  0  0  0  0  0  0  0  0
  -13.0264  -39.9477  -10.1567 C   0  0  0  0  0  0  0  0  0  0  0  0
  -14.0231  -40.8766  -10.7509 C   0  0  0  0  0  0  0  0  0  0  0  0
  -14.8437  -38.4359  -11.1074 C   0  0  0  0  0  0  0  0  0  0  0  0
  -13.8728  -37.6491  -11.6749 C   0  0  0  0  0  0  0  0  0  0  0  0
  -14.1786  -36.6188  -12.5786 C   0  0  0  0  0  0  0  0  0  0  0  0
  -15.4976  -36.3802  -12.9142 C   0  0  0  0  0  0  0  0  0  0  0  0
  -16.4766  -37.1593  -12.3539 C   0  0  0  0  0  0  0  0  0  0  0  0
  -16.1409  -38.1809  -11.4553 C   0  0  0  0  0  0  0  0  0  0  0  0
  -13.1358  -35.7794  -13.1975 C   0  0  0  0  0  0  0  0  0  0  0  0
  -12.0918  -35.3388  -12.1928 C   0  0  0  0  0  0  0  0  0  0  0  0
  -12.4893  -36.5207  -14.3204 C   0  0  0  0  0  0  0  0  0  0  0  0
  -13.7910  -34.5057  -13.7292 C   0  0  0  0  0  0  0  0  0  0  0  0
  -19.2202  -46.6799   -8.2112 C   0  0  0  0  0  0  0  0  0  0  0  0
  -19.7715  -47.6160   -8.8001 O   0  0  0  0  0  0  0  0  0  0  0  0
  -17.9884  -46.8780   -7.5588 N   0  0  0  0  0  0  0  0  0  0  0  0
  -17.3178  -45.7450   -6.9631 C   0  0  0  0  0  0  0  0  0  0  0  0
  -17.3300  -48.1687   -7.4390 C   0  0  0  0  0  0  0  0  0  0  0  0
  2  1  1  1
  2  3  1  0
  3  4  1  0
  4  5  1  0
  5  6  1  0
  6  7  1  0
  7  8  1  0
  8  9  1  0
  9 10  1  0
 10 11  1  0
 11 12  1  0
 12 13  2  0
 13 14  1  0
 14 15  2  0
 15 16  1  0
 15 17  1  0
 17 18  2  0
 17 19  1  0
 19 20  1  0
 20 21  1  1
 20 22  1  0
 22 23  1  6
 22 24  1  0
 24 25  1  0
 25 26  1  0
 26 27  1  0
 27 28  1  0
 26 29  1  0
 29 30  2  0
 30 31  1  0
 31 32  2  0
 32 33  1  0
 33 34  2  0
 31 35  1  0
 35 36  1  0
 35 37  1  0
 35 38  1  0
 13 39  1  0
 39 40  2  0
 39 41  1  0
 41 42  1  0
 41 43  1  0
 16 11  2  0
 21  2  1  0
 28 26  1  0
 34 29  1  0
M  END
$$$$
