
     RDKit          3D

 43 46  0  0  0  0  0  0  0  0999 V2000
  -20.4844  -37.5625   -7.4502 C   0  0  0  0  0  0  0  0  0  0  0  0
  -20.3309  -39.0196   -7.0608 C   0  0  2  0  0  0  0  0  0  0  0  0
  -20.7561  -39.1350   -5.6131 C   0  0  0  0  0  0  0  0  0  0  0  0
  -22.2693  -38.9091   -5.5306 C   0  0  0  0  0  0  0  0  0  0  0  0
  -22.9089  -39.7904   -4.4811 C   0  0  0  0  0  0  0  0  0  0  0  0
  -23.7568  -40.8719   -5.0621 C   0  0  0  0  0  0  0  0  0  0  0  0
  -23.2807  -41.3597   -6.4098 C   0  0  0  0  0  0  0  0  0  0  0  0
  -23.6319  -42.8185   -6.6544 C   0  0  0  0  0  0  0  0  0  0  0  0
  -22.5617  -43.7437   -6.1783 C   0  0  0  0  0  0  0  0  0  0  0  0
  -21.7698  -44.3102   -7.2548 N   0  0  0  0  0  0  0  0  0  0  0  0
  -20.6882  -43.7829   -8.0219 C   0  0  0  0  0  0  0  0  0  0  0  0
  -19.6606  -44.7709   -8.1130 C   0  0  0  0  0  0  0  0  0  0  0  0
  -18.4862  -44.5876   -8.7702 C   0  0  0  0  0  0  0  0  0  0  0  0
  -18.3215  -43.3645   -9.3676 C   0  0  0  0  0  0  0  0  0  0  0  0
  -19.3021  -42.3385   -9.3162 C   0  0  0  0  0  0  0  0  0  0  0  0
  -20.4983  -42.5604   -8.6332 C   0  0  0  0  0  0  0  0  0  0  0  0
  -18.8009  -41.1669  -10.0482 C   0  0  0  0  0  0  0  0  0  0  0  0
  -18.2570  -41.4695  -11.2167 O   0  0  0  0  0  0  0  0  0  0  0  0
  -18.7707  -39.7822   -9.7761 N   0  0  0  0  0  0  0  0  0  0  0  0
  -18.3749  -39.0640   -8.6186 C   0  0  1  0  0  0  0  0  0  0  0  0
  -18.9363  -39.5282   -7.3135 C   0  0  0  0  0  0  0  0  0  0  0  0
  -16.8857  -38.8546   -8.4343 C   0  0  2  0  0  0  0  0  0  0  0  0
  -16.6092  -37.7002   -7.7383 O   0  0  0  0  0  0  0  0  0  0  0  0
  -16.2084  -38.7028   -9.8169 C   0  0  0  0  0  0  0  0  0  0  0  0
  -14.9517  -38.0672   -9.6976 N   0  0  0  0  0  0  0  0  0  0  0  0
  -14.0202  -38.2404  -10.7990 C   0  0  0  0  0  0  0  0  0  0  0  0
  -12.9029  -39.2235  -10.3738 C   0  0  0  0  0  0  0  0  0  0  0  0
  -13.9028  -39.6543  -11.3857 C   0  0  0  0  0  0  0  0  0  0  0  0
  -13.5656  -37.0849  -11.5902 C   0  0  0  0  0  0  0  0  0  0  0  0
  -12.9083  -37.2330  -12.7859 C   0  0  0  0  0  0  0  0  0  0  0  0
  -12.5026  -36.1323  -13.5577 C   0  0  0  0  0  0  0  0  0  0  0  0
  -12.7684  -34.8533  -13.1075 C   0  0  0  0  0  0  0  0  0  0  0  0
  -13.4243  -34.6922  -11.9145 C   0  0  0  0  0  0  0  0  0  0  0  0
  -13.8176  -35.8100  -11.1662 C   0  0  0  0  0  0  0  0  0  0  0  0
  -11.8057  -36.2897  -14.8479 C   0  0  0  0  0  0  0  0  0  0  0  0
  -12.5765  -37.1747  -15.8049 C   0  0  0  0  0  0  0  0  0  0  0  0
  -11.5692  -34.9499  -15.4625 C   0  0  0  0  0  0  0  0  0  0  0  0
  -10.4688  -36.9850  -14.5952 C   0  0  0  0  0  0  0  0  0  0  0  0
  -17.4784  -45.6346   -8.8312 C   0  0  0  0  0  0  0  0  0  0  0  0
  -17.6346  -46.6283   -9.5490 O   0  0  0  0  0  0  0  0  0  0  0  0
  -16.3132  -45.4962   -8.0533 N   0  0  0  0  0  0  0  0  0  0  0  0
  -15.3167  -46.5422   -8.0867 C   0  0  0  0  0  0  0  0  0  0  0  0
  -16.0355  -44.3514   -7.2013 C   0  0  0  0  0  0  0  0  0  0  0  0
  2  1  1  1
  2  3  1  0
  3  4  1  0
  4  5  1  0
  5  6  1  0
  6  7  1  0
  7  8  1  0
  8  9  1  0
  9 10  1  0
 10 11  1  0
 11 12  1  0
 12 13  2  0
 13 14  1  0
 14 15  2  0
 15 16  1  0
 15 17  1  0
 17 18  2  0
 17 19  1  0
 19 20  1  0
 20 21  1  1
 20 22  1  0
 22 23  1  1
 22 24  1  0
 24 25  1  0
 25 26  1  0
 26 27  1  0
 27 28  1  0
 26 29  1  0
 29 30  2  0
 30 31  1  0
 31 32  2  0
 32 33  1  0
 33 34  2  0
 31 35  1  0
 35 36  1  0
 35 37  1  0
 35 38  1  0
 13 39  1  0
 39 40  2  0
 39 41  1  0
 41 42  1  0
 41 43  1  0
 16 11  2  0
 21  2  1  0
 28 26  1  0
 34 29  1  0
M  END
$$$$
