
     RDKit          3D

 43 46  0  0  0  0  0  0  0  0999 V2000
  -19.1044  -37.5815   -6.9783 C   0  0  0  0  0  0  0  0  0  0  0  0
  -19.5138  -39.0000   -6.6342 C   0  0  2  0  0  0  0  0  0  0  0  0
  -20.1353  -38.9560   -5.2551 C   0  0  0  0  0  0  0  0  0  0  0  0
  -21.4752  -38.2188   -5.3482 C   0  0  0  0  0  0  0  0  0  0  0  0
  -22.5086  -38.8200   -4.4220 C   0  0  0  0  0  0  0  0  0  0  0  0
  -23.5949  -39.5419   -5.1465 C   0  0  0  0  0  0  0  0  0  0  0  0
  -23.1469  -40.1691   -6.4453 C   0  0  0  0  0  0  0  0  0  0  0  0
  -23.9445  -41.4161   -6.7913 C   0  0  0  0  0  0  0  0  0  0  0  0
  -23.3293  -42.6536   -6.2273 C   0  0  0  0  0  0  0  0  0  0  0  0
  -22.6496  -43.4633   -7.2220 N   0  0  0  0  0  0  0  0  0  0  0  0
  -21.3633  -43.3465   -7.8290 C   0  0  0  0  0  0  0  0  0  0  0  0
  -20.7364  -44.6300   -7.8353 C   0  0  0  0  0  0  0  0  0  0  0  0
  -19.4966  -44.8677   -8.3363 C   0  0  0  0  0  0  0  0  0  0  0  0
  -18.8452  -43.7797   -8.8577 C   0  0  0  0  0  0  0  0  0  0  0  0
  -19.4102  -42.4771   -8.8835 C   0  0  0  0  0  0  0  0  0  0  0  0
  -20.6869  -42.2678   -8.3612 C   0  0  0  0  0  0  0  0  0  0  0  0
  -18.4464  -41.5546   -9.4997 C   0  0  0  0  0  0  0  0  0  0  0  0
  -17.8945  -42.0309  -10.6048 O   0  0  0  0  0  0  0  0  0  0  0  0
  -17.9763  -40.2656   -9.1685 N   0  0  0  0  0  0  0  0  0  0  0  0
  -17.5097  -39.7254   -7.9426 C   0  0  1  0  0  0  0  0  0  0  0  0
  -18.3597  -39.9618   -6.7360 C   0  0  0  0  0  0  0  0  0  0  0  0
  -16.0764  -40.0452   -7.5696 C   0  0  2  0  0  0  0  0  0  0  0  0
  -15.4283  -38.9572   -7.0314 O   0  0  0  0  0  0  0  0  0  0  0  0
  -15.2858  -40.4393   -8.8397 C   0  0  0  0  0  0  0  0  0  0  0  0
  -13.8999  -40.2302   -8.6580 N   0  0  0  0  0  0  0  0  0  0  0  0
  -13.0566  -40.3537   -9.8347 C   0  0  0  0  0  0  0  0  0  0  0  0
  -11.5721  -40.2285   -9.4152 C   0  0  0  0  0  0  0  0  0  0  0  0
  -12.0903  -41.5462   -9.8673 C   0  0  0  0  0  0  0  0  0  0  0  0
  -13.4094  -39.6693  -11.0897 C   0  0  0  0  0  0  0  0  0  0  0  0
  -12.9023  -38.4361  -11.4152 C   0  0  0  0  0  0  0  0  0  0  0  0
  -13.2120  -37.7961  -12.6261 C   0  0  0  0  0  0  0  0  0  0  0  0
  -14.0545  -38.4192  -13.5267 C   0  0  0  0  0  0  0  0  0  0  0  0
  -14.5675  -39.6512  -13.2130 C   0  0  0  0  0  0  0  0  0  0  0  0
  -14.2400  -40.2658  -11.9969 C   0  0  0  0  0  0  0  0  0  0  0  0
  -12.6596  -36.4758  -12.9822 C   0  0  0  0  0  0  0  0  0  0  0  0
  -11.2036  -36.3445  -12.5868 C   0  0  0  0  0  0  0  0  0  0  0  0
  -12.8186  -36.2388  -14.4475 C   0  0  0  0  0  0  0  0  0  0  0  0
  -13.4197  -35.4054  -12.2006 C   0  0  0  0  0  0  0  0  0  0  0  0
  -18.9122  -46.1995   -8.3176 C   0  0  0  0  0  0  0  0  0  0  0  0
  -18.8556  -46.8849   -9.3443 O   0  0  0  0  0  0  0  0  0  0  0  0
  -18.4083  -46.6987   -7.1015 N   0  0  0  0  0  0  0  0  0  0  0  0
  -18.6928  -45.9861   -5.8769 C   0  0  0  0  0  0  0  0  0  0  0  0
  -17.6057  -47.9056   -6.9880 C   0  0  0  0  0  0  0  0  0  0  0  0
  2  1  1  1
  2  3  1  0
  3  4  1  0
  4  5  1  0
  5  6  1  0
  6  7  1  0
  7  8  1  0
  8  9  1  0
  9 10  1  0
 10 11  1  0
 11 12  1  0
 12 13  2  0
 13 14  1  0
 14 15  2  0
 15 16  1  0
 15 17  1  0
 17 18  2  0
 17 19  1  0
 19 20  1  0
 20 21  1  1
 20 22  1  0
 22 23  1  6
 22 24  1  0
 24 25  1  0
 25 26  1  0
 26 27  1  0
 27 28  1  0
 26 29  1  0
 29 30  2  0
 30 31  1  0
 31 32  2  0
 32 33  1  0
 33 34  2  0
 31 35  1  0
 35 36  1  0
 35 37  1  0
 35 38  1  0
 13 39  1  0
 39 40  2  0
 39 41  1  0
 41 42  1  0
 41 43  1  0
 16 11  2  0
 21  2  1  0
 28 26  1  0
 34 29  1  0
M  END
$$$$
