
     RDKit          3D

 43 46  0  0  0  0  0  0  0  0999 V2000
  -19.9373  -37.7815   -7.2955 C   0  0  0  0  0  0  0  0  0  0  0  0
  -20.0648  -39.2107   -6.8060 C   0  0  2  0  0  0  0  0  0  0  0  0
  -20.7014  -39.1505   -5.4345 C   0  0  0  0  0  0  0  0  0  0  0  0
  -22.1586  -38.7045   -5.5932 C   0  0  0  0  0  0  0  0  0  0  0  0
  -23.0663  -39.4004   -4.6037 C   0  0  0  0  0  0  0  0  0  0  0  0
  -23.9797  -40.3914   -5.2436 C   0  0  0  0  0  0  0  0  0  0  0  0
  -23.3998  -41.0463   -6.4748 C   0  0  0  0  0  0  0  0  0  0  0  0
  -23.9323  -42.4543   -6.6866 C   0  0  0  0  0  0  0  0  0  0  0  0
  -23.0937  -43.4831   -6.0037 C   0  0  0  0  0  0  0  0  0  0  0  0
  -22.2549  -44.2397   -6.9153 N   0  0  0  0  0  0  0  0  0  0  0  0
  -21.0086  -43.9341   -7.5396 C   0  0  0  0  0  0  0  0  0  0  0  0
  -20.1418  -45.0632   -7.4194 C   0  0  0  0  0  0  0  0  0  0  0  0
  -18.8728  -45.1018   -7.9019 C   0  0  0  0  0  0  0  0  0  0  0  0
  -18.4407  -43.9654   -8.5357 C   0  0  0  0  0  0  0  0  0  0  0  0
  -19.2501  -42.8087   -8.6903 C   0  0  0  0  0  0  0  0  0  0  0  0
  -20.5500  -42.8030   -8.1834 C   0  0  0  0  0  0  0  0  0  0  0  0
  -18.4779  -41.7819   -9.4036 C   0  0  0  0  0  0  0  0  0  0  0  0
  -17.8284  -42.2496  -10.4581 O   0  0  0  0  0  0  0  0  0  0  0  0
  -18.2746  -40.3988   -9.2085 N   0  0  0  0  0  0  0  0  0  0  0  0
  -17.9398  -39.6563   -8.0471 C   0  0  1  0  0  0  0  0  0  0  0  0
  -18.7430  -39.9319   -6.8171 C   0  0  0  0  0  0  0  0  0  0  0  0
  -16.4767  -39.6485   -7.6531 C   0  0  2  0  0  0  0  0  0  0  0  0
  -16.1897  -38.6465   -6.7548 O   0  0  0  0  0  0  0  0  0  0  0  0
  -15.6050  -39.3772   -8.9021 C   0  0  0  0  0  0  0  0  0  0  0  0
  -14.9855  -40.5644   -9.3542 N   0  0  0  0  0  0  0  0  0  0  0  0
  -13.7302  -40.4189  -10.0711 C   0  0  0  0  0  0  0  0  0  0  0  0
  -12.5531  -40.5975   -9.0821 C   0  0  0  0  0  0  0  0  0  0  0  0
  -12.8092  -41.6469  -10.1032 C   0  0  0  0  0  0  0  0  0  0  0  0
  -13.5507  -39.3493  -11.0668 C   0  0  0  0  0  0  0  0  0  0  0  0
  -13.9403  -38.0555  -10.8255 C   0  0  0  0  0  0  0  0  0  0  0  0
  -13.7406  -37.0275  -11.7609 C   0  0  0  0  0  0  0  0  0  0  0  0
  -13.1333  -37.3171  -12.9678 C   0  0  0  0  0  0  0  0  0  0  0  0
  -12.7397  -38.6057  -13.2207 C   0  0  0  0  0  0  0  0  0  0  0  0
  -12.9517  -39.6108  -12.2674 C   0  0  0  0  0  0  0  0  0  0  0  0
  -14.1490  -35.6347  -11.4990 C   0  0  0  0  0  0  0  0  0  0  0  0
  -13.9569  -34.7494  -12.7126 C   0  0  0  0  0  0  0  0  0  0  0  0
  -15.5742  -35.5996  -11.0563 C   0  0  0  0  0  0  0  0  0  0  0  0
  -13.2528  -35.0652  -10.4004 C   0  0  0  0  0  0  0  0  0  0  0  0
  -18.0386  -46.2838   -7.7516 C   0  0  0  0  0  0  0  0  0  0  0  0
  -17.6451  -46.6485   -6.6384 O   0  0  0  0  0  0  0  0  0  0  0  0
  -17.6841  -47.0110   -8.9038 N   0  0  0  0  0  0  0  0  0  0  0  0
  -16.9439  -48.2435   -8.7577 C   0  0  0  0  0  0  0  0  0  0  0  0
  -18.0173  -46.6013  -10.2583 C   0  0  0  0  0  0  0  0  0  0  0  0
  2  1  1  1
  2  3  1  0
  3  4  1  0
  4  5  1  0
  5  6  1  0
  6  7  1  0
  7  8  1  0
  8  9  1  0
  9 10  1  0
 10 11  1  0
 11 12  1  0
 12 13  2  0
 13 14  1  0
 14 15  2  0
 15 16  1  0
 15 17  1  0
 17 18  2  0
 17 19  1  0
 19 20  1  0
 20 21  1  1
 20 22  1  0
 22 23  1  1
 22 24  1  0
 24 25  1  0
 25 26  1  0
 26 27  1  0
 27 28  1  0
 26 29  1  0
 29 30  2  0
 30 31  1  0
 31 32  2  0
 32 33  1  0
 33 34  2  0
 31 35  1  0
 35 36  1  0
 35 37  1  0
 35 38  1  0
 13 39  1  0
 39 40  2  0
 39 41  1  0
 41 42  1  0
 41 43  1  0
 16 11  2  0
 21  2  1  0
 28 26  1  0
 34 29  1  0
M  END
$$$$
