
     RDKit          3D

 37 39  0  0  0  0  0  0  0  0999 V2000
  -16.8374  -43.6346   -8.8207 C   0  0  0  0  0  0  0  0  0  0  0  0
  -18.0365  -43.4079   -7.9168 C   0  0  2  0  0  0  0  0  0  0  0  0
  -19.3149  -43.4189   -8.7250 C   0  0  0  0  0  0  0  0  0  0  0  0
  -20.1730  -44.5865   -8.3837 C   0  0  0  0  0  0  0  0  0  0  0  0
  -19.5310  -45.6929   -8.3019 O   0  0  0  0  0  0  0  0  0  0  0  0
  -21.5496  -44.5686   -8.1582 N   0  0  0  0  0  0  0  0  0  0  0  0
  -22.2873  -43.6534   -7.3240 C   0  0  0  0  0  0  0  0  0  0  0  0
  -23.5285  -43.1426   -8.0071 C   0  0  0  0  0  0  0  0  0  0  0  0
  -24.4361  -42.4157   -7.0621 C   0  0  0  0  0  0  0  0  0  0  0  0
  -23.7201  -41.7378   -5.9182 C   0  0  0  0  0  0  0  0  0  0  0  0
  -23.3816  -40.4457   -6.3060 O   0  0  0  0  0  0  0  0  0  0  0  0
  -22.2291  -39.7925   -6.7052 C   0  0  0  0  0  0  0  0  0  0  0  0
  -21.3662  -40.0689   -7.7524 C   0  0  0  0  0  0  0  0  0  0  0  0
  -20.2752  -39.2458   -7.9237 C   0  0  0  0  0  0  0  0  0  0  0  0
  -19.1640  -39.2866   -8.9073 C   0  0  0  0  0  0  0  0  0  0  0  0
  -17.9792  -40.0959   -8.4067 C   0  0  2  0  0  0  0  0  0  0  0  0
  -18.2948  -40.9185   -7.2900 N   0  0  0  0  0  0  0  0  0  0  0  0
  -17.8946  -42.2479   -7.0265 C   0  0  0  0  0  0  0  0  0  0  0  0
  -17.3421  -42.4888   -5.8812 O   0  0  0  0  0  0  0  0  0  0  0  0
  -16.8070  -39.1652   -8.0872 C   0  0  2  0  0  0  0  0  0  0  0  0
  -16.8684  -38.0165   -8.8797 O   0  0  0  0  0  0  0  0  0  0  0  0
  -15.4711  -39.7983   -8.3893 C   0  0  0  0  0  0  0  0  0  0  0  0
  -14.3964  -38.8308   -8.2278 N   0  0  0  0  0  0  0  0  0  0  0  0
  -13.2055  -39.2230   -8.9323 C   0  0  0  0  0  0  0  0  0  0  0  0
  -13.2041  -38.7424  -10.3566 C   0  0  0  0  0  0  0  0  0  0  0  0
  -13.4196  -37.4242  -10.6964 C   0  0  0  0  0  0  0  0  0  0  0  0
  -13.4205  -36.9818  -11.9923 C   0  0  0  0  0  0  0  0  0  0  0  0
  -13.1972  -37.8863  -13.0070 C   0  0  0  0  0  0  0  0  0  0  0  0
  -12.9789  -39.2082  -12.7021 C   0  0  0  0  0  0  0  0  0  0  0  0
  -12.9820  -39.6291  -11.4038 C   0  0  0  0  0  0  0  0  0  0  0  0
  -13.6588  -35.5423  -12.3132 C   0  0  0  0  0  0  0  0  0  0  0  0
  -15.0929  -35.1852  -11.9580 C   0  0  0  0  0  0  0  0  0  0  0  0
  -13.4813  -35.2721  -13.7913 C   0  0  0  0  0  0  0  0  0  0  0  0
  -12.7677  -34.6457  -11.4965 C   0  0  0  0  0  0  0  0  0  0  0  0
  -20.0816  -38.1630   -7.0363 C   0  0  0  0  0  0  0  0  0  0  0  0
  -20.9145  -37.8610   -5.9944 C   0  0  0  0  0  0  0  0  0  0  0  0
  -21.9931  -38.6983   -5.8470 C   0  0  0  0  0  0  0  0  0  0  0  0
  2  1  1  6
  2  3  1  0
  3  4  1  0
  4  5  2  0
  4  6  1  0
  6  7  1  0
  7  8  1  0
  8  9  1  0
  9 10  1  0
 10 11  1  0
 11 12  1  0
 12 13  1  0
 13 14  2  0
 14 15  1  0
 16 15  1  1
 16 17  1  0
 17 18  1  0
 18 19  2  0
 16 20  1  0
 20 21  1  6
 20 22  1  0
 22 23  1  0
 23 24  1  0
 24 25  1  0
 25 26  2  0
 26 27  1  0
 27 28  2  0
 28 29  1  0
 29 30  2  0
 27 31  1  0
 31 32  1  0
 31 33  1  0
 31 34  1  0
 14 35  1  0
 35 36  2  0
 36 37  1  0
 18  2  1  0
 30 25  1  0
 37 12  2  0
M  END
$$$$
