
     RDKit          3D

 37 39  0  0  0  0  0  0  0  0999 V2000
  -16.6378  -42.7572   -9.2532 C   0  0  0  0  0  0  0  0  0  0  0  0
  -16.2732  -41.9025  -10.4544 C   0  0  2  0  0  0  0  0  0  0  0  0
  -14.7745  -41.8919  -10.6579 C   0  0  0  0  0  0  0  0  0  0  0  0
  -14.3847  -42.5774  -11.9206 C   0  0  0  0  0  0  0  0  0  0  0  0
  -14.9861  -43.6935  -12.1092 O   0  0  0  0  0  0  0  0  0  0  0  0
  -13.4635  -42.1213  -12.8637 N   0  0  0  0  0  0  0  0  0  0  0  0
  -13.3776  -40.8007  -13.4348 C   0  0  0  0  0  0  0  0  0  0  0  0
  -11.9615  -40.2888  -13.4620 C   0  0  0  0  0  0  0  0  0  0  0  0
  -11.8238  -39.0492  -14.2925 C   0  0  0  0  0  0  0  0  0  0  0  0
  -13.0683  -38.1949  -14.3364 C   0  0  0  0  0  0  0  0  0  0  0  0
  -13.0213  -37.2829  -13.2872 O   0  0  0  0  0  0  0  0  0  0  0  0
  -13.6268  -37.1519  -12.0501 C   0  0  0  0  0  0  0  0  0  0  0  0
  -13.6434  -38.0191  -10.9706 C   0  0  0  0  0  0  0  0  0  0  0  0
  -14.3375  -37.6344   -9.8447 C   0  0  0  0  0  0  0  0  0  0  0  0
  -14.5747  -38.3319   -8.5559 C   0  0  0  0  0  0  0  0  0  0  0  0
  -15.8461  -39.1640   -8.5752 C   0  0  2  0  0  0  0  0  0  0  0  0
  -16.3497  -39.3867   -9.8868 N   0  0  0  0  0  0  0  0  0  0  0  0
  -16.8902  -40.5692  -10.4403 C   0  0  0  0  0  0  0  0  0  0  0  0
  -18.0541  -40.4880  -11.0005 O   0  0  0  0  0  0  0  0  0  0  0  0
  -16.9086  -38.5173   -7.6834 C   0  0  2  0  0  0  0  0  0  0  0  0
  -16.3061  -37.6998   -6.7242 O   0  0  0  0  0  0  0  0  0  0  0  0
  -17.7063  -39.5365   -6.9077 C   0  0  0  0  0  0  0  0  0  0  0  0
  -18.9580  -38.9607   -6.4401 N   0  0  0  0  0  0  0  0  0  0  0  0
  -20.0627  -39.3013   -7.2956 C   0  0  0  0  0  0  0  0  0  0  0  0
  -21.0089  -40.2699   -6.6427 C   0  0  0  0  0  0  0  0  0  0  0  0
  -20.9012  -40.6359   -5.3183 C   0  0  0  0  0  0  0  0  0  0  0  0
  -21.7598  -41.5187   -4.7195 C   0  0  0  0  0  0  0  0  0  0  0  0
  -22.7784  -42.0699   -5.4653 C   0  0  0  0  0  0  0  0  0  0  0  0
  -22.9136  -41.7259   -6.7886 C   0  0  0  0  0  0  0  0  0  0  0  0
  -22.0473  -40.8440   -7.3670 C   0  0  0  0  0  0  0  0  0  0  0  0
  -21.6042  -41.8861   -3.2798 C   0  0  0  0  0  0  0  0  0  0  0  0
  -20.9777  -43.2677   -3.1848 C   0  0  0  0  0  0  0  0  0  0  0  0
  -22.9449  -41.9516   -2.5814 C   0  0  0  0  0  0  0  0  0  0  0  0
  -20.6792  -40.9345   -2.5700 C   0  0  0  0  0  0  0  0  0  0  0  0
  -14.9965  -36.3841   -9.8339 C   0  0  0  0  0  0  0  0  0  0  0  0
  -14.9985  -35.5041  -10.8808 C   0  0  0  0  0  0  0  0  0  0  0  0
  -14.2994  -35.9136  -11.9898 C   0  0  0  0  0  0  0  0  0  0  0  0
  2  1  1  1
  2  3  1  0
  3  4  1  0
  4  5  2  0
  4  6  1  0
  6  7  1  0
  7  8  1  0
  8  9  1  0
  9 10  1  0
 10 11  1  0
 11 12  1  0
 12 13  1  0
 13 14  2  0
 14 15  1  0
 16 15  1  6
 16 17  1  0
 17 18  1  0
 18 19  2  0
 16 20  1  0
 20 21  1  1
 20 22  1  0
 22 23  1  0
 23 24  1  0
 24 25  1  0
 25 26  2  0
 26 27  1  0
 27 28  2  0
 28 29  1  0
 29 30  2  0
 27 31  1  0
 31 32  1  0
 31 33  1  0
 31 34  1  0
 14 35  1  0
 35 36  2  0
 36 37  1  0
 18  2  1  0
 30 25  1  0
 37 12  2  0
M  END
$$$$
