
     RDKit          3D

 37 39  0  0  0  0  0  0  0  0999 V2000
  -16.2039  -44.0003   -8.5416 C   0  0  0  0  0  0  0  0  0  0  0  0
  -17.6170  -43.6535   -8.1068 C   0  0  2  0  0  0  0  0  0  0  0  0
  -18.4606  -43.2814   -9.3058 C   0  0  0  0  0  0  0  0  0  0  0  0
  -19.5397  -44.2772   -9.5512 C   0  0  0  0  0  0  0  0  0  0  0  0
  -19.1456  -45.4947   -9.4768 O   0  0  0  0  0  0  0  0  0  0  0  0
  -20.8760  -44.0004   -9.8407 N   0  0  0  0  0  0  0  0  0  0  0  0
  -21.7453  -43.0754   -9.1579 C   0  0  0  0  0  0  0  0  0  0  0  0
  -22.5305  -42.2239  -10.1203 C   0  0  0  0  0  0  0  0  0  0  0  0
  -23.6244  -41.4604   -9.4378 C   0  0  0  0  0  0  0  0  0  0  0  0
  -23.3295  -41.1152   -7.9975 C   0  0  0  0  0  0  0  0  0  0  0  0
  -22.6863  -39.8827   -7.9561 O   0  0  0  0  0  0  0  0  0  0  0  0
  -21.3900  -39.4386   -7.7647 C   0  0  0  0  0  0  0  0  0  0  0  0
  -20.2326  -39.7426   -8.4617 C   0  0  0  0  0  0  0  0  0  0  0  0
  -19.0580  -39.1529   -8.0500 C   0  0  0  0  0  0  0  0  0  0  0  0
  -17.6668  -39.2902   -8.5499 C   0  0  0  0  0  0  0  0  0  0  0  0
  -16.9030  -40.3932   -7.8363 C   0  0  2  0  0  0  0  0  0  0  0  0
  -17.7465  -41.2779   -7.1087 N   0  0  0  0  0  0  0  0  0  0  0  0
  -17.6751  -42.6852   -7.0035 C   0  0  0  0  0  0  0  0  0  0  0  0
  -17.6592  -43.1946   -5.8138 O   0  0  0  0  0  0  0  0  0  0  0  0
  -15.8330  -39.7849   -6.9267 C   0  0  2  0  0  0  0  0  0  0  0  0
  -16.3333  -38.6546   -6.2761 O   0  0  0  0  0  0  0  0  0  0  0  0
  -14.6250  -39.3111   -7.6968 C   0  0  0  0  0  0  0  0  0  0  0  0
  -14.2965  -40.2459   -8.7623 N   0  0  0  0  0  0  0  0  0  0  0  0
  -13.0263  -39.9502   -9.3683 C   0  0  0  0  0  0  0  0  0  0  0  0
  -13.1763  -39.2289  -10.6786 C   0  0  0  0  0  0  0  0  0  0  0  0
  -13.0367  -37.8628  -10.7951 C   0  0  0  0  0  0  0  0  0  0  0  0
  -13.1738  -37.2011  -11.9862 C   0  0  0  0  0  0  0  0  0  0  0  0
  -13.4638  -37.9241  -13.1223 C   0  0  0  0  0  0  0  0  0  0  0  0
  -13.6094  -39.2879  -13.0404 C   0  0  0  0  0  0  0  0  0  0  0  0
  -13.4688  -39.9287  -11.8435 C   0  0  0  0  0  0  0  0  0  0  0  0
  -13.0134  -35.7178  -12.0647 C   0  0  0  0  0  0  0  0  0  0  0  0
  -12.8079  -35.1658  -10.6635 C   0  0  0  0  0  0  0  0  0  0  0  0
  -14.2536  -35.0602  -12.6294 C   0  0  0  0  0  0  0  0  0  0  0  0
  -11.7976  -35.3416  -12.8678 C   0  0  0  0  0  0  0  0  0  0  0  0
  -19.0788  -38.2698   -6.9466 C   0  0  0  0  0  0  0  0  0  0  0  0
  -20.2032  -37.9469   -6.2382 C   0  0  0  0  0  0  0  0  0  0  0  0
  -21.3593  -38.5495   -6.6703 C   0  0  0  0  0  0  0  0  0  0  0  0
  2  1  1  6
  2  3  1  0
  3  4  1  0
  4  5  2  0
  4  6  1  0
  6  7  1  0
  7  8  1  0
  8  9  1  0
  9 10  1  0
 10 11  1  0
 11 12  1  0
 12 13  1  0
 13 14  2  0
 14 15  1  0
 16 15  1  1
 16 17  1  0
 17 18  1  0
 18 19  2  0
 16 20  1  0
 20 21  1  6
 20 22  1  0
 22 23  1  0
 23 24  1  0
 24 25  1  0
 25 26  2  0
 26 27  1  0
 27 28  2  0
 28 29  1  0
 29 30  2  0
 27 31  1  0
 31 32  1  0
 31 33  1  0
 31 34  1  0
 14 35  1  0
 35 36  2  0
 36 37  1  0
 18  2  1  0
 30 25  1  0
 37 12  2  0
M  END
$$$$
