
     RDKit          3D

 37 39  0  0  0  0  0  0  0  0999 V2000
  -17.1381  -44.0823   -8.4243 C   0  0  0  0  0  0  0  0  0  0  0  0
  -18.2084  -43.6660   -7.4306 C   0  0  2  0  0  0  0  0  0  0  0  0
  -19.5738  -43.7049   -8.0800 C   0  0  0  0  0  0  0  0  0  0  0  0
  -20.4367  -44.7628   -7.4864 C   0  0  0  0  0  0  0  0  0  0  0  0
  -19.8404  -45.8861   -7.3262 O   0  0  0  0  0  0  0  0  0  0  0  0
  -21.7740  -44.6313   -7.1115 N   0  0  0  0  0  0  0  0  0  0  0  0
  -22.3638  -43.5712   -6.3332 C   0  0  0  0  0  0  0  0  0  0  0  0
  -23.6537  -43.0796   -6.9355 C   0  0  0  0  0  0  0  0  0  0  0  0
  -24.4072  -42.1807   -6.0031 C   0  0  0  0  0  0  0  0  0  0  0  0
  -23.5290  -41.4035   -5.0517 C   0  0  0  0  0  0  0  0  0  0  0  0
  -23.1813  -40.1967   -5.6494 O   0  0  0  0  0  0  0  0  0  0  0  0
  -22.0568  -39.6732   -6.2623 C   0  0  0  0  0  0  0  0  0  0  0  0
  -21.3394  -40.1371   -7.3522 C   0  0  0  0  0  0  0  0  0  0  0  0
  -20.2408  -39.4119   -7.7574 C   0  0  0  0  0  0  0  0  0  0  0  0
  -19.2588  -39.6494   -8.8452 C   0  0  0  0  0  0  0  0  0  0  0  0
  -18.0604  -40.4568   -8.3750 C   0  0  2  0  0  0  0  0  0  0  0  0
  -18.2764  -41.1047   -7.1272 N   0  0  0  0  0  0  0  0  0  0  0  0
  -17.9081  -42.4099   -6.7302 C   0  0  0  0  0  0  0  0  0  0  0  0
  -17.2334  -42.5316   -5.6325 O   0  0  0  0  0  0  0  0  0  0  0  0
  -16.8173  -39.5656   -8.3211 C   0  0  2  0  0  0  0  0  0  0  0  0
  -17.1843  -38.2296   -8.1433 O   0  0  0  0  0  0  0  0  0  0  0  0
  -16.0262  -39.6037   -9.6054 C   0  0  0  0  0  0  0  0  0  0  0  0
  -14.7937  -40.3562   -9.4269 N   0  0  0  0  0  0  0  0  0  0  0  0
  -13.6275  -39.5359   -9.6143 C   0  0  0  0  0  0  0  0  0  0  0  0
  -13.4962  -39.0507  -11.0311 C   0  0  0  0  0  0  0  0  0  0  0  0
  -13.3512  -37.7176  -11.3496 C   0  0  0  0  0  0  0  0  0  0  0  0
  -13.2325  -37.2707  -12.6386 C   0  0  0  0  0  0  0  0  0  0  0  0
  -13.2582  -38.1859  -13.6678 C   0  0  0  0  0  0  0  0  0  0  0  0
  -13.4015  -39.5226  -13.3842 C   0  0  0  0  0  0  0  0  0  0  0  0
  -13.5183  -39.9479  -12.0926 C   0  0  0  0  0  0  0  0  0  0  0  0
  -13.0770  -35.8150  -12.9364 C   0  0  0  0  0  0  0  0  0  0  0  0
  -11.6573  -35.3884  -12.6007 C   0  0  0  0  0  0  0  0  0  0  0  0
  -14.0101  -34.9780  -12.0890 C   0  0  0  0  0  0  0  0  0  0  0  0
  -13.2867  -35.5313  -14.3995 C   0  0  0  0  0  0  0  0  0  0  0  0
  -19.8930  -38.2357   -7.0550 C   0  0  0  0  0  0  0  0  0  0  0  0
  -20.5801  -37.7492   -5.9772 C   0  0  0  0  0  0  0  0  0  0  0  0
  -21.6700  -38.4923   -5.5951 C   0  0  0  0  0  0  0  0  0  0  0  0
  2  1  1  6
  2  3  1  0
  3  4  1  0
  4  5  2  0
  4  6  1  0
  6  7  1  0
  7  8  1  0
  8  9  1  0
  9 10  1  0
 10 11  1  0
 11 12  1  0
 12 13  1  0
 13 14  2  0
 14 15  1  0
 16 15  1  1
 16 17  1  0
 17 18  1  0
 18 19  2  0
 16 20  1  0
 20 21  1  6
 20 22  1  0
 22 23  1  0
 23 24  1  0
 24 25  1  0
 25 26  2  0
 26 27  1  0
 27 28  2  0
 28 29  1  0
 29 30  2  0
 27 31  1  0
 31 32  1  0
 31 33  1  0
 31 34  1  0
 14 35  1  0
 35 36  2  0
 36 37  1  0
 18  2  1  0
 30 25  1  0
 37 12  2  0
M  END
$$$$
