
     RDKit          3D

 37 39  0  0  0  0  0  0  0  0999 V2000
  -15.9010  -42.1533  -10.6913 C   0  0  0  0  0  0  0  0  0  0  0  0
  -17.1362  -42.2451   -9.8126 C   0  0  2  0  0  0  0  0  0  0  0  0
  -18.3765  -41.9099  -10.6108 C   0  0  0  0  0  0  0  0  0  0  0  0
  -19.2681  -43.0919  -10.7665 C   0  0  0  0  0  0  0  0  0  0  0  0
  -18.6485  -44.1677  -11.0852 O   0  0  0  0  0  0  0  0  0  0  0  0
  -20.6531  -43.1159  -10.6008 N   0  0  0  0  0  0  0  0  0  0  0  0
  -21.4131  -42.5588   -9.5101 C   0  0  0  0  0  0  0  0  0  0  0  0
  -22.6134  -41.7889   -9.9943 C   0  0  0  0  0  0  0  0  0  0  0  0
  -23.5513  -41.4422   -8.8782 C   0  0  0  0  0  0  0  0  0  0  0  0
  -22.8773  -41.2681   -7.5381 C   0  0  0  0  0  0  0  0  0  0  0  0
  -22.5006  -39.9367   -7.3970 O   0  0  0  0  0  0  0  0  0  0  0  0
  -21.3207  -39.2187   -7.4783 C   0  0  0  0  0  0  0  0  0  0  0  0
  -20.4156  -39.1083   -8.5206 C   0  0  0  0  0  0  0  0  0  0  0  0
  -19.3047  -38.3167   -8.3291 C   0  0  0  0  0  0  0  0  0  0  0  0
  -18.1507  -38.0201   -9.2146 C   0  0  0  0  0  0  0  0  0  0  0  0
  -17.0032  -38.9959   -9.0140 C   0  0  2  0  0  0  0  0  0  0  0  0
  -17.3826  -40.1677   -8.3025 N   0  0  0  0  0  0  0  0  0  0  0  0
  -17.0164  -41.5106   -8.5459 C   0  0  0  0  0  0  0  0  0  0  0  0
  -16.5205  -42.1825   -7.5571 O   0  0  0  0  0  0  0  0  0  0  0  0
  -15.8318  -38.2921   -8.3248 C   0  0  2  0  0  0  0  0  0  0  0  0
  -15.9826  -36.9057   -8.4049 O   0  0  0  0  0  0  0  0  0  0  0  0
  -14.5092  -38.5972   -8.9839 C   0  0  0  0  0  0  0  0  0  0  0  0
  -13.9896  -39.8761   -8.5241 N   0  0  0  0  0  0  0  0  0  0  0  0
  -12.9392  -40.3696   -9.3733 C   0  0  0  0  0  0  0  0  0  0  0  0
  -12.5174  -39.3575  -10.4016 C   0  0  0  0  0  0  0  0  0  0  0  0
  -13.3517  -38.3520  -10.8406 C   0  0  0  0  0  0  0  0  0  0  0  0
  -12.9726  -37.4286  -11.7779 C   0  0  0  0  0  0  0  0  0  0  0  0
  -11.7043  -37.4998  -12.3108 C   0  0  0  0  0  0  0  0  0  0  0  0
  -10.8477  -38.4902  -11.8945 C   0  0  0  0  0  0  0  0  0  0  0  0
  -11.2448  -39.4012  -10.9591 C   0  0  0  0  0  0  0  0  0  0  0  0
  -13.9115  -36.3554  -12.2237 C   0  0  0  0  0  0  0  0  0  0  0  0
  -15.2067  -36.9943  -12.6976 C   0  0  0  0  0  0  0  0  0  0  0  0
  -13.3420  -35.5763  -13.3891 C   0  0  0  0  0  0  0  0  0  0  0  0
  -14.2662  -35.4335  -11.0883 C   0  0  0  0  0  0  0  0  0  0  0  0
  -19.1342  -37.6543   -7.0923 C   0  0  0  0  0  0  0  0  0  0  0  0
  -20.0087  -37.7401   -6.0443 C   0  0  0  0  0  0  0  0  0  0  0  0
  -21.1064  -38.5361   -6.2628 C   0  0  0  0  0  0  0  0  0  0  0  0
  2  1  1  6
  2  3  1  0
  3  4  1  0
  4  5  2  0
  4  6  1  0
  6  7  1  0
  7  8  1  0
  8  9  1  0
  9 10  1  0
 10 11  1  0
 11 12  1  0
 12 13  1  0
 13 14  2  0
 14 15  1  0
 16 15  1  1
 16 17  1  0
 17 18  1  0
 18 19  2  0
 16 20  1  0
 20 21  1  6
 20 22  1  0
 22 23  1  0
 23 24  1  0
 24 25  1  0
 25 26  2  0
 26 27  1  0
 27 28  2  0
 28 29  1  0
 29 30  2  0
 27 31  1  0
 31 32  1  0
 31 33  1  0
 31 34  1  0
 14 35  1  0
 35 36  2  0
 36 37  1  0
 18  2  1  0
 30 25  1  0
 37 12  2  0
M  END
$$$$
