
     RDKit          3D

 37 39  0  0  0  0  0  0  0  0999 V2000
  -17.0130  -44.0134   -8.8880 C   0  0  0  0  0  0  0  0  0  0  0  0
  -18.1474  -43.7506   -7.9131 C   0  0  2  0  0  0  0  0  0  0  0  0
  -19.4630  -43.6448   -8.6519 C   0  0  0  0  0  0  0  0  0  0  0  0
  -20.3778  -44.7692   -8.3127 C   0  0  0  0  0  0  0  0  0  0  0  0
  -19.8067  -45.9167   -8.3099 O   0  0  0  0  0  0  0  0  0  0  0  0
  -21.7371  -44.6735   -8.0137 N   0  0  0  0  0  0  0  0  0  0  0  0
  -22.3698  -43.7506   -7.1053 C   0  0  0  0  0  0  0  0  0  0  0  0
  -23.6076  -43.1325   -7.7002 C   0  0  0  0  0  0  0  0  0  0  0  0
  -24.4164  -42.3912   -6.6797 C   0  0  0  0  0  0  0  0  0  0  0  0
  -23.6005  -41.8109   -5.5492 C   0  0  0  0  0  0  0  0  0  0  0  0
  -23.1977  -40.5272   -5.9020 O   0  0  0  0  0  0  0  0  0  0  0  0
  -22.0263  -39.9319   -6.3354 C   0  0  0  0  0  0  0  0  0  0  0  0
  -21.2375  -40.2168   -7.4373 C   0  0  0  0  0  0  0  0  0  0  0  0
  -20.1047  -39.4581   -7.6332 C   0  0  0  0  0  0  0  0  0  0  0  0
  -19.0497  -39.5266   -8.6754 C   0  0  0  0  0  0  0  0  0  0  0  0
  -17.8970  -40.4307   -8.2716 C   0  0  2  0  0  0  0  0  0  0  0  0
  -18.2093  -41.2795   -7.1736 N   0  0  0  0  0  0  0  0  0  0  0  0
  -17.8847  -42.6419   -6.9856 C   0  0  0  0  0  0  0  0  0  0  0  0
  -17.2921  -42.9673   -5.8820 O   0  0  0  0  0  0  0  0  0  0  0  0
  -16.6514  -39.5913   -7.9776 C   0  0  2  0  0  0  0  0  0  0  0  0
  -16.6212  -38.4622   -8.7994 O   0  0  0  0  0  0  0  0  0  0  0  0
  -15.3729  -40.3393   -8.2651 C   0  0  0  0  0  0  0  0  0  0  0  0
  -14.2234  -39.4550   -8.1477 N   0  0  0  0  0  0  0  0  0  0  0  0
  -13.1513  -39.8429   -9.0242 C   0  0  0  0  0  0  0  0  0  0  0  0
  -13.3251  -39.2925  -10.4122 C   0  0  0  0  0  0  0  0  0  0  0  0
  -13.4027  -37.9411  -10.6715 C   0  0  0  0  0  0  0  0  0  0  0  0
  -13.5624  -37.4350  -11.9338 C   0  0  0  0  0  0  0  0  0  0  0  0
  -13.6502  -38.3068  -12.9967 C   0  0  0  0  0  0  0  0  0  0  0  0
  -13.5765  -39.6603  -12.7724 C   0  0  0  0  0  0  0  0  0  0  0  0
  -13.4172  -40.1448  -11.5064 C   0  0  0  0  0  0  0  0  0  0  0  0
  -13.6413  -35.9614  -12.1671 C   0  0  0  0  0  0  0  0  0  0  0  0
  -13.7103  -35.6985  -13.6626 C   0  0  0  0  0  0  0  0  0  0  0  0
  -12.4100  -35.2553  -11.6430 C   0  0  0  0  0  0  0  0  0  0  0  0
  -14.8892  -35.3784  -11.5606 C   0  0  0  0  0  0  0  0  0  0  0  0
  -19.7956  -38.4295   -6.7144 C   0  0  0  0  0  0  0  0  0  0  0  0
  -20.5531  -38.1210   -5.6183 C   0  0  0  0  0  0  0  0  0  0  0  0
  -21.6758  -38.8935   -5.4476 C   0  0  0  0  0  0  0  0  0  0  0  0
  2  1  1  6
  2  3  1  0
  3  4  1  0
  4  5  2  0
  4  6  1  0
  6  7  1  0
  7  8  1  0
  8  9  1  0
  9 10  1  0
 10 11  1  0
 11 12  1  0
 12 13  1  0
 13 14  2  0
 14 15  1  0
 16 15  1  1
 16 17  1  0
 17 18  1  0
 18 19  2  0
 16 20  1  0
 20 21  1  6
 20 22  1  0
 22 23  1  0
 23 24  1  0
 24 25  1  0
 25 26  2  0
 26 27  1  0
 27 28  2  0
 28 29  1  0
 29 30  2  0
 27 31  1  0
 31 32  1  0
 31 33  1  0
 31 34  1  0
 14 35  1  0
 35 36  2  0
 36 37  1  0
 18  2  1  0
 30 25  1  0
 37 12  2  0
M  END
$$$$
