
     RDKit          3D

 37 39  0  0  0  0  0  0  0  0999 V2000
  -17.2403  -44.4647   -8.0972 C   0  0  0  0  0  0  0  0  0  0  0  0
  -18.4557  -44.0700   -7.2767 C   0  0  2  0  0  0  0  0  0  0  0  0
  -19.7257  -44.5023   -7.9752 C   0  0  0  0  0  0  0  0  0  0  0  0
  -20.4395  -45.5641   -7.2140 C   0  0  0  0  0  0  0  0  0  0  0  0
  -19.6714  -46.4950   -6.7822 O   0  0  0  0  0  0  0  0  0  0  0  0
  -21.8081  -45.6198   -6.9494 N   0  0  0  0  0  0  0  0  0  0  0  0
  -22.6466  -44.5580   -6.4525 C   0  0  0  0  0  0  0  0  0  0  0  0
  -23.9409  -44.4570   -7.2158 C   0  0  0  0  0  0  0  0  0  0  0  0
  -24.9257  -43.5503   -6.5426 C   0  0  0  0  0  0  0  0  0  0  0  0
  -24.2920  -42.4418   -5.7361 C   0  0  0  0  0  0  0  0  0  0  0  0
  -24.1090  -41.3373   -6.5614 O   0  0  0  0  0  0  0  0  0  0  0  0
  -23.0425  -40.7421   -7.2114 C   0  0  0  0  0  0  0  0  0  0  0  0
  -22.1554  -41.2701   -8.1345 C   0  0  0  0  0  0  0  0  0  0  0  0
  -21.1694  -40.4441   -8.6271 C   0  0  0  0  0  0  0  0  0  0  0  0
  -20.0634  -40.7033   -9.5829 C   0  0  0  0  0  0  0  0  0  0  0  0
  -18.7903  -41.1519   -8.8848 C   0  0  2  0  0  0  0  0  0  0  0  0
  -19.0042  -41.5627   -7.5398 N   0  0  0  0  0  0  0  0  0  0  0  0
  -18.4496  -42.6642   -6.8500 C   0  0  0  0  0  0  0  0  0  0  0  0
  -17.8698  -42.4283   -5.7172 O   0  0  0  0  0  0  0  0  0  0  0  0
  -17.7353  -40.0457   -8.9582 C   0  0  2  0  0  0  0  0  0  0  0  0
  -17.3706  -39.8090  -10.2856 O   0  0  0  0  0  0  0  0  0  0  0  0
  -16.4591  -40.4198   -8.2452 C   0  0  0  0  0  0  0  0  0  0  0  0
  -15.9992  -39.3231   -7.4069 N   0  0  0  0  0  0  0  0  0  0  0  0
  -14.9022  -38.6098   -8.0036 C   0  0  0  0  0  0  0  0  0  0  0  0
  -15.3689  -37.5316   -8.9413 C   0  0  0  0  0  0  0  0  0  0  0  0
  -14.9759  -37.4730  -10.2610 C   0  0  0  0  0  0  0  0  0  0  0  0
  -15.3972  -36.4921  -11.1186 C   0  0  0  0  0  0  0  0  0  0  0  0
  -16.2510  -35.5175  -10.6508 C   0  0  0  0  0  0  0  0  0  0  0  0
  -16.6620  -35.5471   -9.3401 C   0  0  0  0  0  0  0  0  0  0  0  0
  -16.2305  -36.5334   -8.5011 C   0  0  0  0  0  0  0  0  0  0  0  0
  -14.9446  -36.4689  -12.5422 C   0  0  0  0  0  0  0  0  0  0  0  0
  -15.6864  -37.5460  -13.3166 C   0  0  0  0  0  0  0  0  0  0  0  0
  -13.4665  -36.7723  -12.6538 C   0  0  0  0  0  0  0  0  0  0  0  0
  -15.2699  -35.1537  -13.1975 C   0  0  0  0  0  0  0  0  0  0  0  0
  -21.1027  -39.1055   -8.1786 C   0  0  0  0  0  0  0  0  0  0  0  0
  -21.9630  -38.5523   -7.2706 C   0  0  0  0  0  0  0  0  0  0  0  0
  -22.9352  -39.3985   -6.7961 C   0  0  0  0  0  0  0  0  0  0  0  0
  2  1  1  6
  2  3  1  0
  3  4  1  0
  4  5  2  0
  4  6  1  0
  6  7  1  0
  7  8  1  0
  8  9  1  0
  9 10  1  0
 10 11  1  0
 11 12  1  0
 12 13  1  0
 13 14  2  0
 14 15  1  0
 16 15  1  1
 16 17  1  0
 17 18  1  0
 18 19  2  0
 16 20  1  0
 20 21  1  6
 20 22  1  0
 22 23  1  0
 23 24  1  0
 24 25  1  0
 25 26  2  0
 26 27  1  0
 27 28  2  0
 28 29  1  0
 29 30  2  0
 27 31  1  0
 31 32  1  0
 31 33  1  0
 31 34  1  0
 14 35  1  0
 35 36  2  0
 36 37  1  0
 18  2  1  0
 30 25  1  0
 37 12  2  0
M  END
$$$$
