
     RDKit          3D

 37 39  0  0  0  0  0  0  0  0999 V2000
  -15.8254  -43.4906   -7.6484 C   0  0  0  0  0  0  0  0  0  0  0  0
  -15.6162  -43.0421   -9.0842 C   0  0  2  0  0  0  0  0  0  0  0  0
  -14.1393  -42.9426   -9.3950 C   0  0  0  0  0  0  0  0  0  0  0  0
  -13.7173  -43.9584  -10.3981 C   0  0  0  0  0  0  0  0  0  0  0  0
  -14.1832  -45.1311  -10.1730 O   0  0  0  0  0  0  0  0  0  0  0  0
  -12.8969  -43.7422  -11.5055 N   0  0  0  0  0  0  0  0  0  0  0  0
  -12.9970  -42.6792  -12.4738 C   0  0  0  0  0  0  0  0  0  0  0  0
  -11.6571  -42.0598  -12.7721 C   0  0  0  0  0  0  0  0  0  0  0  0
  -11.7059  -41.1523  -13.9635 C   0  0  0  0  0  0  0  0  0  0  0  0
  -13.0471  -40.4936  -14.1824 C   0  0  0  0  0  0  0  0  0  0  0  0
  -13.0722  -39.2893  -13.4870 O   0  0  0  0  0  0  0  0  0  0  0  0
  -13.6406  -38.8252  -12.3141 C   0  0  0  0  0  0  0  0  0  0  0  0
  -13.5080  -39.2889  -11.0160 C   0  0  0  0  0  0  0  0  0  0  0  0
  -14.1999  -38.6320  -10.0225 C   0  0  0  0  0  0  0  0  0  0  0  0
  -14.2988  -38.8910   -8.5640 C   0  0  0  0  0  0  0  0  0  0  0  0
  -15.4576  -39.8113   -8.2183 C   0  0  2  0  0  0  0  0  0  0  0  0
  -15.9805  -40.5014   -9.3470 N   0  0  0  0  0  0  0  0  0  0  0  0
  -16.3920  -41.8493   -9.4498 C   0  0  0  0  0  0  0  0  0  0  0  0
  -17.5780  -42.0772   -9.9153 O   0  0  0  0  0  0  0  0  0  0  0  0
  -16.5562  -39.0231   -7.5013 C   0  0  2  0  0  0  0  0  0  0  0  0
  -16.0444  -37.8257   -6.9958 O   0  0  0  0  0  0  0  0  0  0  0  0
  -17.1117  -39.7643   -6.3101 C   0  0  0  0  0  0  0  0  0  0  0  0
  -18.5659  -39.7152   -6.3076 N   0  0  0  0  0  0  0  0  0  0  0  0
  -19.0634  -38.4125   -6.6591 C   0  0  0  0  0  0  0  0  0  0  0  0
  -20.1040  -38.4752   -7.7421 C   0  0  0  0  0  0  0  0  0  0  0  0
  -21.3495  -39.0314   -7.5447 C   0  0  0  0  0  0  0  0  0  0  0  0
  -22.3002  -39.0921   -8.5284 C   0  0  0  0  0  0  0  0  0  0  0  0
  -22.0079  -38.5774   -9.7723 C   0  0  0  0  0  0  0  0  0  0  0  0
  -20.7752  -38.0159  -10.0021 C   0  0  0  0  0  0  0  0  0  0  0  0
  -19.8412  -37.9651   -9.0082 C   0  0  0  0  0  0  0  0  0  0  0  0
  -23.6378  -39.7047   -8.2684 C   0  0  0  0  0  0  0  0  0  0  0  0
  -24.6445  -38.6001   -7.9920 C   0  0  0  0  0  0  0  0  0  0  0  0
  -23.6048  -40.5985   -7.0479 C   0  0  0  0  0  0  0  0  0  0  0  0
  -24.1349  -40.4617   -9.4704 C   0  0  0  0  0  0  0  0  0  0  0  0
  -15.0073  -37.5226  -10.3615 C   0  0  0  0  0  0  0  0  0  0  0  0
  -15.1587  -37.0381  -11.6315 C   0  0  0  0  0  0  0  0  0  0  0  0
  -14.4581  -37.7123  -12.6015 C   0  0  0  0  0  0  0  0  0  0  0  0
  2  1  1  1
  2  3  1  0
  3  4  1  0
  4  5  2  0
  4  6  1  0
  6  7  1  0
  7  8  1  0
  8  9  1  0
  9 10  1  0
 10 11  1  0
 11 12  1  0
 12 13  1  0
 13 14  2  0
 14 15  1  0
 16 15  1  6
 16 17  1  0
 17 18  1  0
 18 19  2  0
 16 20  1  0
 20 21  1  1
 20 22  1  0
 22 23  1  0
 23 24  1  0
 24 25  1  0
 25 26  2  0
 26 27  1  0
 27 28  2  0
 28 29  1  0
 29 30  2  0
 27 31  1  0
 31 32  1  0
 31 33  1  0
 31 34  1  0
 14 35  1  0
 35 36  2  0
 36 37  1  0
 18  2  1  0
 30 25  1  0
 37 12  2  0
M  END
$$$$
