
     RDKit          3D

 37 39  0  0  0  0  0  0  0  0999 V2000
  -14.6664  -43.4085   -9.3125 C   0  0  0  0  0  0  0  0  0  0  0  0
  -14.4967  -42.3340  -10.3722 C   0  0  2  0  0  0  0  0  0  0  0  0
  -13.0999  -41.7565  -10.3179 C   0  0  0  0  0  0  0  0  0  0  0  0
  -12.3184  -42.0876  -11.5410 C   0  0  0  0  0  0  0  0  0  0  0  0
  -12.4244  -43.3118  -11.9059 O   0  0  0  0  0  0  0  0  0  0  0  0
  -11.5220  -41.2131  -12.2806 N   0  0  0  0  0  0  0  0  0  0  0  0
  -11.8662  -39.8895  -12.7356 C   0  0  0  0  0  0  0  0  0  0  0  0
  -10.7572  -38.9013  -12.4871 C   0  0  0  0  0  0  0  0  0  0  0  0
  -10.9892  -37.6006  -13.1940 C   0  0  0  0  0  0  0  0  0  0  0  0
  -12.4466  -37.2559  -13.3883 C   0  0  0  0  0  0  0  0  0  0  0  0
  -12.8849  -36.5304  -12.2855 O   0  0  0  0  0  0  0  0  0  0  0  0
  -13.6517  -36.7861  -11.1626 C   0  0  0  0  0  0  0  0  0  0  0  0
  -13.4817  -37.7308  -10.1644 C   0  0  0  0  0  0  0  0  0  0  0  0
  -14.4107  -37.7700   -9.1483 C   0  0  0  0  0  0  0  0  0  0  0  0
  -14.5343  -38.6645   -7.9699 C   0  0  0  0  0  0  0  0  0  0  0  0
  -15.3839  -39.8901   -8.2620 C   0  0  2  0  0  0  0  0  0  0  0  0
  -15.5896  -40.1105   -9.6521 N   0  0  0  0  0  0  0  0  0  0  0  0
  -15.5669  -41.3275  -10.3700 C   0  0  0  0  0  0  0  0  0  0  0  0
  -16.5912  -41.6016  -11.1121 O   0  0  0  0  0  0  0  0  0  0  0  0
  -16.7189  -39.7906   -7.5200 C   0  0  2  0  0  0  0  0  0  0  0  0
  -16.5098  -39.4105   -6.1922 O   0  0  0  0  0  0  0  0  0  0  0  0
  -17.4416  -41.1137   -7.4565 C   0  0  0  0  0  0  0  0  0  0  0  0
  -18.5734  -41.1246   -8.3708 N   0  0  0  0  0  0  0  0  0  0  0  0
  -19.2989  -42.3652   -8.3181 C   0  0  0  0  0  0  0  0  0  0  0  0
  -20.4917  -42.2872   -7.4066 C   0  0  0  0  0  0  0  0  0  0  0  0
  -20.9383  -41.1002   -6.8670 C   0  0  0  0  0  0  0  0  0  0  0  0
  -22.0235  -41.0242   -6.0353 C   0  0  0  0  0  0  0  0  0  0  0  0
  -22.7045  -42.1790   -5.7186 C   0  0  0  0  0  0  0  0  0  0  0  0
  -22.2850  -43.3791   -6.2400 C   0  0  0  0  0  0  0  0  0  0  0  0
  -21.2009  -43.4336   -7.0673 C   0  0  0  0  0  0  0  0  0  0  0  0
  -22.4716  -39.7143   -5.4736 C   0  0  0  0  0  0  0  0  0  0  0  0
  -21.6913  -39.4267   -4.2013 C   0  0  0  0  0  0  0  0  0  0  0  0
  -23.9383  -39.7480   -5.1035 C   0  0  0  0  0  0  0  0  0  0  0  0
  -22.1881  -38.5853   -6.4275 C   0  0  0  0  0  0  0  0  0  0  0  0
  -15.4877  -36.8549   -9.1622 C   0  0  0  0  0  0  0  0  0  0  0  0
  -15.6840  -35.9092  -10.1305 C   0  0  0  0  0  0  0  0  0  0  0  0
  -14.7431  -35.8932  -11.1310 C   0  0  0  0  0  0  0  0  0  0  0  0
  2  1  1  1
  2  3  1  0
  3  4  1  0
  4  5  2  0
  4  6  1  0
  6  7  1  0
  7  8  1  0
  8  9  1  0
  9 10  1  0
 10 11  1  0
 11 12  1  0
 12 13  1  0
 13 14  2  0
 14 15  1  0
 16 15  1  6
 16 17  1  0
 17 18  1  0
 18 19  2  0
 16 20  1  0
 20 21  1  1
 20 22  1  0
 22 23  1  0
 23 24  1  0
 24 25  1  0
 25 26  2  0
 26 27  1  0
 27 28  2  0
 28 29  1  0
 29 30  2  0
 27 31  1  0
 31 32  1  0
 31 33  1  0
 31 34  1  0
 14 35  1  0
 35 36  2  0
 36 37  1  0
 18  2  1  0
 30 25  1  0
 37 12  2  0
M  END
$$$$
