
     RDKit          3D

 37 39  0  0  0  0  0  0  0  0999 V2000
  -13.2767  -42.6308   -9.2540 C   0  0  0  0  0  0  0  0  0  0  0  0
  -13.3712  -41.7572  -10.4926 C   0  0  2  0  0  0  0  0  0  0  0  0
  -12.1448  -40.8803  -10.6136 C   0  0  0  0  0  0  0  0  0  0  0  0
  -11.3216  -41.2443  -11.7994 C   0  0  0  0  0  0  0  0  0  0  0  0
  -11.1461  -42.5064  -11.9385 O   0  0  0  0  0  0  0  0  0  0  0  0
  -10.7566  -40.3628  -12.7213 N   0  0  0  0  0  0  0  0  0  0  0  0
  -11.4020  -39.2562  -13.3820 C   0  0  0  0  0  0  0  0  0  0  0  0
  -10.5484  -38.0155  -13.3687 C   0  0  0  0  0  0  0  0  0  0  0  0
  -11.0821  -36.9516  -14.2789 C   0  0  0  0  0  0  0  0  0  0  0  0
  -12.5817  -36.9849  -14.4536 C   0  0  0  0  0  0  0  0  0  0  0  0
  -13.1635  -36.1882  -13.4731 O   0  0  0  0  0  0  0  0  0  0  0  0
  -13.8382  -36.4009  -12.2841 C   0  0  0  0  0  0  0  0  0  0  0  0
  -13.4438  -37.0849  -11.1465 C   0  0  0  0  0  0  0  0  0  0  0  0
  -14.3275  -37.1464  -10.0917 C   0  0  0  0  0  0  0  0  0  0  0  0
  -14.2284  -37.8156   -8.7703 C   0  0  0  0  0  0  0  0  0  0  0  0
  -14.7753  -39.2331   -8.7985 C   0  0  2  0  0  0  0  0  0  0  0  0
  -14.9398  -39.7437  -10.1159 N   0  0  0  0  0  0  0  0  0  0  0  0
  -14.6447  -41.0342  -10.6102 C   0  0  0  0  0  0  0  0  0  0  0  0
  -15.5862  -41.6623  -11.2380 O   0  0  0  0  0  0  0  0  0  0  0  0
  -16.0889  -39.3031   -8.0162 C   0  0  2  0  0  0  0  0  0  0  0  0
  -16.0019  -38.5381   -6.8507 O   0  0  0  0  0  0  0  0  0  0  0  0
  -16.4132  -40.7046   -7.5609 C   0  0  0  0  0  0  0  0  0  0  0  0
  -17.7239  -41.1110   -8.0445 N   0  0  0  0  0  0  0  0  0  0  0  0
  -18.7288  -41.0254   -7.0193 C   0  0  0  0  0  0  0  0  0  0  0  0
  -20.0599  -40.5882   -7.5640 C   0  0  0  0  0  0  0  0  0  0  0  0
  -21.1860  -40.4803   -6.7765 C   0  0  0  0  0  0  0  0  0  0  0  0
  -22.4009  -40.0838   -7.2683 C   0  0  0  0  0  0  0  0  0  0  0  0
  -22.5120  -39.7775   -8.6067 C   0  0  0  0  0  0  0  0  0  0  0  0
  -21.4083  -39.8748   -9.4193 C   0  0  0  0  0  0  0  0  0  0  0  0
  -20.2061  -40.2720   -8.9097 C   0  0  0  0  0  0  0  0  0  0  0  0
  -23.5950  -39.9812   -6.3764 C   0  0  0  0  0  0  0  0  0  0  0  0
  -23.1529  -40.1558   -4.9327 C   0  0  0  0  0  0  0  0  0  0  0  0
  -24.5989  -41.0734   -6.6742 C   0  0  0  0  0  0  0  0  0  0  0  0
  -24.2377  -38.6241   -6.4779 C   0  0  0  0  0  0  0  0  0  0  0  0
  -15.5867  -36.5153  -10.2088 C   0  0  0  0  0  0  0  0  0  0  0  0
  -16.0065  -35.8307  -11.3158 C   0  0  0  0  0  0  0  0  0  0  0  0
  -15.1058  -35.7861  -12.3517 C   0  0  0  0  0  0  0  0  0  0  0  0
  2  1  1  1
  2  3  1  0
  3  4  1  0
  4  5  2  0
  4  6  1  0
  6  7  1  0
  7  8  1  0
  8  9  1  0
  9 10  1  0
 10 11  1  0
 11 12  1  0
 12 13  1  0
 13 14  2  0
 14 15  1  0
 16 15  1  6
 16 17  1  0
 17 18  1  0
 18 19  2  0
 16 20  1  0
 20 21  1  1
 20 22  1  0
 22 23  1  0
 23 24  1  0
 24 25  1  0
 25 26  2  0
 26 27  1  0
 27 28  2  0
 28 29  1  0
 29 30  2  0
 27 31  1  0
 31 32  1  0
 31 33  1  0
 31 34  1  0
 14 35  1  0
 35 36  2  0
 36 37  1  0
 18  2  1  0
 30 25  1  0
 37 12  2  0
M  END
$$$$
