
     RDKit          3D

 37 39  0  0  0  0  0  0  0  0999 V2000
  -16.6478  -42.6030   -9.4310 C   0  0  0  0  0  0  0  0  0  0  0  0
  -17.7210  -42.8995   -8.3982 C   0  0  2  0  0  0  0  0  0  0  0  0
  -19.0345  -43.2141   -9.0789 C   0  0  0  0  0  0  0  0  0  0  0  0
  -19.4395  -44.6310   -8.8675 C   0  0  0  0  0  0  0  0  0  0  0  0
  -18.4859  -45.4710   -9.0344 O   0  0  0  0  0  0  0  0  0  0  0  0
  -20.7106  -45.0891   -8.5203 N   0  0  0  0  0  0  0  0  0  0  0  0
  -21.5687  -44.5822   -7.4791 C   0  0  0  0  0  0  0  0  0  0  0  0
  -22.9889  -44.4128   -7.9509 C   0  0  0  0  0  0  0  0  0  0  0  0
  -23.9342  -44.1519   -6.8180 C   0  0  0  0  0  0  0  0  0  0  0  0
  -23.3073  -43.4392   -5.6434 C   0  0  0  0  0  0  0  0  0  0  0  0
  -23.4363  -42.0673   -5.8325 O   0  0  0  0  0  0  0  0  0  0  0  0
  -22.6052  -41.0295   -6.2151 C   0  0  0  0  0  0  0  0  0  0  0  0
  -21.8535  -40.8691   -7.3670 C   0  0  0  0  0  0  0  0  0  0  0  0
  -21.1004  -39.7225   -7.4914 C   0  0  0  0  0  0  0  0  0  0  0  0
  -20.1778  -39.2697   -8.5627 C   0  0  0  0  0  0  0  0  0  0  0  0
  -18.7451  -39.7124   -8.3161 C   0  0  2  0  0  0  0  0  0  0  0  0
  -18.6364  -40.7350   -7.3333 N   0  0  0  0  0  0  0  0  0  0  0  0
  -17.8173  -41.8865   -7.3385 C   0  0  0  0  0  0  0  0  0  0  0  0
  -17.0640  -42.0875   -6.3054 O   0  0  0  0  0  0  0  0  0  0  0  0
  -17.8801  -38.5047   -7.9477 C   0  0  2  0  0  0  0  0  0  0  0  0
  -18.3249  -37.3647   -8.6211 O   0  0  0  0  0  0  0  0  0  0  0  0
  -16.4387  -38.6836   -8.3566 C   0  0  0  0  0  0  0  0  0  0  0  0
  -15.9634  -37.5174   -9.0854 N   0  0  0  0  0  0  0  0  0  0  0  0
  -16.2146  -37.6231  -10.4975 C   0  0  0  0  0  0  0  0  0  0  0  0
  -14.9869  -38.0296  -11.2638 C   0  0  0  0  0  0  0  0  0  0  0  0
  -13.7567  -37.4417  -11.0626 C   0  0  0  0  0  0  0  0  0  0  0  0
  -12.6359  -37.8076  -11.7590 C   0  0  0  0  0  0  0  0  0  0  0  0
  -12.7327  -38.8055  -12.7036 C   0  0  0  0  0  0  0  0  0  0  0  0
  -13.9448  -39.4121  -12.9286 C   0  0  0  0  0  0  0  0  0  0  0  0
  -15.0503  -39.0329  -12.2238 C   0  0  0  0  0  0  0  0  0  0  0  0
  -11.3224  -37.1418  -11.5069 C   0  0  0  0  0  0  0  0  0  0  0  0
  -10.6271  -37.8382  -10.3485 C   0  0  0  0  0  0  0  0  0  0  0  0
  -11.5076  -35.6923  -11.1143 C   0  0  0  0  0  0  0  0  0  0  0  0
  -10.4126  -37.2590  -12.7000 C   0  0  0  0  0  0  0  0  0  0  0  0
  -21.1247  -38.7648   -6.4523 C   0  0  0  0  0  0  0  0  0  0  0  0
  -21.8566  -38.8909   -5.3039 C   0  0  0  0  0  0  0  0  0  0  0  0
  -22.5972  -40.0435   -5.2066 C   0  0  0  0  0  0  0  0  0  0  0  0
  2  1  1  6
  2  3  1  0
  3  4  1  0
  4  5  2  0
  4  6  1  0
  6  7  1  0
  7  8  1  0
  8  9  1  0
  9 10  1  0
 10 11  1  0
 11 12  1  0
 12 13  1  0
 13 14  2  0
 14 15  1  0
 16 15  1  1
 16 17  1  0
 17 18  1  0
 18 19  2  0
 16 20  1  0
 20 21  1  6
 20 22  1  0
 22 23  1  0
 23 24  1  0
 24 25  1  0
 25 26  2  0
 26 27  1  0
 27 28  2  0
 28 29  1  0
 29 30  2  0
 27 31  1  0
 31 32  1  0
 31 33  1  0
 31 34  1  0
 14 35  1  0
 35 36  2  0
 36 37  1  0
 18  2  1  0
 30 25  1  0
 37 12  2  0
M  END
$$$$
