
     RDKit          3D

 37 39  0  0  0  0  0  0  0  0999 V2000
  -16.1390  -43.2205   -9.5200 C   0  0  0  0  0  0  0  0  0  0  0  0
  -17.3712  -43.2385   -8.6325 C   0  0  2  0  0  0  0  0  0  0  0  0
  -18.6215  -43.0541   -9.4635 C   0  0  0  0  0  0  0  0  0  0  0  0
  -19.4715  -44.2763   -9.4593 C   0  0  0  0  0  0  0  0  0  0  0  0
  -18.8146  -45.3627   -9.6360 O   0  0  0  0  0  0  0  0  0  0  0  0
  -20.8549  -44.3260   -9.2870 N   0  0  0  0  0  0  0  0  0  0  0  0
  -21.6350  -43.6569   -8.2764 C   0  0  0  0  0  0  0  0  0  0  0  0
  -22.8607  -42.9991   -8.8534 C   0  0  0  0  0  0  0  0  0  0  0  0
  -23.8112  -42.5413   -7.7893 C   0  0  0  0  0  0  0  0  0  0  0  0
  -23.1450  -42.1693   -6.4861 C   0  0  0  0  0  0  0  0  0  0  0  0
  -22.8148  -40.8187   -6.5226 O   0  0  0  0  0  0  0  0  0  0  0  0
  -21.6604  -40.0773   -6.7018 C   0  0  0  0  0  0  0  0  0  0  0  0
  -20.7586  -40.0739   -7.7526 C   0  0  0  0  0  0  0  0  0  0  0  0
  -19.6760  -39.2262   -7.6708 C   0  0  0  0  0  0  0  0  0  0  0  0
  -18.5320  -39.0089   -8.5916 C   0  0  0  0  0  0  0  0  0  0  0  0
  -17.3516  -39.9098   -8.2685 C   0  0  2  0  0  0  0  0  0  0  0  0
  -17.6909  -40.9902   -7.4077 N   0  0  0  0  0  0  0  0  0  0  0  0
  -17.2782  -42.3401   -7.4738 C   0  0  0  0  0  0  0  0  0  0  0  0
  -16.7604  -42.8586   -6.4070 O   0  0  0  0  0  0  0  0  0  0  0  0
  -16.2060  -39.0815   -7.6819 C   0  0  2  0  0  0  0  0  0  0  0  0
  -16.0045  -37.9254   -8.4396 O   0  0  0  0  0  0  0  0  0  0  0  0
  -14.8905  -39.8202   -7.7073 C   0  0  0  0  0  0  0  0  0  0  0  0
  -13.8147  -38.9380   -8.1331 N   0  0  0  0  0  0  0  0  0  0  0  0
  -13.3043  -39.2947   -9.4294 C   0  0  0  0  0  0  0  0  0  0  0  0
  -13.2860  -38.1253  -10.3739 C   0  0  0  0  0  0  0  0  0  0  0  0
  -14.1775  -37.9987  -11.4173 C   0  0  0  0  0  0  0  0  0  0  0  0
  -14.1639  -36.9362  -12.2810 C   0  0  0  0  0  0  0  0  0  0  0  0
  -13.2221  -35.9461  -12.1072 C   0  0  0  0  0  0  0  0  0  0  0  0
  -12.3186  -36.0421  -11.0764 C   0  0  0  0  0  0  0  0  0  0  0  0
  -12.3487  -37.1094  -10.2263 C   0  0  0  0  0  0  0  0  0  0  0  0
  -15.1508  -36.8411  -13.3987 C   0  0  0  0  0  0  0  0  0  0  0  0
  -14.4712  -36.2236  -14.6099 C   0  0  0  0  0  0  0  0  0  0  0  0
  -16.3135  -35.9457  -13.0304 C   0  0  0  0  0  0  0  0  0  0  0  0
  -15.6376  -38.2030  -13.8149 C   0  0  0  0  0  0  0  0  0  0  0  0
  -19.5298  -38.4014   -6.5324 C   0  0  0  0  0  0  0  0  0  0  0  0
  -20.4020  -38.3787   -5.4791 C   0  0  0  0  0  0  0  0  0  0  0  0
  -21.4712  -39.2339   -5.5873 C   0  0  0  0  0  0  0  0  0  0  0  0
  2  1  1  6
  2  3  1  0
  3  4  1  0
  4  5  2  0
  4  6  1  0
  6  7  1  0
  7  8  1  0
  8  9  1  0
  9 10  1  0
 10 11  1  0
 11 12  1  0
 12 13  1  0
 13 14  2  0
 14 15  1  0
 16 15  1  1
 16 17  1  0
 17 18  1  0
 18 19  2  0
 16 20  1  0
 20 21  1  6
 20 22  1  0
 22 23  1  0
 23 24  1  0
 24 25  1  0
 25 26  2  0
 26 27  1  0
 27 28  2  0
 28 29  1  0
 29 30  2  0
 27 31  1  0
 31 32  1  0
 31 33  1  0
 31 34  1  0
 14 35  1  0
 35 36  2  0
 36 37  1  0
 18  2  1  0
 30 25  1  0
 37 12  2  0
M  END
$$$$
