
     RDKit          3D

 37 39  0  0  0  0  0  0  0  0999 V2000
  -16.3400  -45.6264   -6.8768 C   0  0  0  0  0  0  0  0  0  0  0  0
  -17.8166  -45.4139   -6.5925 C   0  0  2  0  0  0  0  0  0  0  0  0
  -18.6602  -46.1745   -7.5912 C   0  0  0  0  0  0  0  0  0  0  0  0
  -19.4208  -47.2781   -6.9433 C   0  0  0  0  0  0  0  0  0  0  0  0
  -18.7226  -47.9760   -6.1258 O   0  0  0  0  0  0  0  0  0  0  0  0
  -20.7643  -47.5934   -7.1479 N   0  0  0  0  0  0  0  0  0  0  0  0
  -21.8847  -46.6866   -7.1513 C   0  0  0  0  0  0  0  0  0  0  0  0
  -22.8126  -46.9407   -8.3100 C   0  0  0  0  0  0  0  0  0  0  0  0
  -24.1063  -46.1972   -8.1725 C   0  0  0  0  0  0  0  0  0  0  0  0
  -23.9947  -44.9024   -7.4033 C   0  0  0  0  0  0  0  0  0  0  0  0
  -23.7049  -43.8760   -8.2960 O   0  0  0  0  0  0  0  0  0  0  0  0
  -22.5857  -43.1400   -8.6425 C   0  0  0  0  0  0  0  0  0  0  0  0
  -21.3521  -43.5619   -9.1091 C   0  0  0  0  0  0  0  0  0  0  0  0
  -20.4009  -42.6022   -9.3765 C   0  0  0  0  0  0  0  0  0  0  0  0
  -18.9975  -42.7201   -9.8461 C   0  0  0  0  0  0  0  0  0  0  0  0
  -18.0096  -42.8152   -8.6954 C   0  0  2  0  0  0  0  0  0  0  0  0
  -18.6274  -43.1199   -7.4508 N   0  0  0  0  0  0  0  0  0  0  0  0
  -18.1913  -44.0019   -6.4366 C   0  0  0  0  0  0  0  0  0  0  0  0
  -18.1074  -43.5327   -5.2333 O   0  0  0  0  0  0  0  0  0  0  0  0
  -17.1920  -41.5249   -8.5993 C   0  0  2  0  0  0  0  0  0  0  0  0
  -16.3833  -41.3768   -9.7286 O   0  0  0  0  0  0  0  0  0  0  0  0
  -16.2500  -41.5274   -7.4206 C   0  0  0  0  0  0  0  0  0  0  0  0
  -16.6882  -40.5753   -6.4114 N   0  0  0  0  0  0  0  0  0  0  0  0
  -16.2796  -39.2319   -6.7220 C   0  0  0  0  0  0  0  0  0  0  0  0
  -17.4525  -38.3224   -6.9604 C   0  0  0  0  0  0  0  0  0  0  0  0
  -18.0213  -38.1538   -8.2044 C   0  0  0  0  0  0  0  0  0  0  0  0
  -19.0888  -37.3256   -8.4269 C   0  0  0  0  0  0  0  0  0  0  0  0
  -19.6240  -36.6266   -7.3674 C   0  0  0  0  0  0  0  0  0  0  0  0
  -19.0802  -36.7722   -6.1140 C   0  0  0  0  0  0  0  0  0  0  0  0
  -18.0161  -37.6029   -5.9131 C   0  0  0  0  0  0  0  0  0  0  0  0
  -19.6729  -37.1742   -9.7937 C   0  0  0  0  0  0  0  0  0  0  0  0
  -19.8595  -35.6957  -10.0929 C   0  0  0  0  0  0  0  0  0  0  0  0
  -21.0350  -37.8266   -9.8845 C   0  0  0  0  0  0  0  0  0  0  0  0
  -18.7479  -37.7222  -10.8468 C   0  0  0  0  0  0  0  0  0  0  0  0
  -20.7171  -41.2405   -9.1686 C   0  0  0  0  0  0  0  0  0  0  0  0
  -21.9248  -40.7900   -8.7113 C   0  0  0  0  0  0  0  0  0  0  0  0
  -22.8534  -41.7683   -8.4526 C   0  0  0  0  0  0  0  0  0  0  0  0
  2  1  1  6
  2  3  1  0
  3  4  1  0
  4  5  2  0
  4  6  1  0
  6  7  1  0
  7  8  1  0
  8  9  1  0
  9 10  1  0
 10 11  1  0
 11 12  1  0
 12 13  1  0
 13 14  2  0
 14 15  1  0
 16 15  1  6
 16 17  1  0
 17 18  1  0
 18 19  2  0
 16 20  1  0
 20 21  1  6
 20 22  1  0
 22 23  1  0
 23 24  1  0
 24 25  1  0
 25 26  2  0
 26 27  1  0
 27 28  2  0
 28 29  1  0
 29 30  2  0
 27 31  1  0
 31 32  1  0
 31 33  1  0
 31 34  1  0
 14 35  1  0
 35 36  2  0
 36 37  1  0
 18  2  1  0
 30 25  1  0
 37 12  2  0
M  END
$$$$
