
     RDKit          3D

 37 39  0  0  0  0  0  0  0  0999 V2000
  -16.9974  -43.4393   -9.2774 C   0  0  0  0  0  0  0  0  0  0  0  0
  -18.0091  -43.2346   -8.1635 C   0  0  2  0  0  0  0  0  0  0  0  0
  -19.4148  -43.2351   -8.7219 C   0  0  0  0  0  0  0  0  0  0  0  0
  -20.1948  -44.4123   -8.2509 C   0  0  0  0  0  0  0  0  0  0  0  0
  -19.5485  -45.5176   -8.3106 O   0  0  0  0  0  0  0  0  0  0  0  0
  -21.5061  -44.4040   -7.7749 N   0  0  0  0  0  0  0  0  0  0  0  0
  -22.0774  -43.5079   -6.8011 C   0  0  0  0  0  0  0  0  0  0  0  0
  -23.4235  -42.9889   -7.2334 C   0  0  0  0  0  0  0  0  0  0  0  0
  -24.1412  -42.2837   -6.1231 C   0  0  0  0  0  0  0  0  0  0  0  0
  -23.2266  -41.6250   -5.1180 C   0  0  0  0  0  0  0  0  0  0  0  0
  -22.9658  -40.3244   -5.5363 O   0  0  0  0  0  0  0  0  0  0  0  0
  -21.9070  -39.6592   -6.1286 C   0  0  0  0  0  0  0  0  0  0  0  0
  -21.2522  -39.9123   -7.3222 C   0  0  0  0  0  0  0  0  0  0  0  0
  -20.2118  -39.0818   -7.6759 C   0  0  0  0  0  0  0  0  0  0  0  0
  -19.3013  -39.0995   -8.8483 C   0  0  0  0  0  0  0  0  0  0  0  0
  -18.0442  -39.9136   -8.5909 C   0  0  2  0  0  0  0  0  0  0  0  0
  -18.1480  -40.7587   -7.4513 N   0  0  0  0  0  0  0  0  0  0  0  0
  -17.7057  -42.0913   -7.2922 C   0  0  0  0  0  0  0  0  0  0  0  0
  -16.9511  -42.3519   -6.2735 O   0  0  0  0  0  0  0  0  0  0  0  0
  -16.8334  -38.9847   -8.4751 C   0  0  2  0  0  0  0  0  0  0  0  0
  -16.9487  -37.9216   -9.3739 O   0  0  0  0  0  0  0  0  0  0  0  0
  -15.5406  -39.6783   -8.8276 C   0  0  0  0  0  0  0  0  0  0  0  0
  -14.4182  -39.0469   -8.1503 N   0  0  0  0  0  0  0  0  0  0  0  0
  -13.1656  -39.3365   -8.7948 C   0  0  0  0  0  0  0  0  0  0  0  0
  -13.1743  -38.9569  -10.2493 C   0  0  0  0  0  0  0  0  0  0  0  0
  -13.2533  -37.6487  -10.6755 C   0  0  0  0  0  0  0  0  0  0  0  0
  -13.2629  -37.2981  -11.9992 C   0  0  0  0  0  0  0  0  0  0  0  0
  -13.1907  -38.2892  -12.9532 C   0  0  0  0  0  0  0  0  0  0  0  0
  -13.1109  -39.6038  -12.5616 C   0  0  0  0  0  0  0  0  0  0  0  0
  -13.1028  -39.9325  -11.2370 C   0  0  0  0  0  0  0  0  0  0  0  0
  -13.3498  -35.8656  -12.4146 C   0  0  0  0  0  0  0  0  0  0  0  0
  -12.1968  -35.0967  -11.7903 C   0  0  0  0  0  0  0  0  0  0  0  0
  -14.6321  -35.2285  -11.9255 C   0  0  0  0  0  0  0  0  0  0  0  0
  -13.2178  -35.7206  -13.9068 C   0  0  0  0  0  0  0  0  0  0  0  0
  -19.8579  -38.0154   -6.8185 C   0  0  0  0  0  0  0  0  0  0  0  0
  -20.4843  -37.7367   -5.6351 C   0  0  0  0  0  0  0  0  0  0  0  0
  -21.5170  -38.5807   -5.3076 C   0  0  0  0  0  0  0  0  0  0  0  0
  2  1  1  6
  2  3  1  0
  3  4  1  0
  4  5  2  0
  4  6  1  0
  6  7  1  0
  7  8  1  0
  8  9  1  0
  9 10  1  0
 10 11  1  0
 11 12  1  0
 12 13  1  0
 13 14  2  0
 14 15  1  0
 16 15  1  1
 16 17  1  0
 17 18  1  0
 18 19  2  0
 16 20  1  0
 20 21  1  6
 20 22  1  0
 22 23  1  0
 23 24  1  0
 24 25  1  0
 25 26  2  0
 26 27  1  0
 27 28  2  0
 28 29  1  0
 29 30  2  0
 27 31  1  0
 31 32  1  0
 31 33  1  0
 31 34  1  0
 14 35  1  0
 35 36  2  0
 36 37  1  0
 18  2  1  0
 30 25  1  0
 37 12  2  0
M  END
$$$$
