
     RDKit          3D

 37 39  0  0  0  0  0  0  0  0999 V2000
  -17.2182  -43.9559   -9.4462 C   0  0  0  0  0  0  0  0  0  0  0  0
  -18.2675  -43.6535   -8.3908 C   0  0  2  0  0  0  0  0  0  0  0  0
  -19.6147  -43.4229   -9.0385 C   0  0  0  0  0  0  0  0  0  0  0  0
  -20.5876  -44.4921   -8.6828 C   0  0  0  0  0  0  0  0  0  0  0  0
  -20.1042  -45.6767   -8.7598 O   0  0  0  0  0  0  0  0  0  0  0  0
  -21.9150  -44.3119   -8.2931 N   0  0  0  0  0  0  0  0  0  0  0  0
  -22.4202  -43.3848   -7.3119 C   0  0  0  0  0  0  0  0  0  0  0  0
  -23.6431  -42.6552   -7.8020 C   0  0  0  0  0  0  0  0  0  0  0  0
  -24.3301  -41.9013   -6.7043 C   0  0  0  0  0  0  0  0  0  0  0  0
  -23.4051  -41.4288   -5.6082 C   0  0  0  0  0  0  0  0  0  0  0  0
  -22.9307  -40.1636   -5.9383 O   0  0  0  0  0  0  0  0  0  0  0  0
  -21.7475  -39.6361   -6.4241 C   0  0  0  0  0  0  0  0  0  0  0  0
  -21.0516  -39.9304   -7.5846 C   0  0  0  0  0  0  0  0  0  0  0  0
  -19.8800  -39.2472   -7.8251 C   0  0  0  0  0  0  0  0  0  0  0  0
  -18.8994  -39.3474   -8.9352 C   0  0  0  0  0  0  0  0  0  0  0  0
  -17.7942  -40.3479   -8.6408 C   0  0  2  0  0  0  0  0  0  0  0  0
  -18.1001  -41.2175   -7.5574 N   0  0  0  0  0  0  0  0  0  0  0  0
  -17.8664  -42.6063   -7.4416 C   0  0  0  0  0  0  0  0  0  0  0  0
  -17.2324  -43.0192   -6.3916 O   0  0  0  0  0  0  0  0  0  0  0  0
  -16.4740  -39.6130   -8.3971 C   0  0  2  0  0  0  0  0  0  0  0  0
  -16.5381  -38.3154   -8.9102 O   0  0  0  0  0  0  0  0  0  0  0  0
  -15.3113  -40.2717   -9.0978 C   0  0  0  0  0  0  0  0  0  0  0  0
  -14.1057  -40.1804   -8.2883 N   0  0  0  0  0  0  0  0  0  0  0  0
  -13.3456  -38.9955   -8.5822 C   0  0  0  0  0  0  0  0  0  0  0  0
  -13.1222  -38.8156  -10.0578 C   0  0  0  0  0  0  0  0  0  0  0  0
  -12.9976  -37.5749  -10.6448 C   0  0  0  0  0  0  0  0  0  0  0  0
  -12.7953  -37.4059  -11.9885 C   0  0  0  0  0  0  0  0  0  0  0  0
  -12.7113  -38.5185  -12.7964 C   0  0  0  0  0  0  0  0  0  0  0  0
  -12.8313  -39.7702  -12.2426 C   0  0  0  0  0  0  0  0  0  0  0  0
  -13.0327  -39.9173  -10.9007 C   0  0  0  0  0  0  0  0  0  0  0  0
  -12.6661  -36.0405  -12.5810 C   0  0  0  0  0  0  0  0  0  0  0  0
  -13.5774  -35.9369  -13.7930 C   0  0  0  0  0  0  0  0  0  0  0  0
  -11.2537  -35.7794  -13.0569 C   0  0  0  0  0  0  0  0  0  0  0  0
  -13.1059  -34.9793  -11.6086 C   0  0  0  0  0  0  0  0  0  0  0  0
  -19.4392  -38.2829   -6.8905 C   0  0  0  0  0  0  0  0  0  0  0  0
  -20.1025  -37.9670   -5.7370 C   0  0  0  0  0  0  0  0  0  0  0  0
  -21.2667  -38.6636   -5.5229 C   0  0  0  0  0  0  0  0  0  0  0  0
  2  1  1  6
  2  3  1  0
  3  4  1  0
  4  5  2  0
  4  6  1  0
  6  7  1  0
  7  8  1  0
  8  9  1  0
  9 10  1  0
 10 11  1  0
 11 12  1  0
 12 13  1  0
 13 14  2  0
 14 15  1  0
 16 15  1  1
 16 17  1  0
 17 18  1  0
 18 19  2  0
 16 20  1  0
 20 21  1  6
 20 22  1  0
 22 23  1  0
 23 24  1  0
 24 25  1  0
 25 26  2  0
 26 27  1  0
 27 28  2  0
 28 29  1  0
 29 30  2  0
 27 31  1  0
 31 32  1  0
 31 33  1  0
 31 34  1  0
 14 35  1  0
 35 36  2  0
 36 37  1  0
 18  2  1  0
 30 25  1  0
 37 12  2  0
M  END
$$$$
