
     RDKit          3D

 37 39  0  0  0  0  0  0  0  0999 V2000
  -16.8305  -43.4737   -9.7352 C   0  0  0  0  0  0  0  0  0  0  0  0
  -17.5261  -42.4092  -10.5654 C   0  0  2  0  0  0  0  0  0  0  0  0
  -16.5716  -41.8296  -11.5856 C   0  0  0  0  0  0  0  0  0  0  0  0
  -16.9771  -42.1716  -12.9766 C   0  0  0  0  0  0  0  0  0  0  0  0
  -17.3119  -43.3993  -13.1299 O   0  0  0  0  0  0  0  0  0  0  0  0
  -17.0179  -41.3032  -14.0677 N   0  0  0  0  0  0  0  0  0  0  0  0
  -17.5976  -39.9844  -14.1146 C   0  0  0  0  0  0  0  0  0  0  0  0
  -16.6893  -38.9927  -14.7924 C   0  0  0  0  0  0  0  0  0  0  0  0
  -17.3849  -37.6991  -15.0892 C   0  0  0  0  0  0  0  0  0  0  0  0
  -18.4920  -37.3579  -14.1205 C   0  0  0  0  0  0  0  0  0  0  0  0
  -17.9548  -36.6224  -13.0692 O   0  0  0  0  0  0  0  0  0  0  0  0
  -17.6106  -36.8682  -11.7519 C   0  0  0  0  0  0  0  0  0  0  0  0
  -16.7391  -37.8031  -11.2188 C   0  0  0  0  0  0  0  0  0  0  0  0
  -16.5837  -37.8336   -9.8506 C   0  0  0  0  0  0  0  0  0  0  0  0
  -15.7698  -38.7169   -8.9780 C   0  0  0  0  0  0  0  0  0  0  0  0
  -16.5385  -39.9462   -8.5230 C   0  0  2  0  0  0  0  0  0  0  0  0
  -17.7196  -40.1802   -9.2805 N   0  0  0  0  0  0  0  0  0  0  0  0
  -18.2359  -41.4039   -9.7629 C   0  0  0  0  0  0  0  0  0  0  0  0
  -19.4662  -41.6864   -9.4772 O   0  0  0  0  0  0  0  0  0  0  0  0
  -16.8576  -39.8412   -7.0299 C   0  0  2  0  0  0  0  0  0  0  0  0
  -15.7129  -40.0911   -6.2694 O   0  0  0  0  0  0  0  0  0  0  0  0
  -17.8738  -40.8642   -6.5856 C   0  0  0  0  0  0  0  0  0  0  0  0
  -17.3539  -41.6589   -5.4832 N   0  0  0  0  0  0  0  0  0  0  0  0
  -17.8965  -42.9906   -5.4737 C   0  0  0  0  0  0  0  0  0  0  0  0
  -19.3791  -42.9980   -5.2255 C   0  0  0  0  0  0  0  0  0  0  0  0
  -19.9566  -42.3504   -4.1547 C   0  0  0  0  0  0  0  0  0  0  0  0
  -21.3063  -42.3553   -3.9236 C   0  0  0  0  0  0  0  0  0  0  0  0
  -22.1304  -43.0345   -4.7938 C   0  0  0  0  0  0  0  0  0  0  0  0
  -21.5864  -43.6907   -5.8714 C   0  0  0  0  0  0  0  0  0  0  0  0
  -20.2383  -43.6737   -6.0842 C   0  0  0  0  0  0  0  0  0  0  0  0
  -21.8879  -41.6386   -2.7489 C   0  0  0  0  0  0  0  0  0  0  0  0
  -23.4000  -41.7916   -2.7728 C   0  0  0  0  0  0  0  0  0  0  0  0
  -21.5851  -40.1572   -2.8040 C   0  0  0  0  0  0  0  0  0  0  0  0
  -21.4066  -42.2334   -1.4529 C   0  0  0  0  0  0  0  0  0  0  0  0
  -17.3094  -36.9198   -9.0531 C   0  0  0  0  0  0  0  0  0  0  0  0
  -18.1757  -35.9837   -9.5468 C   0  0  0  0  0  0  0  0  0  0  0  0
  -18.3113  -35.9763  -10.9134 C   0  0  0  0  0  0  0  0  0  0  0  0
  2  1  1  1
  2  3  1  0
  3  4  1  0
  4  5  2  0
  4  6  1  0
  6  7  1  0
  7  8  1  0
  8  9  1  0
  9 10  1  0
 10 11  1  0
 11 12  1  0
 12 13  1  0
 13 14  2  0
 14 15  1  0
 16 15  1  6
 16 17  1  0
 17 18  1  0
 18 19  2  0
 16 20  1  0
 20 21  1  1
 20 22  1  0
 22 23  1  0
 23 24  1  0
 24 25  1  0
 25 26  2  0
 26 27  1  0
 27 28  2  0
 28 29  1  0
 29 30  2  0
 27 31  1  0
 31 32  1  0
 31 33  1  0
 31 34  1  0
 14 35  1  0
 35 36  2  0
 36 37  1  0
 18  2  1  0
 30 25  1  0
 37 12  2  0
M  END
$$$$
