
     RDKit          3D

 37 39  0  0  0  0  0  0  0  0999 V2000
  -16.9421  -43.5028   -8.9810 C   0  0  0  0  0  0  0  0  0  0  0  0
  -17.9421  -43.3608   -7.8470 C   0  0  2  0  0  0  0  0  0  0  0  0
  -19.3530  -43.5324   -8.3641 C   0  0  0  0  0  0  0  0  0  0  0  0
  -19.9912  -44.7652   -7.8263 C   0  0  0  0  0  0  0  0  0  0  0  0
  -19.2323  -45.7976   -7.8626 O   0  0  0  0  0  0  0  0  0  0  0  0
  -21.2838  -44.8760   -7.3134 N   0  0  0  0  0  0  0  0  0  0  0  0
  -21.9232  -44.0061   -6.3583 C   0  0  0  0  0  0  0  0  0  0  0  0
  -23.3272  -43.6503   -6.7709 C   0  0  0  0  0  0  0  0  0  0  0  0
  -24.0884  -42.9800   -5.6680 C   0  0  0  0  0  0  0  0  0  0  0  0
  -23.2247  -42.1880   -4.7155 C   0  0  0  0  0  0  0  0  0  0  0  0
  -23.1146  -40.8853   -5.1904 O   0  0  0  0  0  0  0  0  0  0  0  0
  -22.1477  -40.1368   -5.8378 C   0  0  0  0  0  0  0  0  0  0  0  0
  -21.4993  -40.3679   -7.0394 C   0  0  0  0  0  0  0  0  0  0  0  0
  -20.5624  -39.4473   -7.4543 C   0  0  0  0  0  0  0  0  0  0  0  0
  -19.6844  -39.4167   -8.6510 C   0  0  0  0  0  0  0  0  0  0  0  0
  -18.3417  -40.0823   -8.3992 C   0  0  2  0  0  0  0  0  0  0  0  0
  -18.3266  -40.8863   -7.2258 N   0  0  0  0  0  0  0  0  0  0  0  0
  -17.7409  -42.1571   -7.0289 C   0  0  0  0  0  0  0  0  0  0  0  0
  -16.9379  -42.2947   -6.0233 O   0  0  0  0  0  0  0  0  0  0  0  0
  -17.2344  -39.0267   -8.3538 C   0  0  2  0  0  0  0  0  0  0  0  0
  -17.2437  -38.2620   -9.5227 O   0  0  0  0  0  0  0  0  0  0  0  0
  -15.8578  -39.6401   -8.2787 C   0  0  0  0  0  0  0  0  0  0  0  0
  -14.8324  -38.6227   -8.4533 N   0  0  0  0  0  0  0  0  0  0  0  0
  -13.8332  -39.0206   -9.4080 C   0  0  0  0  0  0  0  0  0  0  0  0
  -13.9680  -38.2840  -10.7114 C   0  0  0  0  0  0  0  0  0  0  0  0
  -14.5958  -37.0612  -10.8126 C   0  0  0  0  0  0  0  0  0  0  0  0
  -14.7222  -36.3870  -11.9978 C   0  0  0  0  0  0  0  0  0  0  0  0
  -14.2024  -36.9476  -13.1437 C   0  0  0  0  0  0  0  0  0  0  0  0
  -13.5703  -38.1657  -13.0772 C   0  0  0  0  0  0  0  0  0  0  0  0
  -13.4547  -38.8218  -11.8860 C   0  0  0  0  0  0  0  0  0  0  0  0
  -15.4113  -35.0629  -12.0595 C   0  0  0  0  0  0  0  0  0  0  0  0
  -15.3615  -34.5433  -13.4870 C   0  0  0  0  0  0  0  0  0  0  0  0
  -14.7178  -34.0413  -11.1849 C   0  0  0  0  0  0  0  0  0  0  0  0
  -16.8643  -35.1853  -11.6870 C   0  0  0  0  0  0  0  0  0  0  0  0
  -20.3033  -38.3154   -6.6487 C   0  0  0  0  0  0  0  0  0  0  0  0
  -20.9264  -38.0561   -5.4591 C   0  0  0  0  0  0  0  0  0  0  0  0
  -21.8548  -38.9905   -5.0700 C   0  0  0  0  0  0  0  0  0  0  0  0
  2  1  1  6
  2  3  1  0
  3  4  1  0
  4  5  2  0
  4  6  1  0
  6  7  1  0
  7  8  1  0
  8  9  1  0
  9 10  1  0
 10 11  1  0
 11 12  1  0
 12 13  1  0
 13 14  2  0
 14 15  1  0
 16 15  1  1
 16 17  1  0
 17 18  1  0
 18 19  2  0
 16 20  1  0
 20 21  1  6
 20 22  1  0
 22 23  1  0
 23 24  1  0
 24 25  1  0
 25 26  2  0
 26 27  1  0
 27 28  2  0
 28 29  1  0
 29 30  2  0
 27 31  1  0
 31 32  1  0
 31 33  1  0
 31 34  1  0
 14 35  1  0
 35 36  2  0
 36 37  1  0
 18  2  1  0
 30 25  1  0
 37 12  2  0
M  END
$$$$
