
     RDKit          3D

 37 39  0  0  0  0  0  0  0  0999 V2000
  -18.3051  -44.7582   -7.2177 C   0  0  0  0  0  0  0  0  0  0  0  0
  -17.8828  -44.5955   -8.6674 C   0  0  2  0  0  0  0  0  0  0  0  0
  -16.3939  -44.8200   -8.8107 C   0  0  0  0  0  0  0  0  0  0  0  0
  -16.0947  -46.0454   -9.6012 C   0  0  0  0  0  0  0  0  0  0  0  0
  -16.8033  -47.0604   -9.2686 O   0  0  0  0  0  0  0  0  0  0  0  0
  -15.1517  -46.1662  -10.6222 N   0  0  0  0  0  0  0  0  0  0  0  0
  -14.9507  -45.2750  -11.7370 C   0  0  0  0  0  0  0  0  0  0  0  0
  -13.4930  -44.9683  -11.9584 C   0  0  0  0  0  0  0  0  0  0  0  0
  -13.2529  -44.2735  -13.2641 C   0  0  0  0  0  0  0  0  0  0  0  0
  -14.4108  -43.4251  -13.7332 C   0  0  0  0  0  0  0  0  0  0  0  0
  -14.2576  -42.1397  -13.2244 O   0  0  0  0  0  0  0  0  0  0  0  0
  -14.8249  -41.3946  -12.2059 C   0  0  0  0  0  0  0  0  0  0  0  0
  -14.9043  -41.6571  -10.8486 C   0  0  0  0  0  0  0  0  0  0  0  0
  -15.5376  -40.7319  -10.0485 C   0  0  0  0  0  0  0  0  0  0  0  0
  -15.8165  -40.7274   -8.5904 C   0  0  0  0  0  0  0  0  0  0  0  0
  -17.1616  -41.3512   -8.2579 C   0  0  2  0  0  0  0  0  0  0  0  0
  -17.7083  -42.1083   -9.3310 N   0  0  0  0  0  0  0  0  0  0  0  0
  -18.3694  -43.3565   -9.2892 C   0  0  0  0  0  0  0  0  0  0  0  0
  -19.5303  -43.4361   -9.8557 O   0  0  0  0  0  0  0  0  0  0  0  0
  -18.1409  -40.2691   -7.7968 C   0  0  2  0  0  0  0  0  0  0  0  0
  -17.4507  -39.2109   -7.2010 O   0  0  0  0  0  0  0  0  0  0  0  0
  -19.1013  -40.7720   -6.7473 C   0  0  0  0  0  0  0  0  0  0  0  0
  -19.8968  -41.8744   -7.2656 N   0  0  0  0  0  0  0  0  0  0  0  0
  -20.9825  -41.4167   -8.0902 C   0  0  0  0  0  0  0  0  0  0  0  0
  -21.8057  -40.3590   -7.4096 C   0  0  0  0  0  0  0  0  0  0  0  0
  -21.9083  -40.2650   -6.0384 C   0  0  0  0  0  0  0  0  0  0  0  0
  -22.6579  -39.3042   -5.4139 C   0  0  0  0  0  0  0  0  0  0  0  0
  -23.3426  -38.3876   -6.1812 C   0  0  0  0  0  0  0  0  0  0  0  0
  -23.2614  -38.4537   -7.5512 C   0  0  0  0  0  0  0  0  0  0  0  0
  -22.5087  -39.4192   -8.1546 C   0  0  0  0  0  0  0  0  0  0  0  0
  -22.7396  -39.2408   -3.9234 C   0  0  0  0  0  0  0  0  0  0  0  0
  -21.4728  -38.5974   -3.3837 C   0  0  0  0  0  0  0  0  0  0  0  0
  -22.8337  -40.6247   -3.3190 C   0  0  0  0  0  0  0  0  0  0  0  0
  -23.8928  -38.3838   -3.4755 C   0  0  0  0  0  0  0  0  0  0  0  0
  -16.0739  -39.5636  -10.6361 C   0  0  0  0  0  0  0  0  0  0  0  0
  -16.0112  -39.2729  -11.9710 C   0  0  0  0  0  0  0  0  0  0  0  0
  -15.3750  -40.2127  -12.7444 C   0  0  0  0  0  0  0  0  0  0  0  0
  2  1  1  1
  2  3  1  0
  3  4  1  0
  4  5  2  0
  4  6  1  0
  6  7  1  0
  7  8  1  0
  8  9  1  0
  9 10  1  0
 10 11  1  0
 11 12  1  0
 12 13  1  0
 13 14  2  0
 14 15  1  0
 16 15  1  6
 16 17  1  0
 17 18  1  0
 18 19  2  0
 16 20  1  0
 20 21  1  1
 20 22  1  0
 22 23  1  0
 23 24  1  0
 24 25  1  0
 25 26  2  0
 26 27  1  0
 27 28  2  0
 28 29  1  0
 29 30  2  0
 27 31  1  0
 31 32  1  0
 31 33  1  0
 31 34  1  0
 14 35  1  0
 35 36  2  0
 36 37  1  0
 18  2  1  0
 30 25  1  0
 37 12  2  0
M  END
$$$$
