
     RDKit          3D

 37 39  0  0  0  0  0  0  0  0999 V2000
  -15.6804  -43.3405   -9.2324 C   0  0  0  0  0  0  0  0  0  0  0  0
  -15.2492  -42.4863  -10.4116 C   0  0  2  0  0  0  0  0  0  0  0  0
  -13.7404  -42.4480  -10.5105 C   0  0  0  0  0  0  0  0  0  0  0  0
  -13.2507  -43.1335  -11.7379 C   0  0  0  0  0  0  0  0  0  0  0  0
  -13.8164  -44.2622  -11.9595 O   0  0  0  0  0  0  0  0  0  0  0  0
  -12.2748  -42.6655  -12.6181 N   0  0  0  0  0  0  0  0  0  0  0  0
  -12.1744  -41.3471  -13.1917 C   0  0  0  0  0  0  0  0  0  0  0  0
  -10.7697  -40.8080  -13.1243 C   0  0  0  0  0  0  0  0  0  0  0  0
  -10.5979  -39.5711  -13.9524 C   0  0  0  0  0  0  0  0  0  0  0  0
  -11.8523  -38.7413  -14.0891 C   0  0  0  0  0  0  0  0  0  0  0  0
  -11.8957  -37.8222  -13.0460 O   0  0  0  0  0  0  0  0  0  0  0  0
  -12.5882  -37.6953  -11.8550 C   0  0  0  0  0  0  0  0  0  0  0  0
  -12.6636  -38.5560  -10.7728 C   0  0  0  0  0  0  0  0  0  0  0  0
  -13.4415  -38.1779   -9.7008 C   0  0  0  0  0  0  0  0  0  0  0  0
  -13.7547  -38.8720   -8.4264 C   0  0  0  0  0  0  0  0  0  0  0  0
  -15.0058  -39.7286   -8.5278 C   0  0  2  0  0  0  0  0  0  0  0  0
  -15.4125  -39.9691   -9.8696 N   0  0  0  0  0  0  0  0  0  0  0  0
  -15.8908  -41.1652  -10.4504 C   0  0  0  0  0  0  0  0  0  0  0  0
  -17.0141  -41.1099  -11.0908 O   0  0  0  0  0  0  0  0  0  0  0  0
  -16.1398  -39.0971   -7.7169 C   0  0  2  0  0  0  0  0  0  0  0  0
  -15.6833  -38.7263   -6.4499 O   0  0  0  0  0  0  0  0  0  0  0  0
  -17.2781  -40.0576   -7.4753 C   0  0  0  0  0  0  0  0  0  0  0  0
  -18.5025  -39.3350   -7.1658 N   0  0  0  0  0  0  0  0  0  0  0  0
  -19.5575  -40.2156   -6.7420 C   0  0  0  0  0  0  0  0  0  0  0  0
  -20.8204  -40.0097   -7.5309 C   0  0  0  0  0  0  0  0  0  0  0  0
  -21.1310  -38.8115   -8.1371 C   0  0  0  0  0  0  0  0  0  0  0  0
  -22.2806  -38.6186   -8.8556 C   0  0  0  0  0  0  0  0  0  0  0  0
  -23.1712  -39.6617   -8.9835 C   0  0  0  0  0  0  0  0  0  0  0  0
  -22.8915  -40.8696   -8.3913 C   0  0  0  0  0  0  0  0  0  0  0  0
  -21.7399  -41.0416   -7.6792 C   0  0  0  0  0  0  0  0  0  0  0  0
  -22.5754  -37.3013   -9.4957 C   0  0  0  0  0  0  0  0  0  0  0  0
  -23.9229  -36.8001   -9.0024 C   0  0  0  0  0  0  0  0  0  0  0  0
  -22.6671  -37.4298  -11.0005 C   0  0  0  0  0  0  0  0  0  0  0  0
  -21.5536  -36.2658   -9.1102 C   0  0  0  0  0  0  0  0  0  0  0  0
  -14.1232  -36.9406   -9.7452 C   0  0  0  0  0  0  0  0  0  0  0  0
  -14.0689  -36.0672  -10.7963 C   0  0  0  0  0  0  0  0  0  0  0  0
  -13.2866  -36.4699  -11.8508 C   0  0  0  0  0  0  0  0  0  0  0  0
  2  1  1  1
  2  3  1  0
  3  4  1  0
  4  5  2  0
  4  6  1  0
  6  7  1  0
  7  8  1  0
  8  9  1  0
  9 10  1  0
 10 11  1  0
 11 12  1  0
 12 13  1  0
 13 14  2  0
 14 15  1  0
 16 15  1  6
 16 17  1  0
 17 18  1  0
 18 19  2  0
 16 20  1  0
 20 21  1  1
 20 22  1  0
 22 23  1  0
 23 24  1  0
 24 25  1  0
 25 26  2  0
 26 27  1  0
 27 28  2  0
 28 29  1  0
 29 30  2  0
 27 31  1  0
 31 32  1  0
 31 33  1  0
 31 34  1  0
 14 35  1  0
 35 36  2  0
 36 37  1  0
 18  2  1  0
 30 25  1  0
 37 12  2  0
M  END
$$$$
