
     RDKit          3D

 37 39  0  0  0  0  0  0  0  0999 V2000
  -16.6435  -42.7510   -9.2140 C   0  0  0  0  0  0  0  0  0  0  0  0
  -16.0065  -42.1984  -10.4770 C   0  0  2  0  0  0  0  0  0  0  0  0
  -14.5275  -42.5140  -10.5024 C   0  0  0  0  0  0  0  0  0  0  0  0
  -14.1854  -43.4651  -11.5955 C   0  0  0  0  0  0  0  0  0  0  0  0
  -14.9904  -44.4584  -11.6865 O   0  0  0  0  0  0  0  0  0  0  0  0
  -13.1122  -43.3625  -12.4808 N   0  0  0  0  0  0  0  0  0  0  0  0
  -12.7018  -42.1993  -13.2265 C   0  0  0  0  0  0  0  0  0  0  0  0
  -11.2125  -41.9847  -13.1626 C   0  0  0  0  0  0  0  0  0  0  0  0
  -10.7466  -40.9537  -14.1450 C   0  0  0  0  0  0  0  0  0  0  0  0
  -11.7748  -39.8934  -14.4603 C   0  0  0  0  0  0  0  0  0  0  0  0
  -11.6257  -38.8445  -13.5591 O   0  0  0  0  0  0  0  0  0  0  0  0
  -12.2925  -38.3916  -12.4347 C   0  0  0  0  0  0  0  0  0  0  0  0
  -12.5830  -39.0444  -11.2484 C   0  0  0  0  0  0  0  0  0  0  0  0
  -13.2732  -38.3480  -10.2811 C   0  0  0  0  0  0  0  0  0  0  0  0
  -13.7605  -38.7587   -8.9403 C   0  0  0  0  0  0  0  0  0  0  0  0
  -15.1725  -39.3186   -8.9857 C   0  0  2  0  0  0  0  0  0  0  0  0
  -15.5987  -39.6569  -10.2999 N   0  0  0  0  0  0  0  0  0  0  0  0
  -16.3275  -40.7877  -10.7324 C   0  0  0  0  0  0  0  0  0  0  0  0
  -17.3963  -40.5772  -11.4312 O   0  0  0  0  0  0  0  0  0  0  0  0
  -16.1464  -38.3367   -8.3301 C   0  0  2  0  0  0  0  0  0  0  0  0
  -15.7774  -38.0984   -7.0041 O   0  0  0  0  0  0  0  0  0  0  0  0
  -17.5543  -38.8762   -8.2710 C   0  0  0  0  0  0  0  0  0  0  0  0
  -18.2213  -38.4377   -7.0545 N   0  0  0  0  0  0  0  0  0  0  0  0
  -18.7981  -39.5367   -6.3281 C   0  0  0  0  0  0  0  0  0  0  0  0
  -20.0189  -40.0893   -7.0092 C   0  0  0  0  0  0  0  0  0  0  0  0
  -21.2448  -40.1725   -6.3848 C   0  0  0  0  0  0  0  0  0  0  0  0
  -22.3593  -40.6763   -7.0006 C   0  0  0  0  0  0  0  0  0  0  0  0
  -22.2604  -41.1216   -8.3004 C   0  0  0  0  0  0  0  0  0  0  0  0
  -21.0525  -41.0527   -8.9516 C   0  0  0  0  0  0  0  0  0  0  0  0
  -19.9532  -40.5471   -8.3201 C   0  0  0  0  0  0  0  0  0  0  0  0
  -23.6682  -40.7468   -6.2838 C   0  0  0  0  0  0  0  0  0  0  0  0
  -24.7926  -40.7844   -7.3058 C   0  0  0  0  0  0  0  0  0  0  0  0
  -23.8876  -39.5249   -5.4189 C   0  0  0  0  0  0  0  0  0  0  0  0
  -23.7758  -42.0055   -5.4657 C   0  0  0  0  0  0  0  0  0  0  0  0
  -13.6523  -37.0098  -10.5324 C   0  0  0  0  0  0  0  0  0  0  0  0
  -13.3800  -36.3354  -11.6907 C   0  0  0  0  0  0  0  0  0  0  0  0
  -12.6916  -37.0540  -12.6372 C   0  0  0  0  0  0  0  0  0  0  0  0
  2  1  1  1
  2  3  1  0
  3  4  1  0
  4  5  2  0
  4  6  1  0
  6  7  1  0
  7  8  1  0
  8  9  1  0
  9 10  1  0
 10 11  1  0
 11 12  1  0
 12 13  1  0
 13 14  2  0
 14 15  1  0
 16 15  1  6
 16 17  1  0
 17 18  1  0
 18 19  2  0
 16 20  1  0
 20 21  1  1
 20 22  1  0
 22 23  1  0
 23 24  1  0
 24 25  1  0
 25 26  2  0
 26 27  1  0
 27 28  2  0
 28 29  1  0
 29 30  2  0
 27 31  1  0
 31 32  1  0
 31 33  1  0
 31 34  1  0
 14 35  1  0
 35 36  2  0
 36 37  1  0
 18  2  1  0
 30 25  1  0
 37 12  2  0
M  END
$$$$
