
     RDKit          3D

 40 42  0  0  0  0  0  0  0  0999 V2000
  -23.9507  -40.5118  -10.7505 C   0  0  0  0  0  0  0  0  0  0  0  0
  -23.3433  -40.8212   -9.3900 C   0  0  0  0  0  0  0  0  0  0  0  0
  -23.5616  -42.2624   -9.0170 C   0  0  0  0  0  0  0  0  0  0  0  0
  -23.0180  -42.6276   -7.7446 N   0  0  0  0  0  0  0  0  0  0  0  0
  -21.6844  -43.0967   -7.6249 C   0  0  0  0  0  0  0  0  0  0  0  0
  -21.3939  -44.3842   -7.2667 C   0  0  0  0  0  0  0  0  0  0  0  0
  -20.0644  -44.7743   -7.1512 C   0  0  0  0  0  0  0  0  0  0  0  0
  -19.7044  -46.1625   -6.7649 C   0  0  0  0  0  0  0  0  0  0  0  0
  -19.7401  -46.3328   -5.3994 O   0  0  0  0  0  0  0  0  0  0  0  0
  -20.3315  -45.2644   -4.7514 C   0  0  0  0  0  0  0  0  0  0  0  0
  -19.0367  -43.8594   -7.3994 C   0  0  0  0  0  0  0  0  0  0  0  0
  -19.3037  -42.5626   -7.7602 C   0  0  0  0  0  0  0  0  0  0  0  0
  -20.6222  -42.2032   -7.8667 C   0  0  0  0  0  0  0  0  0  0  0  0
  -18.2709  -41.5768   -8.0323 C   0  0  0  0  0  0  0  0  0  0  0  0
  -17.8790  -41.3928   -9.2325 O   0  0  0  0  0  0  0  0  0  0  0  0
  -17.6315  -40.7697   -7.0581 N   0  0  0  0  0  0  0  0  0  0  0  0
  -17.2304  -39.3953   -7.3257 C   0  0  1  0  0  0  0  0  0  0  0  0
  -18.0894  -38.3948   -6.6453 C   0  0  0  0  0  0  0  0  0  0  0  0
  -19.4916  -38.3896   -7.0567 C   0  0  0  0  0  0  0  0  0  0  0  0
  -19.8205  -38.0938   -8.3534 C   0  0  0  0  0  0  0  0  0  0  0  0
  -21.1273  -38.0638   -8.8408 C   0  0  0  0  0  0  0  0  0  0  0  0
  -22.1015  -38.3591   -7.9118 C   0  0  0  0  0  0  0  0  0  0  0  0
  -21.7926  -38.6607   -6.5966 C   0  0  0  0  0  0  0  0  0  0  0  0
  -20.4881  -38.6783   -6.1572 C   0  0  0  0  0  0  0  0  0  0  0  0
  -21.3941  -37.7567  -10.1639 O   0  0  0  0  0  0  0  0  0  0  0  0
  -22.6882  -37.3910  -10.5786 C   0  0  0  0  0  0  0  0  0  0  0  0
  -15.7389  -39.1975   -7.1033 C   0  0  2  0  0  0  0  0  0  0  0  0
  -15.5355  -37.8150   -7.2165 O   0  0  0  0  0  0  0  0  0  0  0  0
  -14.9966  -39.8149   -8.2725 C   0  0  0  0  0  0  0  0  0  0  0  0
  -13.7465  -39.1610   -8.5729 N   0  0  0  0  0  0  0  0  0  0  0  0
  -12.6060  -39.9566   -8.1557 C   0  0  0  0  0  0  0  0  0  0  0  0
  -12.4480  -41.1527   -9.0468 C   0  0  0  0  0  0  0  0  0  0  0  0
  -11.2338  -41.8124   -9.1145 C   0  0  0  0  0  0  0  0  0  0  0  0
  -11.0435  -42.9115   -9.9177 C   0  0  0  0  0  0  0  0  0  0  0  0
  -12.0866  -43.3803  -10.6841 C   0  0  0  0  0  0  0  0  0  0  0  0
  -13.3157  -42.7267  -10.6272 C   0  0  0  0  0  0  0  0  0  0  0  0
  -13.4844  -41.6278   -9.8160 C   0  0  0  0  0  0  0  0  0  0  0  0
   -9.7336  -43.6037   -9.9687 C   0  0  0  0  0  0  0  0  0  0  0  0
   -9.8846  -45.0869  -10.1092 C   0  0  0  0  0  0  0  0  0  0  0  0
   -9.0098  -43.2431   -8.6782 C   0  0  0  0  0  0  0  0  0  0  0  0
  1  2  1  0
  2  3  1  0
  3  4  1  0
  4  5  1  0
  5  6  2  0
  6  7  1  0
  7  8  1  0
  8  9  1  0
  9 10  1  0
  7 11  2  0
 11 12  1  0
 12 13  2  0
 12 14  1  0
 14 15  2  0
 14 16  1  0
 16 17  1  0
 17 18  1  1
 18 19  1  0
 19 20  2  0
 20 21  1  0
 21 22  2  0
 22 23  1  0
 23 24  2  0
 21 25  1  0
 25 26  1  0
 17 27  1  0
 27 28  1  6
 27 29  1  0
 29 30  1  0
 30 31  1  0
 31 32  1  0
 32 33  2  0
 33 34  1  0
 34 35  2  0
 35 36  1  0
 36 37  2  0
 34 38  1  0
 38 39  1  0
 38 40  1  0
 13  5  1  0
 24 19  1  0
 37 32  1  0
M  END
$$$$
