
     RDKit          3D

 40 42  0  0  0  0  0  0  0  0999 V2000
  -21.8243  -35.0022  -14.1170 C   0  0  0  0  0  0  0  0  0  0  0  0
  -21.4161  -36.4000  -14.5588 C   0  0  0  0  0  0  0  0  0  0  0  0
  -20.9036  -37.2052  -13.3958 C   0  0  0  0  0  0  0  0  0  0  0  0
  -21.7734  -38.2661  -12.9884 N   0  0  0  0  0  0  0  0  0  0  0  0
  -21.4701  -39.0693  -11.8589 C   0  0  0  0  0  0  0  0  0  0  0  0
  -22.4046  -39.8693  -11.2612 C   0  0  0  0  0  0  0  0  0  0  0  0
  -22.0452  -40.6186  -10.1465 C   0  0  0  0  0  0  0  0  0  0  0  0
  -23.0284  -41.5003   -9.4671 C   0  0  0  0  0  0  0  0  0  0  0  0
  -23.6538  -40.8524   -8.4259 O   0  0  0  0  0  0  0  0  0  0  0  0
  -24.8251  -40.2326   -8.8196 C   0  0  0  0  0  0  0  0  0  0  0  0
  -20.7423  -40.5543   -9.6435 C   0  0  0  0  0  0  0  0  0  0  0  0
  -19.7877  -39.7591  -10.2263 C   0  0  0  0  0  0  0  0  0  0  0  0
  -20.1675  -39.0303  -11.3235 C   0  0  0  0  0  0  0  0  0  0  0  0
  -18.4204  -39.6619   -9.7432 C   0  0  0  0  0  0  0  0  0  0  0  0
  -17.6615  -40.6862   -9.7961 O   0  0  0  0  0  0  0  0  0  0  0  0
  -17.8250  -38.4970   -9.1977 N   0  0  0  0  0  0  0  0  0  0  0  0
  -16.5288  -38.5218   -8.5337 C   0  0  1  0  0  0  0  0  0  0  0  0
  -15.5641  -37.5485   -9.1028 C   0  0  0  0  0  0  0  0  0  0  0  0
  -15.7782  -37.2017  -10.5062 C   0  0  0  0  0  0  0  0  0  0  0  0
  -15.1561  -37.9249  -11.4896 C   0  0  0  0  0  0  0  0  0  0  0  0
  -15.2977  -37.6714  -12.8542 C   0  0  0  0  0  0  0  0  0  0  0  0
  -16.1274  -36.6164  -13.1668 C   0  0  0  0  0  0  0  0  0  0  0  0
  -16.7660  -35.8720  -12.1901 C   0  0  0  0  0  0  0  0  0  0  0  0
  -16.5977  -36.1563  -10.8538 C   0  0  0  0  0  0  0  0  0  0  0  0
  -14.6405  -38.4396  -13.7998 O   0  0  0  0  0  0  0  0  0  0  0  0
  -13.2600  -38.6930  -13.6986 C   0  0  0  0  0  0  0  0  0  0  0  0
  -16.6765  -38.4489   -7.0217 C   0  0  2  0  0  0  0  0  0  0  0  0
  -15.3686  -38.3122   -6.5357 O   0  0  0  0  0  0  0  0  0  0  0  0
  -17.1565  -39.7983   -6.5240 C   0  0  0  0  0  0  0  0  0  0  0  0
  -16.5370  -40.9148   -7.1949 N   0  0  0  0  0  0  0  0  0  0  0  0
  -16.9081  -42.1821   -6.5915 C   0  0  0  0  0  0  0  0  0  0  0  0
  -18.2458  -42.6319   -7.0991 C   0  0  0  0  0  0  0  0  0  0  0  0
  -19.2827  -42.8634   -6.2129 C   0  0  0  0  0  0  0  0  0  0  0  0
  -20.5242  -43.2773   -6.6332 C   0  0  0  0  0  0  0  0  0  0  0  0
  -20.7557  -43.4713   -7.9763 C   0  0  0  0  0  0  0  0  0  0  0  0
  -19.7216  -43.2426   -8.8816 C   0  0  0  0  0  0  0  0  0  0  0  0
  -18.4860  -42.8284   -8.4390 C   0  0  0  0  0  0  0  0  0  0  0  0
  -21.6202  -43.5139   -5.6635 C   0  0  0  0  0  0  0  0  0  0  0  0
  -21.9428  -42.2876   -4.8669 C   0  0  0  0  0  0  0  0  0  0  0  0
  -21.1548  -44.6499   -4.7623 C   0  0  0  0  0  0  0  0  0  0  0  0
  1  2  1  0
  2  3  1  0
  3  4  1  0
  4  5  1  0
  5  6  2  0
  6  7  1  0
  7  8  1  0
  8  9  1  0
  9 10  1  0
  7 11  2  0
 11 12  1  0
 12 13  2  0
 12 14  1  0
 14 15  2  0
 14 16  1  0
 16 17  1  0
 17 18  1  6
 18 19  1  0
 19 20  2  0
 20 21  1  0
 21 22  2  0
 22 23  1  0
 23 24  2  0
 21 25  1  0
 25 26  1  0
 17 27  1  0
 27 28  1  1
 27 29  1  0
 29 30  1  0
 30 31  1  0
 31 32  1  0
 32 33  2  0
 33 34  1  0
 34 35  2  0
 35 36  1  0
 36 37  2  0
 34 38  1  0
 38 39  1  0
 38 40  1  0
 13  5  1  0
 24 19  1  0
 37 32  1  0
M  END
$$$$
