
     RDKit          3D

 40 42  0  0  0  0  0  0  0  0999 V2000
  -22.4575  -44.5836   -4.7726 C   0  0  0  0  0  0  0  0  0  0  0  0
  -22.5010  -45.2516   -6.1392 C   0  0  0  0  0  0  0  0  0  0  0  0
  -23.0747  -44.3235   -7.1752 C   0  0  0  0  0  0  0  0  0  0  0  0
  -22.3143  -44.2538   -8.3855 N   0  0  0  0  0  0  0  0  0  0  0  0
  -20.8980  -44.3341   -8.3667 C   0  0  0  0  0  0  0  0  0  0  0  0
  -20.2349  -45.5293   -8.4140 C   0  0  0  0  0  0  0  0  0  0  0  0
  -18.8452  -45.5378   -8.3748 C   0  0  0  0  0  0  0  0  0  0  0  0
  -18.0854  -46.8131   -8.4240 C   0  0  0  0  0  0  0  0  0  0  0  0
  -18.0510  -47.4290   -7.1934 O   0  0  0  0  0  0  0  0  0  0  0  0
  -16.8000  -47.3662   -6.6086 C   0  0  0  0  0  0  0  0  0  0  0  0
  -18.1345  -44.3369   -8.2884 C   0  0  0  0  0  0  0  0  0  0  0  0
  -18.7779  -43.1256   -8.2397 C   0  0  0  0  0  0  0  0  0  0  0  0
  -20.1480  -43.1446   -8.2795 C   0  0  0  0  0  0  0  0  0  0  0  0
  -18.0838  -41.8515   -8.1540 C   0  0  0  0  0  0  0  0  0  0  0  0
  -17.1574  -41.5836   -8.9893 O   0  0  0  0  0  0  0  0  0  0  0  0
  -18.3445  -40.8393   -7.1965 N   0  0  0  0  0  0  0  0  0  0  0  0
  -17.7916  -39.4967   -7.3112 C   0  0  1  0  0  0  0  0  0  0  0  0
  -18.7146  -38.4429   -6.8217 C   0  0  0  0  0  0  0  0  0  0  0  0
  -20.1232  -38.6379   -7.1583 C   0  0  0  0  0  0  0  0  0  0  0  0
  -20.9584  -39.2551   -6.2647 C   0  0  0  0  0  0  0  0  0  0  0  0
  -22.3151  -39.4860   -6.4942 C   0  0  0  0  0  0  0  0  0  0  0  0
  -22.7827  -39.0426   -7.7123 C   0  0  0  0  0  0  0  0  0  0  0  0
  -21.9571  -38.4167   -8.6305 C   0  0  0  0  0  0  0  0  0  0  0  0
  -20.6228  -38.2093   -8.3633 C   0  0  0  0  0  0  0  0  0  0  0  0
  -23.1066  -40.1164   -5.5496 O   0  0  0  0  0  0  0  0  0  0  0  0
  -22.7475  -40.1246   -4.1890 C   0  0  0  0  0  0  0  0  0  0  0  0
  -16.3879  -39.4214   -6.7306 C   0  0  2  0  0  0  0  0  0  0  0  0
  -16.1620  -38.0564   -6.5037 O   0  0  0  0  0  0  0  0  0  0  0  0
  -15.4029  -39.8225   -7.8114 C   0  0  0  0  0  0  0  0  0  0  0  0
  -14.0584  -39.3609   -7.5673 N   0  0  0  0  0  0  0  0  0  0  0  0
  -13.1616  -39.7073   -8.6552 C   0  0  0  0  0  0  0  0  0  0  0  0
  -13.5648  -38.9962   -9.9127 C   0  0  0  0  0  0  0  0  0  0  0  0
  -13.3103  -37.6441  -10.0577 C   0  0  0  0  0  0  0  0  0  0  0  0
  -13.6630  -36.9519  -11.1918 C   0  0  0  0  0  0  0  0  0  0  0  0
  -14.2902  -37.6141  -12.2230 C   0  0  0  0  0  0  0  0  0  0  0  0
  -14.5537  -38.9760  -12.0922 C   0  0  0  0  0  0  0  0  0  0  0  0
  -14.1919  -39.6496  -10.9478 C   0  0  0  0  0  0  0  0  0  0  0  0
  -13.3747  -35.5039  -11.3244 C   0  0  0  0  0  0  0  0  0  0  0  0
  -12.1966  -35.0857  -10.5001 C   0  0  0  0  0  0  0  0  0  0  0  0
  -14.6389  -34.7754  -10.8884 C   0  0  0  0  0  0  0  0  0  0  0  0
  1  2  1  0
  2  3  1  0
  3  4  1  0
  4  5  1  0
  5  6  2  0
  6  7  1  0
  7  8  1  0
  8  9  1  0
  9 10  1  0
  7 11  2  0
 11 12  1  0
 12 13  2  0
 12 14  1  0
 14 15  2  0
 14 16  1  0
 16 17  1  0
 17 18  1  1
 18 19  1  0
 19 20  2  0
 20 21  1  0
 21 22  2  0
 22 23  1  0
 23 24  2  0
 21 25  1  0
 25 26  1  0
 17 27  1  0
 27 28  1  6
 27 29  1  0
 29 30  1  0
 30 31  1  0
 31 32  1  0
 32 33  2  0
 33 34  1  0
 34 35  2  0
 35 36  1  0
 36 37  2  0
 34 38  1  0
 38 39  1  0
 38 40  1  0
 13  5  1  0
 24 19  1  0
 37 32  1  0
M  END
$$$$
