
     RDKit          3D

 40 42  0  0  0  0  0  0  0  0999 V2000
  -26.2880  -42.8335  -10.1700 C   0  0  0  0  0  0  0  0  0  0  0  0
  -24.8662  -42.3171  -10.3358 C   0  0  0  0  0  0  0  0  0  0  0  0
  -23.8628  -43.4094  -10.0832 C   0  0  0  0  0  0  0  0  0  0  0  0
  -22.5002  -42.9736  -10.1187 N   0  0  0  0  0  0  0  0  0  0  0  0
  -21.8435  -42.5252   -8.9437 C   0  0  0  0  0  0  0  0  0  0  0  0
  -22.2725  -42.8706   -7.6919 C   0  0  0  0  0  0  0  0  0  0  0  0
  -21.5929  -42.3824   -6.5815 C   0  0  0  0  0  0  0  0  0  0  0  0
  -22.0247  -42.7327   -5.2043 C   0  0  0  0  0  0  0  0  0  0  0  0
  -21.9555  -41.6468   -4.3611 O   0  0  0  0  0  0  0  0  0  0  0  0
  -22.7451  -40.5964   -4.7903 C   0  0  0  0  0  0  0  0  0  0  0  0
  -20.4831  -41.5479   -6.7444 C   0  0  0  0  0  0  0  0  0  0  0  0
  -20.0342  -41.1877   -7.9902 C   0  0  0  0  0  0  0  0  0  0  0  0
  -20.7217  -41.6820   -9.0683 C   0  0  0  0  0  0  0  0  0  0  0  0
  -18.8839  -40.3271   -8.2107 C   0  0  0  0  0  0  0  0  0  0  0  0
  -18.4354  -40.1693   -9.3946 O   0  0  0  0  0  0  0  0  0  0  0  0
  -18.1845  -39.6196   -7.2009 N   0  0  0  0  0  0  0  0  0  0  0  0
  -17.2757  -38.5227   -7.5045 C   0  0  1  0  0  0  0  0  0  0  0  0
  -17.8799  -37.1863   -7.2792 C   0  0  0  0  0  0  0  0  0  0  0  0
  -19.0832  -36.9032   -8.0586 C   0  0  0  0  0  0  0  0  0  0  0  0
  -20.3093  -36.9129   -7.4471 C   0  0  0  0  0  0  0  0  0  0  0  0
  -21.5125  -36.6554   -8.1047 C   0  0  0  0  0  0  0  0  0  0  0  0
  -21.3930  -36.3811   -9.4499 C   0  0  0  0  0  0  0  0  0  0  0  0
  -20.1649  -36.3659  -10.0885 C   0  0  0  0  0  0  0  0  0  0  0  0
  -19.0012  -36.6266   -9.4010 C   0  0  0  0  0  0  0  0  0  0  0  0
  -22.7205  -36.6811   -7.4292 O   0  0  0  0  0  0  0  0  0  0  0  0
  -23.8508  -36.0130   -7.9356 C   0  0  0  0  0  0  0  0  0  0  0  0
  -15.9225  -38.7206   -6.8390 C   0  0  2  0  0  0  0  0  0  0  0  0
  -14.9834  -38.3264   -7.8024 O   0  0  0  0  0  0  0  0  0  0  0  0
  -15.7018  -40.2075   -6.6404 C   0  0  0  0  0  0  0  0  0  0  0  0
  -14.3224  -40.6087   -6.7693 N   0  0  0  0  0  0  0  0  0  0  0  0
  -14.1782  -42.0532   -6.7826 C   0  0  0  0  0  0  0  0  0  0  0  0
  -14.3033  -42.5790   -8.1818 C   0  0  0  0  0  0  0  0  0  0  0  0
  -15.5535  -42.8045   -8.7296 C   0  0  0  0  0  0  0  0  0  0  0  0
  -15.7154  -43.2863  -10.0067 C   0  0  0  0  0  0  0  0  0  0  0  0
  -14.6057  -43.5571  -10.7751 C   0  0  0  0  0  0  0  0  0  0  0  0
  -13.3394  -43.3355  -10.2378 C   0  0  0  0  0  0  0  0  0  0  0  0
  -13.2003  -42.8525   -8.9565 C   0  0  0  0  0  0  0  0  0  0  0  0
  -17.0665  -43.5150  -10.5722 C   0  0  0  0  0  0  0  0  0  0  0  0
  -17.8031  -44.6011   -9.8510 C   0  0  0  0  0  0  0  0  0  0  0  0
  -16.8610  -43.8685  -12.0391 C   0  0  0  0  0  0  0  0  0  0  0  0
  1  2  1  0
  2  3  1  0
  3  4  1  0
  4  5  1  0
  5  6  2  0
  6  7  1  0
  7  8  1  0
  8  9  1  0
  9 10  1  0
  7 11  2  0
 11 12  1  0
 12 13  2  0
 12 14  1  0
 14 15  2  0
 14 16  1  0
 16 17  1  0
 17 18  1  1
 18 19  1  0
 19 20  2  0
 20 21  1  0
 21 22  2  0
 22 23  1  0
 23 24  2  0
 21 25  1  0
 25 26  1  0
 17 27  1  0
 27 28  1  6
 27 29  1  0
 29 30  1  0
 30 31  1  0
 31 32  1  0
 32 33  2  0
 33 34  1  0
 34 35  2  0
 35 36  1  0
 36 37  2  0
 34 38  1  0
 38 39  1  0
 38 40  1  0
 13  5  1  0
 24 19  1  0
 37 32  1  0
M  END
$$$$
