
     RDKit          3D

 40 42  0  0  0  0  0  0  0  0999 V2000
  -23.1994  -42.4102   -3.5240 C   0  0  0  0  0  0  0  0  0  0  0  0
  -22.6786  -43.5513   -4.3856 C   0  0  0  0  0  0  0  0  0  0  0  0
  -22.3990  -43.0839   -5.7881 C   0  0  0  0  0  0  0  0  0  0  0  0
  -22.0580  -44.1336   -6.6990 N   0  0  0  0  0  0  0  0  0  0  0  0
  -20.8276  -44.1200   -7.4052 C   0  0  0  0  0  0  0  0  0  0  0  0
  -20.2979  -45.2479   -7.9687 C   0  0  0  0  0  0  0  0  0  0  0  0
  -19.0791  -45.1681   -8.6328 C   0  0  0  0  0  0  0  0  0  0  0  0
  -18.4682  -46.3683   -9.2592 C   0  0  0  0  0  0  0  0  0  0  0  0
  -17.0974  -46.3618   -9.1338 O   0  0  0  0  0  0  0  0  0  0  0  0
  -16.5245  -47.5455   -9.5599 C   0  0  0  0  0  0  0  0  0  0  0  0
  -18.4036  -43.9474   -8.7232 C   0  0  0  0  0  0  0  0  0  0  0  0
  -18.9153  -42.8024   -8.1658 C   0  0  0  0  0  0  0  0  0  0  0  0
  -20.1179  -42.9080   -7.5165 C   0  0  0  0  0  0  0  0  0  0  0  0
  -18.2532  -41.5105   -8.2368 C   0  0  0  0  0  0  0  0  0  0  0  0
  -17.7122  -41.1414   -9.3316 O   0  0  0  0  0  0  0  0  0  0  0  0
  -18.1449  -40.5856   -7.1681 N   0  0  0  0  0  0  0  0  0  0  0  0
  -17.6256  -39.2375   -7.3533 C   0  0  1  0  0  0  0  0  0  0  0  0
  -18.4549  -38.1982   -6.6946 C   0  0  0  0  0  0  0  0  0  0  0  0
  -19.8995  -38.3983   -6.7861 C   0  0  0  0  0  0  0  0  0  0  0  0
  -20.6113  -38.7479   -5.6688 C   0  0  0  0  0  0  0  0  0  0  0  0
  -21.9901  -38.9603   -5.6555 C   0  0  0  0  0  0  0  0  0  0  0  0
  -22.6163  -38.7924   -6.8716 C   0  0  0  0  0  0  0  0  0  0  0  0
  -21.9174  -38.4396   -8.0132 C   0  0  0  0  0  0  0  0  0  0  0  0
  -20.5558  -38.2402   -7.9818 C   0  0  0  0  0  0  0  0  0  0  0  0
  -22.6518  -39.3130   -4.4918 O   0  0  0  0  0  0  0  0  0  0  0  0
  -22.9102  -40.6613   -4.1827 C   0  0  0  0  0  0  0  0  0  0  0  0
  -16.1432  -39.1617   -7.0217 C   0  0  2  0  0  0  0  0  0  0  0  0
  -15.9026  -37.8088   -6.7432 O   0  0  0  0  0  0  0  0  0  0  0  0
  -15.3567  -39.4634   -8.2824 C   0  0  0  0  0  0  0  0  0  0  0  0
  -14.0119  -39.9192   -8.0288 N   0  0  0  0  0  0  0  0  0  0  0  0
  -13.0299  -39.1430   -8.7641 C   0  0  0  0  0  0  0  0  0  0  0  0
  -13.6086  -38.6601  -10.0609 C   0  0  0  0  0  0  0  0  0  0  0  0
  -14.3128  -39.5304  -10.8737 C   0  0  0  0  0  0  0  0  0  0  0  0
  -14.8592  -39.1318  -12.0703 C   0  0  0  0  0  0  0  0  0  0  0  0
  -14.7076  -37.8275  -12.4842 C   0  0  0  0  0  0  0  0  0  0  0  0
  -14.0009  -36.9388  -11.6769 C   0  0  0  0  0  0  0  0  0  0  0  0
  -13.4619  -37.3591  -10.4823 C   0  0  0  0  0  0  0  0  0  0  0  0
  -15.6137  -40.0829  -12.9210 C   0  0  0  0  0  0  0  0  0  0  0  0
  -16.5728  -39.3842  -13.8343 C   0  0  0  0  0  0  0  0  0  0  0  0
  -16.3434  -41.0209  -11.9687 C   0  0  0  0  0  0  0  0  0  0  0  0
  1  2  1  0
  2  3  1  0
  3  4  1  0
  4  5  1  0
  5  6  2  0
  6  7  1  0
  7  8  1  0
  8  9  1  0
  9 10  1  0
  7 11  2  0
 11 12  1  0
 12 13  2  0
 12 14  1  0
 14 15  2  0
 14 16  1  0
 16 17  1  0
 17 18  1  1
 18 19  1  0
 19 20  2  0
 20 21  1  0
 21 22  2  0
 22 23  1  0
 23 24  2  0
 21 25  1  0
 25 26  1  0
 17 27  1  0
 27 28  1  6
 27 29  1  0
 29 30  1  0
 30 31  1  0
 31 32  1  0
 32 33  2  0
 33 34  1  0
 34 35  2  0
 35 36  1  0
 36 37  2  0
 34 38  1  0
 38 39  1  0
 38 40  1  0
 13  5  1  0
 24 19  1  0
 37 32  1  0
M  END
$$$$
