
     RDKit          3D

 40 42  0  0  0  0  0  0  0  0999 V2000
  -19.9938  -37.5191   -4.7580 C   0  0  0  0  0  0  0  0  0  0  0  0
  -20.0750  -36.9759   -6.1771 C   0  0  0  0  0  0  0  0  0  0  0  0
  -19.6256  -38.0074   -7.1760 C   0  0  0  0  0  0  0  0  0  0  0  0
  -18.2050  -38.1091   -7.3152 N   0  0  0  0  0  0  0  0  0  0  0  0
  -17.5328  -39.3380   -7.0894 C   0  0  0  0  0  0  0  0  0  0  0  0
  -16.2013  -39.3948   -6.7823 C   0  0  0  0  0  0  0  0  0  0  0  0
  -15.6003  -40.6337   -6.5899 C   0  0  0  0  0  0  0  0  0  0  0  0
  -14.1574  -40.7410   -6.2548 C   0  0  0  0  0  0  0  0  0  0  0  0
  -13.4537  -41.3821   -7.2492 O   0  0  0  0  0  0  0  0  0  0  0  0
  -12.3047  -41.9866   -6.7746 C   0  0  0  0  0  0  0  0  0  0  0  0
  -16.3502  -41.8076   -6.7089 C   0  0  0  0  0  0  0  0  0  0  0  0
  -17.6873  -41.7756   -7.0161 C   0  0  0  0  0  0  0  0  0  0  0  0
  -18.2558  -40.5420   -7.2012 C   0  0  0  0  0  0  0  0  0  0  0  0
  -18.5093  -42.9672   -7.1464 C   0  0  0  0  0  0  0  0  0  0  0  0
  -18.0053  -44.1095   -6.8837 O   0  0  0  0  0  0  0  0  0  0  0  0
  -19.8670  -42.9855   -7.5530 N   0  0  0  0  0  0  0  0  0  0  0  0
  -20.6703  -44.2004   -7.5341 C   0  0  1  0  0  0  0  0  0  0  0  0
  -22.0055  -44.0063   -6.9167 C   0  0  0  0  0  0  0  0  0  0  0  0
  -22.0807  -42.9557   -5.9036 C   0  0  0  0  0  0  0  0  0  0  0  0
  -22.9756  -41.9289   -6.0518 C   0  0  0  0  0  0  0  0  0  0  0  0
  -23.1218  -40.8823   -5.1408 C   0  0  0  0  0  0  0  0  0  0  0  0
  -22.2865  -40.9428   -4.0464 C   0  0  0  0  0  0  0  0  0  0  0  0
  -21.3749  -41.9705   -3.8762 C   0  0  0  0  0  0  0  0  0  0  0  0
  -21.2631  -42.9840   -4.8010 C   0  0  0  0  0  0  0  0  0  0  0  0
  -24.0456  -39.8726   -5.3485 O   0  0  0  0  0  0  0  0  0  0  0  0
  -24.9037  -39.4490   -4.3167 C   0  0  0  0  0  0  0  0  0  0  0  0
  -20.7009  -44.8687   -8.9000 C   0  0  2  0  0  0  0  0  0  0  0  0
  -20.3918  -46.2136   -8.6527 O   0  0  0  0  0  0  0  0  0  0  0  0
  -19.5451  -44.3299   -9.7203 C   0  0  0  0  0  0  0  0  0  0  0  0
  -19.7484  -44.4372  -11.1443 N   0  0  0  0  0  0  0  0  0  0  0  0
  -21.0466  -43.9261  -11.5455 C   0  0  0  0  0  0  0  0  0  0  0  0
  -20.9704  -42.4512  -11.8075 C   0  0  0  0  0  0  0  0  0  0  0  0
  -20.6052  -41.9862  -13.0583 C   0  0  0  0  0  0  0  0  0  0  0  0
  -20.5213  -40.6441  -13.3429 C   0  0  0  0  0  0  0  0  0  0  0  0
  -20.8072  -39.7233  -12.3602 C   0  0  0  0  0  0  0  0  0  0  0  0
  -21.1764  -40.1756  -11.0951 C   0  0  0  0  0  0  0  0  0  0  0  0
  -21.2540  -41.5242  -10.8318 C   0  0  0  0  0  0  0  0  0  0  0  0
  -20.1322  -40.1716  -14.6929 C   0  0  0  0  0  0  0  0  0  0  0  0
  -21.1181  -40.5858  -15.7412 C   0  0  0  0  0  0  0  0  0  0  0  0
  -18.7543  -40.7580  -14.9697 C   0  0  0  0  0  0  0  0  0  0  0  0
  1  2  1  0
  2  3  1  0
  3  4  1  0
  4  5  1  0
  5  6  2  0
  6  7  1  0
  7  8  1  0
  8  9  1  0
  9 10  1  0
  7 11  2  0
 11 12  1  0
 12 13  2  0
 12 14  1  0
 14 15  2  0
 14 16  1  0
 16 17  1  0
 17 18  1  6
 18 19  1  0
 19 20  2  0
 20 21  1  0
 21 22  2  0
 22 23  1  0
 23 24  2  0
 21 25  1  0
 25 26  1  0
 17 27  1  0
 27 28  1  1
 27 29  1  0
 29 30  1  0
 30 31  1  0
 31 32  1  0
 32 33  2  0
 33 34  1  0
 34 35  2  0
 35 36  1  0
 36 37  2  0
 34 38  1  0
 38 39  1  0
 38 40  1  0
 13  5  1  0
 24 19  1  0
 37 32  1  0
M  END
$$$$
