
     RDKit          3D

 40 42  0  0  0  0  0  0  0  0999 V2000
  -20.1866  -44.6745   -1.3383 C   0  0  0  0  0  0  0  0  0  0  0  0
  -20.4790  -43.3954   -2.1090 C   0  0  0  0  0  0  0  0  0  0  0  0
  -21.5450  -43.6224   -3.1462 C   0  0  0  0  0  0  0  0  0  0  0  0
  -21.7833  -42.4975   -3.9981 N   0  0  0  0  0  0  0  0  0  0  0  0
  -21.5205  -42.5644   -5.3908 C   0  0  0  0  0  0  0  0  0  0  0  0
  -22.3287  -43.2529   -6.2528 C   0  0  0  0  0  0  0  0  0  0  0  0
  -22.0041  -43.2924   -7.6041 C   0  0  0  0  0  0  0  0  0  0  0  0
  -22.8540  -44.0282   -8.5747 C   0  0  0  0  0  0  0  0  0  0  0  0
  -22.5208  -45.3628   -8.6286 O   0  0  0  0  0  0  0  0  0  0  0  0
  -21.6669  -45.6498   -9.6772 C   0  0  0  0  0  0  0  0  0  0  0  0
  -20.8639  -42.6346   -8.0753 C   0  0  0  0  0  0  0  0  0  0  0  0
  -20.0381  -41.9375   -7.2294 C   0  0  0  0  0  0  0  0  0  0  0  0
  -20.3800  -41.9142   -5.9022 C   0  0  0  0  0  0  0  0  0  0  0  0
  -18.8452  -41.2347   -7.6717 C   0  0  0  0  0  0  0  0  0  0  0  0
  -18.1450  -41.7218   -8.6205 O   0  0  0  0  0  0  0  0  0  0  0  0
  -18.3648  -40.0156   -7.1313 N   0  0  0  0  0  0  0  0  0  0  0  0
  -17.6400  -39.0393   -7.9332 C   0  0  1  0  0  0  0  0  0  0  0  0
  -18.3725  -37.7589   -8.0944 C   0  0  0  0  0  0  0  0  0  0  0  0
  -19.8074  -37.8848   -8.3409 C   0  0  0  0  0  0  0  0  0  0  0  0
  -20.2520  -38.4075   -9.5267 C   0  0  0  0  0  0  0  0  0  0  0  0
  -21.5988  -38.5678   -9.8539 C   0  0  0  0  0  0  0  0  0  0  0  0
  -22.4862  -38.1564   -8.8831 C   0  0  0  0  0  0  0  0  0  0  0  0
  -22.0597  -37.6254   -7.6780 C   0  0  0  0  0  0  0  0  0  0  0  0
  -20.7197  -37.4843   -7.3961 C   0  0  0  0  0  0  0  0  0  0  0  0
  -21.9839  -39.1028  -11.0712 O   0  0  0  0  0  0  0  0  0  0  0  0
  -23.3296  -39.4208  -11.3322 C   0  0  0  0  0  0  0  0  0  0  0  0
  -16.2033  -38.8855   -7.4583 C   0  0  2  0  0  0  0  0  0  0  0  0
  -15.7069  -37.7764   -8.1578 O   0  0  0  0  0  0  0  0  0  0  0  0
  -15.4056  -40.0732   -7.9602 C   0  0  0  0  0  0  0  0  0  0  0  0
  -13.9780  -39.8753   -7.9038 N   0  0  0  0  0  0  0  0  0  0  0  0
  -13.2760  -40.7275   -8.8465 C   0  0  0  0  0  0  0  0  0  0  0  0
  -13.1672  -40.0528  -10.1817 C   0  0  0  0  0  0  0  0  0  0  0  0
  -12.9611  -38.6866  -10.2544 C   0  0  0  0  0  0  0  0  0  0  0  0
  -12.8562  -38.0266  -11.4556 C   0  0  0  0  0  0  0  0  0  0  0  0
  -12.9580  -38.7366  -12.6307 C   0  0  0  0  0  0  0  0  0  0  0  0
  -13.1658  -40.1132  -12.5743 C   0  0  0  0  0  0  0  0  0  0  0  0
  -13.2678  -40.7540  -11.3605 C   0  0  0  0  0  0  0  0  0  0  0  0
  -12.6306  -36.5624  -11.5064 C   0  0  0  0  0  0  0  0  0  0  0  0
  -12.9740  -35.9851  -12.8447 C   0  0  0  0  0  0  0  0  0  0  0  0
  -11.1607  -36.3453  -11.1731 C   0  0  0  0  0  0  0  0  0  0  0  0
  1  2  1  0
  2  3  1  0
  3  4  1  0
  4  5  1  0
  5  6  2  0
  6  7  1  0
  7  8  1  0
  8  9  1  0
  9 10  1  0
  7 11  2  0
 11 12  1  0
 12 13  2  0
 12 14  1  0
 14 15  2  0
 14 16  1  0
 16 17  1  0
 17 18  1  1
 18 19  1  0
 19 20  2  0
 20 21  1  0
 21 22  2  0
 22 23  1  0
 23 24  2  0
 21 25  1  0
 25 26  1  0
 17 27  1  0
 27 28  1  6
 27 29  1  0
 29 30  1  0
 30 31  1  0
 31 32  1  0
 32 33  2  0
 33 34  1  0
 34 35  2  0
 35 36  1  0
 36 37  2  0
 34 38  1  0
 38 39  1  0
 38 40  1  0
 13  5  1  0
 24 19  1  0
 37 32  1  0
M  END
$$$$
