
     RDKit          3D

 40 42  0  0  0  0  0  0  0  0999 V2000
  -22.6336  -45.8948  -12.1293 C   0  0  0  0  0  0  0  0  0  0  0  0
  -22.1296  -45.9680  -10.6954 C   0  0  0  0  0  0  0  0  0  0  0  0
  -20.6308  -46.0943  -10.6562 C   0  0  0  0  0  0  0  0  0  0  0  0
  -20.0827  -46.1670   -9.3363 N   0  0  0  0  0  0  0  0  0  0  0  0
  -20.1483  -45.0581   -8.4537 C   0  0  0  0  0  0  0  0  0  0  0  0
  -21.0477  -44.9972   -7.4252 C   0  0  0  0  0  0  0  0  0  0  0  0
  -21.0701  -43.8732   -6.6073 C   0  0  0  0  0  0  0  0  0  0  0  0
  -22.0302  -43.7659   -5.4792 C   0  0  0  0  0  0  0  0  0  0  0  0
  -21.3948  -43.8719   -4.2626 O   0  0  0  0  0  0  0  0  0  0  0  0
  -21.3397  -45.1769   -3.8099 C   0  0  0  0  0  0  0  0  0  0  0  0
  -20.1820  -42.8176   -6.8345 C   0  0  0  0  0  0  0  0  0  0  0  0
  -19.2707  -42.8561   -7.8600 C   0  0  0  0  0  0  0  0  0  0  0  0
  -19.2693  -43.9750   -8.6519 C   0  0  0  0  0  0  0  0  0  0  0  0
  -18.3252  -41.7867   -8.1335 C   0  0  0  0  0  0  0  0  0  0  0  0
  -17.7278  -41.7496   -9.2603 O   0  0  0  0  0  0  0  0  0  0  0  0
  -17.9883  -40.7417   -7.2370 N   0  0  0  0  0  0  0  0  0  0  0  0
  -17.7160  -39.3841   -7.6891 C   0  0  1  0  0  0  0  0  0  0  0  0
  -18.6975  -38.3935   -7.1820 C   0  0  0  0  0  0  0  0  0  0  0  0
  -20.1020  -38.7630   -7.3451 C   0  0  0  0  0  0  0  0  0  0  0  0
  -20.8733  -39.0142   -6.2411 C   0  0  0  0  0  0  0  0  0  0  0  0
  -22.2206  -39.3725   -6.2942 C   0  0  0  0  0  0  0  0  0  0  0  0
  -22.7490  -39.4621   -7.5639 C   0  0  0  0  0  0  0  0  0  0  0  0
  -21.9886  -39.2129   -8.6934 C   0  0  0  0  0  0  0  0  0  0  0  0
  -20.6610  -38.8624   -8.5953 C   0  0  0  0  0  0  0  0  0  0  0  0
  -22.9461  -39.6141   -5.1403 O   0  0  0  0  0  0  0  0  0  0  0  0
  -23.3274  -40.9203   -4.7816 C   0  0  0  0  0  0  0  0  0  0  0  0
  -16.2619  -39.0021   -7.4590 C   0  0  2  0  0  0  0  0  0  0  0  0
  -16.3067  -37.9355   -6.5501 O   0  0  0  0  0  0  0  0  0  0  0  0
  -15.7135  -38.4170   -8.7459 C   0  0  0  0  0  0  0  0  0  0  0  0
  -15.5598  -39.3874   -9.8019 N   0  0  0  0  0  0  0  0  0  0  0  0
  -14.2157  -39.3818  -10.3504 C   0  0  0  0  0  0  0  0  0  0  0  0
  -14.0412  -38.2311  -11.2966 C   0  0  0  0  0  0  0  0  0  0  0  0
  -12.8392  -37.5477  -11.3443 C   0  0  0  0  0  0  0  0  0  0  0  0
  -12.6352  -36.4871  -12.1946 C   0  0  0  0  0  0  0  0  0  0  0  0
  -13.6517  -36.0825  -13.0302 C   0  0  0  0  0  0  0  0  0  0  0  0
  -14.8684  -36.7605  -12.9940 C   0  0  0  0  0  0  0  0  0  0  0  0
  -15.0512  -37.8199  -12.1347 C   0  0  0  0  0  0  0  0  0  0  0  0
  -11.3359  -35.7743  -12.2299 C   0  0  0  0  0  0  0  0  0  0  0  0
  -10.2591  -36.5290  -11.5134 C   0  0  0  0  0  0  0  0  0  0  0  0
  -11.5773  -34.4150  -11.5873 C   0  0  0  0  0  0  0  0  0  0  0  0
  1  2  1  0
  2  3  1  0
  3  4  1  0
  4  5  1  0
  5  6  2  0
  6  7  1  0
  7  8  1  0
  8  9  1  0
  9 10  1  0
  7 11  2  0
 11 12  1  0
 12 13  2  0
 12 14  1  0
 14 15  2  0
 14 16  1  0
 16 17  1  0
 17 18  1  1
 18 19  1  0
 19 20  2  0
 20 21  1  0
 21 22  2  0
 22 23  1  0
 23 24  2  0
 21 25  1  0
 25 26  1  0
 17 27  1  0
 27 28  1  1
 27 29  1  0
 29 30  1  0
 30 31  1  0
 31 32  1  0
 32 33  2  0
 33 34  1  0
 34 35  2  0
 35 36  1  0
 36 37  2  0
 34 38  1  0
 38 39  1  0
 38 40  1  0
 13  5  1  0
 24 19  1  0
 37 32  1  0
M  END
$$$$
