
     RDKit          3D

 40 42  0  0  0  0  0  0  0  0999 V2000
  -19.1117  -47.6472   -5.8161 C   0  0  0  0  0  0  0  0  0  0  0  0
  -18.8317  -46.7601   -7.0203 C   0  0  0  0  0  0  0  0  0  0  0  0
  -19.9769  -46.7971   -7.9954 C   0  0  0  0  0  0  0  0  0  0  0  0
  -21.1254  -46.0513   -7.5798 N   0  0  0  0  0  0  0  0  0  0  0  0
  -21.3357  -44.7208   -8.0252 C   0  0  0  0  0  0  0  0  0  0  0  0
  -22.5833  -44.2325   -8.2995 C   0  0  0  0  0  0  0  0  0  0  0  0
  -22.7175  -42.9237   -8.7490 C   0  0  0  0  0  0  0  0  0  0  0  0
  -24.0535  -42.3534   -9.0583 C   0  0  0  0  0  0  0  0  0  0  0  0
  -24.5246  -41.5785   -8.0226 O   0  0  0  0  0  0  0  0  0  0  0  0
  -25.3821  -40.5850   -8.4568 C   0  0  0  0  0  0  0  0  0  0  0  0
  -21.5885  -42.1166   -8.9179 C   0  0  0  0  0  0  0  0  0  0  0  0
  -20.3267  -42.5844   -8.6491 C   0  0  0  0  0  0  0  0  0  0  0  0
  -20.2215  -43.8780   -8.2077 C   0  0  0  0  0  0  0  0  0  0  0  0
  -19.1239  -41.7834   -8.8049 C   0  0  0  0  0  0  0  0  0  0  0  0
  -18.0182  -42.3576   -9.0795 O   0  0  0  0  0  0  0  0  0  0  0  0
  -19.0562  -40.3734   -8.6760 N   0  0  0  0  0  0  0  0  0  0  0  0
  -17.8268  -39.6275   -8.9077 C   0  0  1  0  0  0  0  0  0  0  0  0
  -17.9156  -38.7032  -10.0651 C   0  0  0  0  0  0  0  0  0  0  0  0
  -18.7012  -39.1901  -11.1970 C   0  0  0  0  0  0  0  0  0  0  0  0
  -20.0464  -38.9361  -11.2527 C   0  0  0  0  0  0  0  0  0  0  0  0
  -20.8790  -39.3578  -12.2896 C   0  0  0  0  0  0  0  0  0  0  0  0
  -20.2495  -40.0684  -13.2887 C   0  0  0  0  0  0  0  0  0  0  0  0
  -18.8920  -40.3368  -13.2533 C   0  0  0  0  0  0  0  0  0  0  0  0
  -18.1068  -39.9019  -12.2096 C   0  0  0  0  0  0  0  0  0  0  0  0
  -22.2328  -39.0690  -12.2870 O   0  0  0  0  0  0  0  0  0  0  0  0
  -22.9816  -39.1061  -11.0961 C   0  0  0  0  0  0  0  0  0  0  0  0
  -17.3167  -38.9839   -7.6275 C   0  0  2  0  0  0  0  0  0  0  0  0
  -16.1425  -39.6825   -7.3133 O   0  0  0  0  0  0  0  0  0  0  0  0
  -18.2917  -39.3045   -6.5115 C   0  0  0  0  0  0  0  0  0  0  0  0
  -17.8469  -38.8642   -5.2120 N   0  0  0  0  0  0  0  0  0  0  0  0
  -18.9593  -38.4895   -4.3577 C   0  0  0  0  0  0  0  0  0  0  0  0
  -19.9126  -39.6374   -4.2058 C   0  0  0  0  0  0  0  0  0  0  0  0
  -19.7104  -40.5813   -3.2147 C   0  0  0  0  0  0  0  0  0  0  0  0
  -20.5574  -41.6497   -3.0396 C   0  0  0  0  0  0  0  0  0  0  0  0
  -21.6451  -41.7962   -3.8707 C   0  0  0  0  0  0  0  0  0  0  0  0
  -21.8625  -40.8540   -4.8739 C   0  0  0  0  0  0  0  0  0  0  0  0
  -21.0016  -39.7918   -5.0315 C   0  0  0  0  0  0  0  0  0  0  0  0
  -20.3211  -42.6450   -1.9668 C   0  0  0  0  0  0  0  0  0  0  0  0
  -19.2877  -42.1828   -0.9865 C   0  0  0  0  0  0  0  0  0  0  0  0
  -19.8859  -43.9276   -2.6628 C   0  0  0  0  0  0  0  0  0  0  0  0
  1  2  1  0
  2  3  1  0
  3  4  1  0
  4  5  1  0
  5  6  2  0
  6  7  1  0
  7  8  1  0
  8  9  1  0
  9 10  1  0
  7 11  2  0
 11 12  1  0
 12 13  2  0
 12 14  1  0
 14 15  2  0
 14 16  1  0
 16 17  1  0
 17 18  1  6
 18 19  1  0
 19 20  2  0
 20 21  1  0
 21 22  2  0
 22 23  1  0
 23 24  2  0
 21 25  1  0
 25 26  1  0
 17 27  1  0
 27 28  1  1
 27 29  1  0
 29 30  1  0
 30 31  1  0
 31 32  1  0
 32 33  2  0
 33 34  1  0
 34 35  2  0
 35 36  1  0
 36 37  2  0
 34 38  1  0
 38 39  1  0
 38 40  1  0
 13  5  1  0
 24 19  1  0
 37 32  1  0
M  END
$$$$
