
     RDKit          3D

 40 42  0  0  0  0  0  0  0  0999 V2000
  -24.4524  -41.7397   -7.6932 C   0  0  0  0  0  0  0  0  0  0  0  0
  -24.2835  -41.5545   -9.1941 C   0  0  0  0  0  0  0  0  0  0  0  0
  -22.9722  -40.8885   -9.5113 C   0  0  0  0  0  0  0  0  0  0  0  0
  -22.7274  -40.7119  -10.9101 N   0  0  0  0  0  0  0  0  0  0  0  0
  -21.4924  -40.1934  -11.3781 C   0  0  0  0  0  0  0  0  0  0  0  0
  -21.2442  -39.9899  -12.7075 C   0  0  0  0  0  0  0  0  0  0  0  0
  -20.0057  -39.4947  -13.0999 C   0  0  0  0  0  0  0  0  0  0  0  0
  -19.6943  -39.2587  -14.5328 C   0  0  0  0  0  0  0  0  0  0  0  0
  -19.5367  -37.9179  -14.8018 O   0  0  0  0  0  0  0  0  0  0  0  0
  -20.6591  -37.3638  -15.3885 C   0  0  0  0  0  0  0  0  0  0  0  0
  -19.0259  -39.2080  -12.1447 C   0  0  0  0  0  0  0  0  0  0  0  0
  -19.2519  -39.4040  -10.8053 C   0  0  0  0  0  0  0  0  0  0  0  0
  -20.4806  -39.8932  -10.4448 C   0  0  0  0  0  0  0  0  0  0  0  0
  -18.2675  -39.1172   -9.7752 C   0  0  0  0  0  0  0  0  0  0  0  0
  -17.9757  -37.9049   -9.5056 O   0  0  0  0  0  0  0  0  0  0  0  0
  -17.5728  -40.0893   -9.0125 N   0  0  0  0  0  0  0  0  0  0  0  0
  -17.2494  -39.8915   -7.6061 C   0  0  1  0  0  0  0  0  0  0  0  0
  -17.9868  -40.8104   -6.7041 C   0  0  0  0  0  0  0  0  0  0  0  0
  -19.2795  -40.3201   -6.2307 C   0  0  0  0  0  0  0  0  0  0  0  0
  -20.1851  -39.8127   -7.1249 C   0  0  0  0  0  0  0  0  0  0  0  0
  -21.4421  -39.3221   -6.7708 C   0  0  0  0  0  0  0  0  0  0  0  0
  -21.7307  -39.3791   -5.4244 C   0  0  0  0  0  0  0  0  0  0  0  0
  -20.8312  -39.8874   -4.5031 C   0  0  0  0  0  0  0  0  0  0  0  0
  -19.5999  -40.3611   -4.8961 C   0  0  0  0  0  0  0  0  0  0  0  0
  -22.3127  -38.8212   -7.7234 O   0  0  0  0  0  0  0  0  0  0  0  0
  -22.9450  -37.5765   -7.5474 C   0  0  0  0  0  0  0  0  0  0  0  0
  -15.7457  -39.8617   -7.3798 C   0  0  2  0  0  0  0  0  0  0  0  0
  -15.5904  -39.6395   -6.0042 O   0  0  0  0  0  0  0  0  0  0  0  0
  -15.1861  -38.6259   -8.0571 C   0  0  0  0  0  0  0  0  0  0  0  0
  -13.8590  -38.8110   -8.5908 N   0  0  0  0  0  0  0  0  0  0  0  0
  -13.8613  -39.6719   -9.7598 C   0  0  0  0  0  0  0  0  0  0  0  0
  -13.5450  -38.8801  -10.9938 C   0  0  0  0  0  0  0  0  0  0  0  0
  -13.4556  -37.5010  -10.9298 C   0  0  0  0  0  0  0  0  0  0  0  0
  -13.1691  -36.7355  -12.0350 C   0  0  0  0  0  0  0  0  0  0  0  0
  -12.9627  -37.3490  -13.2500 C   0  0  0  0  0  0  0  0  0  0  0  0
  -13.0494  -38.7372  -13.3310 C   0  0  0  0  0  0  0  0  0  0  0  0
  -13.3375  -39.4845  -12.2117 C   0  0  0  0  0  0  0  0  0  0  0  0
  -13.0743  -35.2592  -11.9388 C   0  0  0  0  0  0  0  0  0  0  0  0
  -11.6729  -34.8000  -11.6787 C   0  0  0  0  0  0  0  0  0  0  0  0
  -14.0088  -34.8441  -10.8104 C   0  0  0  0  0  0  0  0  0  0  0  0
  1  2  1  0
  2  3  1  0
  3  4  1  0
  4  5  1  0
  5  6  2  0
  6  7  1  0
  7  8  1  0
  8  9  1  0
  9 10  1  0
  7 11  2  0
 11 12  1  0
 12 13  2  0
 12 14  1  0
 14 15  2  0
 14 16  1  0
 16 17  1  0
 17 18  1  1
 18 19  1  0
 19 20  2  0
 20 21  1  0
 21 22  2  0
 22 23  1  0
 23 24  2  0
 21 25  1  0
 25 26  1  0
 17 27  1  0
 27 28  1  1
 27 29  1  0
 29 30  1  0
 30 31  1  0
 31 32  1  0
 32 33  2  0
 33 34  1  0
 34 35  2  0
 35 36  1  0
 36 37  2  0
 34 38  1  0
 38 39  1  0
 38 40  1  0
 13  5  1  0
 24 19  1  0
 37 32  1  0
M  END
$$$$
