
     RDKit          3D

 40 42  0  0  0  0  0  0  0  0999 V2000
  -20.4732  -45.3881   -4.9940 C   0  0  0  0  0  0  0  0  0  0  0  0
  -20.3546  -44.9194   -6.4368 C   0  0  0  0  0  0  0  0  0  0  0  0
  -21.6310  -44.2712   -6.9000 C   0  0  0  0  0  0  0  0  0  0  0  0
  -21.6794  -44.0101   -8.3062 N   0  0  0  0  0  0  0  0  0  0  0  0
  -20.4901  -43.8484   -9.0628 C   0  0  0  0  0  0  0  0  0  0  0  0
  -20.1486  -44.7018  -10.0754 C   0  0  0  0  0  0  0  0  0  0  0  0
  -18.9597  -44.4960  -10.7662 C   0  0  0  0  0  0  0  0  0  0  0  0
  -18.5507  -45.3984  -11.8726 C   0  0  0  0  0  0  0  0  0  0  0  0
  -17.2381  -45.7929  -11.7444 O   0  0  0  0  0  0  0  0  0  0  0  0
  -17.1216  -47.0896  -11.2797 C   0  0  0  0  0  0  0  0  0  0  0  0
  -18.1236  -43.4275  -10.4285 C   0  0  0  0  0  0  0  0  0  0  0  0
  -18.4452  -42.5582   -9.4165 C   0  0  0  0  0  0  0  0  0  0  0  0
  -19.6223  -42.7832   -8.7509 C   0  0  0  0  0  0  0  0  0  0  0  0
  -17.6116  -41.4315   -9.0315 C   0  0  0  0  0  0  0  0  0  0  0  0
  -16.6602  -41.0636   -9.7978 O   0  0  0  0  0  0  0  0  0  0  0  0
  -17.7569  -40.6732   -7.8428 N   0  0  0  0  0  0  0  0  0  0  0  0
  -17.1699  -39.3495   -7.6858 C   0  0  1  0  0  0  0  0  0  0  0  0
  -18.0146  -38.4290   -6.8851 C   0  0  0  0  0  0  0  0  0  0  0  0
  -19.4565  -38.6261   -7.0183 C   0  0  0  0  0  0  0  0  0  0  0  0
  -20.1940  -39.0185   -5.9325 C   0  0  0  0  0  0  0  0  0  0  0  0
  -21.5724  -39.2319   -5.9599 C   0  0  0  0  0  0  0  0  0  0  0  0
  -22.1699  -39.0178   -7.1831 C   0  0  0  0  0  0  0  0  0  0  0  0
  -21.4448  -38.6212   -8.2935 C   0  0  0  0  0  0  0  0  0  0  0  0
  -20.0845  -38.4225   -8.2223 C   0  0  0  0  0  0  0  0  0  0  0  0
  -22.2609  -39.6291   -4.8265 O   0  0  0  0  0  0  0  0  0  0  0  0
  -23.5684  -40.1422   -4.9128 C   0  0  0  0  0  0  0  0  0  0  0  0
  -15.7225  -39.4333   -7.2266 C   0  0  2  0  0  0  0  0  0  0  0  0
  -15.2790  -38.1041   -7.1806 O   0  0  0  0  0  0  0  0  0  0  0  0
  -14.9118  -40.0949   -8.3239 C   0  0  0  0  0  0  0  0  0  0  0  0
  -13.5875  -40.4864   -7.9073 N   0  0  0  0  0  0  0  0  0  0  0  0
  -12.5648  -39.6305   -8.4811 C   0  0  0  0  0  0  0  0  0  0  0  0
  -12.4426  -39.8768   -9.9555 C   0  0  0  0  0  0  0  0  0  0  0  0
  -12.8044  -41.1018  -10.4871 C   0  0  0  0  0  0  0  0  0  0  0  0
  -12.7081  -41.3718  -11.8314 C   0  0  0  0  0  0  0  0  0  0  0  0
  -12.2379  -40.4006  -12.6864 C   0  0  0  0  0  0  0  0  0  0  0  0
  -11.8693  -39.1616  -12.1665 C   0  0  0  0  0  0  0  0  0  0  0  0
  -11.9738  -38.9125  -10.8169 C   0  0  0  0  0  0  0  0  0  0  0  0
  -13.1069  -42.6913  -12.3767 C   0  0  0  0  0  0  0  0  0  0  0  0
  -13.4385  -42.6218  -13.8354 C   0  0  0  0  0  0  0  0  0  0  0  0
  -14.3088  -43.1454  -11.5593 C   0  0  0  0  0  0  0  0  0  0  0  0
  1  2  1  0
  2  3  1  0
  3  4  1  0
  4  5  1  0
  5  6  2  0
  6  7  1  0
  7  8  1  0
  8  9  1  0
  9 10  1  0
  7 11  2  0
 11 12  1  0
 12 13  2  0
 12 14  1  0
 14 15  2  0
 14 16  1  0
 16 17  1  0
 17 18  1  1
 18 19  1  0
 19 20  2  0
 20 21  1  0
 21 22  2  0
 22 23  1  0
 23 24  2  0
 21 25  1  0
 25 26  1  0
 17 27  1  0
 27 28  1  6
 27 29  1  0
 29 30  1  0
 30 31  1  0
 31 32  1  0
 32 33  2  0
 33 34  1  0
 34 35  2  0
 35 36  1  0
 36 37  2  0
 34 38  1  0
 38 39  1  0
 38 40  1  0
 13  5  1  0
 24 19  1  0
 37 32  1  0
M  END
$$$$
