
     RDKit          3D

 40 42  0  0  0  0  0  0  0  0999 V2000
  -18.5718  -43.9738   -4.2694 C   0  0  0  0  0  0  0  0  0  0  0  0
  -19.7035  -44.2074   -3.2793 C   0  0  0  0  0  0  0  0  0  0  0  0
  -20.5979  -43.0010   -3.1880 C   0  0  0  0  0  0  0  0  0  0  0  0
  -21.6706  -42.9932   -4.1352 N   0  0  0  0  0  0  0  0  0  0  0  0
  -21.6259  -42.1643   -5.2859 C   0  0  0  0  0  0  0  0  0  0  0  0
  -22.7590  -41.6872   -5.8850 C   0  0  0  0  0  0  0  0  0  0  0  0
  -22.6448  -40.8933   -7.0206 C   0  0  0  0  0  0  0  0  0  0  0  0
  -23.8492  -40.3543   -7.7024 C   0  0  0  0  0  0  0  0  0  0  0  0
  -24.1251  -39.0674   -7.2990 O   0  0  0  0  0  0  0  0  0  0  0  0
  -25.1372  -39.0165   -6.3587 C   0  0  0  0  0  0  0  0  0  0  0  0
  -21.3848  -40.5864   -7.5430 C   0  0  0  0  0  0  0  0  0  0  0  0
  -20.2340  -41.0534   -6.9591 C   0  0  0  0  0  0  0  0  0  0  0  0
  -20.3739  -41.8342   -5.8411 C   0  0  0  0  0  0  0  0  0  0  0  0
  -18.9026  -40.7586   -7.4620 C   0  0  0  0  0  0  0  0  0  0  0  0
  -18.4403  -41.4276   -8.4450 O   0  0  0  0  0  0  0  0  0  0  0  0
  -18.0342  -39.7635   -6.9473 N   0  0  0  0  0  0  0  0  0  0  0  0
  -17.1348  -38.9973   -7.7990 C   0  0  1  0  0  0  0  0  0  0  0  0
  -17.6185  -37.6203   -8.0670 C   0  0  0  0  0  0  0  0  0  0  0  0
  -18.9185  -37.5303   -8.7283 C   0  0  0  0  0  0  0  0  0  0  0  0
  -20.0174  -37.1226   -8.0189 C   0  0  0  0  0  0  0  0  0  0  0  0
  -21.2977  -37.0051   -8.5606 C   0  0  0  0  0  0  0  0  0  0  0  0
  -21.3970  -37.3334   -9.8953 C   0  0  0  0  0  0  0  0  0  0  0  0
  -20.3004  -37.7478  -10.6316 C   0  0  0  0  0  0  0  0  0  0  0  0
  -19.0539  -37.8505  -10.0567 C   0  0  0  0  0  0  0  0  0  0  0  0
  -22.3687  -36.5875   -7.7895 O   0  0  0  0  0  0  0  0  0  0  0  0
  -23.6280  -36.3408   -8.3673 C   0  0  0  0  0  0  0  0  0  0  0  0
  -15.6990  -39.0734   -7.3032 C   0  0  2  0  0  0  0  0  0  0  0  0
  -14.9174  -38.6586   -8.3907 O   0  0  0  0  0  0  0  0  0  0  0  0
  -15.3476  -40.5318   -7.0825 C   0  0  0  0  0  0  0  0  0  0  0  0
  -13.9362  -40.7638   -6.8968 N   0  0  0  0  0  0  0  0  0  0  0  0
  -13.1611  -40.3311   -8.0456 C   0  0  0  0  0  0  0  0  0  0  0  0
  -13.0995  -41.4196   -9.0757 C   0  0  0  0  0  0  0  0  0  0  0  0
  -14.2531  -41.8350   -9.7165 C   0  0  0  0  0  0  0  0  0  0  0  0
  -14.2439  -42.8291  -10.6658 C   0  0  0  0  0  0  0  0  0  0  0  0
  -13.0550  -43.4387  -10.9979 C   0  0  0  0  0  0  0  0  0  0  0  0
  -11.8844  -43.0317  -10.3614 C   0  0  0  0  0  0  0  0  0  0  0  0
  -11.9165  -42.0342   -9.4136 C   0  0  0  0  0  0  0  0  0  0  0  0
  -15.4934  -43.2528  -11.3415 C   0  0  0  0  0  0  0  0  0  0  0  0
  -16.5803  -42.2313  -11.2090 C   0  0  0  0  0  0  0  0  0  0  0  0
  -15.8978  -44.5741  -10.7015 C   0  0  0  0  0  0  0  0  0  0  0  0
  1  2  1  0
  2  3  1  0
  3  4  1  0
  4  5  1  0
  5  6  2  0
  6  7  1  0
  7  8  1  0
  8  9  1  0
  9 10  1  0
  7 11  2  0
 11 12  1  0
 12 13  2  0
 12 14  1  0
 14 15  2  0
 14 16  1  0
 16 17  1  0
 17 18  1  1
 18 19  1  0
 19 20  2  0
 20 21  1  0
 21 22  2  0
 22 23  1  0
 23 24  2  0
 21 25  1  0
 25 26  1  0
 17 27  1  0
 27 28  1  6
 27 29  1  0
 29 30  1  0
 30 31  1  0
 31 32  1  0
 32 33  2  0
 33 34  1  0
 34 35  2  0
 35 36  1  0
 36 37  2  0
 34 38  1  0
 38 39  1  0
 38 40  1  0
 13  5  1  0
 24 19  1  0
 37 32  1  0
M  END
$$$$
