
     RDKit          3D

 40 42  0  0  0  0  0  0  0  0999 V2000
  -25.4402  -38.7517  -10.5732 C   0  0  0  0  0  0  0  0  0  0  0  0
  -24.4618  -39.8280  -11.0204 C   0  0  0  0  0  0  0  0  0  0  0  0
  -23.0911  -39.2506  -11.2468 C   0  0  0  0  0  0  0  0  0  0  0  0
  -22.1164  -40.2055  -11.6783 N   0  0  0  0  0  0  0  0  0  0  0  0
  -21.3750  -40.9703  -10.7412 C   0  0  0  0  0  0  0  0  0  0  0  0
  -21.8980  -42.0727  -10.1235 C   0  0  0  0  0  0  0  0  0  0  0  0
  -21.1229  -42.7676   -9.2020 C   0  0  0  0  0  0  0  0  0  0  0  0
  -21.6515  -43.9699   -8.5084 C   0  0  0  0  0  0  0  0  0  0  0  0
  -21.3323  -43.9624   -7.1694 O   0  0  0  0  0  0  0  0  0  0  0  0
  -22.4519  -43.8864   -6.3622 C   0  0  0  0  0  0  0  0  0  0  0  0
  -19.8228  -42.3432   -8.9113 C   0  0  0  0  0  0  0  0  0  0  0  0
  -19.2766  -41.2403   -9.5184 C   0  0  0  0  0  0  0  0  0  0  0  0
  -20.0615  -40.5727  -10.4225 C   0  0  0  0  0  0  0  0  0  0  0  0
  -17.9298  -40.7629   -9.2528 C   0  0  0  0  0  0  0  0  0  0  0  0
  -16.9724  -41.6015   -9.1639 O   0  0  0  0  0  0  0  0  0  0  0  0
  -17.5617  -39.4056   -9.0752 N   0  0  0  0  0  0  0  0  0  0  0  0
  -16.2805  -39.0135   -8.5041 C   0  0  1  0  0  0  0  0  0  0  0  0
  -15.7763  -37.7230   -9.0356 C   0  0  0  0  0  0  0  0  0  0  0  0
  -16.4909  -37.2026  -10.1992 C   0  0  0  0  0  0  0  0  0  0  0  0
  -17.1884  -38.0590  -11.0099 C   0  0  0  0  0  0  0  0  0  0  0  0
  -17.9005  -37.6586  -12.1408 C   0  0  0  0  0  0  0  0  0  0  0  0
  -17.8610  -36.3066  -12.4046 C   0  0  0  0  0  0  0  0  0  0  0  0
  -17.1628  -35.4230  -11.5996 C   0  0  0  0  0  0  0  0  0  0  0  0
  -16.4723  -35.8613  -10.4923 C   0  0  0  0  0  0  0  0  0  0  0  0
  -18.5856  -38.5747  -12.9203 O   0  0  0  0  0  0  0  0  0  0  0  0
  -18.3290  -38.6918  -14.2990 C   0  0  0  0  0  0  0  0  0  0  0  0
  -16.2966  -39.1043   -6.9860 C   0  0  2  0  0  0  0  0  0  0  0  0
  -14.9515  -39.2460   -6.6169 O   0  0  0  0  0  0  0  0  0  0  0  0
  -16.9654  -40.4073   -6.5935 C   0  0  0  0  0  0  0  0  0  0  0  0
  -16.8351  -40.7240   -5.1924 N   0  0  0  0  0  0  0  0  0  0  0  0
  -17.2637  -42.0804   -4.9022 C   0  0  0  0  0  0  0  0  0  0  0  0
  -18.7518  -42.1320   -4.7220 C   0  0  0  0  0  0  0  0  0  0  0  0
  -19.2915  -42.5709   -3.5261 C   0  0  0  0  0  0  0  0  0  0  0  0
  -20.6485  -42.6356   -3.3171 C   0  0  0  0  0  0  0  0  0  0  0  0
  -21.5084  -42.2545   -4.3224 C   0  0  0  0  0  0  0  0  0  0  0  0
  -20.9806  -41.8103   -5.5329 C   0  0  0  0  0  0  0  0  0  0  0  0
  -19.6183  -41.7535   -5.7207 C   0  0  0  0  0  0  0  0  0  0  0  0
  -21.2016  -43.1052   -2.0244 C   0  0  0  0  0  0  0  0  0  0  0  0
  -22.3724  -42.2839   -1.5804 C   0  0  0  0  0  0  0  0  0  0  0  0
  -20.0607  -43.0275   -1.0187 C   0  0  0  0  0  0  0  0  0  0  0  0
  1  2  1  0
  2  3  1  0
  3  4  1  0
  4  5  1  0
  5  6  2  0
  6  7  1  0
  7  8  1  0
  8  9  1  0
  9 10  1  0
  7 11  2  0
 11 12  1  0
 12 13  2  0
 12 14  1  0
 14 15  2  0
 14 16  1  0
 16 17  1  0
 17 18  1  1
 18 19  1  0
 19 20  2  0
 20 21  1  0
 21 22  2  0
 22 23  1  0
 23 24  2  0
 21 25  1  0
 25 26  1  0
 17 27  1  0
 27 28  1  6
 27 29  1  0
 29 30  1  0
 30 31  1  0
 31 32  1  0
 32 33  2  0
 33 34  1  0
 34 35  2  0
 35 36  1  0
 36 37  2  0
 34 38  1  0
 38 39  1  0
 38 40  1  0
 13  5  1  0
 24 19  1  0
 37 32  1  0
M  END
$$$$
