
     RDKit          3D

 40 42  0  0  0  0  0  0  0  0999 V2000
  -22.4581  -43.6464   -2.2299 C   0  0  0  0  0  0  0  0  0  0  0  0
  -22.9257  -43.7489   -3.6743 C   0  0  0  0  0  0  0  0  0  0  0  0
  -21.8603  -44.3586   -4.5442 C   0  0  0  0  0  0  0  0  0  0  0  0
  -20.8189  -43.4514   -4.9189 N   0  0  0  0  0  0  0  0  0  0  0  0
  -20.1243  -43.6001   -6.1471 C   0  0  0  0  0  0  0  0  0  0  0  0
  -20.2427  -44.7218   -6.9203 C   0  0  0  0  0  0  0  0  0  0  0  0
  -19.5205  -44.8103   -8.1050 C   0  0  0  0  0  0  0  0  0  0  0  0
  -19.6197  -46.0102   -8.9747 C   0  0  0  0  0  0  0  0  0  0  0  0
  -18.5038  -46.8085   -8.8641 O   0  0  0  0  0  0  0  0  0  0  0  0
  -17.6483  -46.3814   -7.8658 C   0  0  0  0  0  0  0  0  0  0  0  0
  -18.6831  -43.7629   -8.5005 C   0  0  0  0  0  0  0  0  0  0  0  0
  -18.5482  -42.6277   -7.7413 C   0  0  0  0  0  0  0  0  0  0  0  0
  -19.2705  -42.5655   -6.5779 C   0  0  0  0  0  0  0  0  0  0  0  0
  -17.6943  -41.5115   -8.1120 C   0  0  0  0  0  0  0  0  0  0  0  0
  -17.2794  -41.4104   -9.3142 O   0  0  0  0  0  0  0  0  0  0  0  0
  -17.2602  -40.4857   -7.2354 N   0  0  0  0  0  0  0  0  0  0  0  0
  -16.8836  -39.1614   -7.7108 C   0  0  1  0  0  0  0  0  0  0  0  0
  -17.9126  -38.1287   -7.4340 C   0  0  0  0  0  0  0  0  0  0  0  0
  -19.2896  -38.5227   -7.7239 C   0  0  0  0  0  0  0  0  0  0  0  0
  -20.1188  -37.6610   -8.3924 C   0  0  0  0  0  0  0  0  0  0  0  0
  -21.4460  -37.9457   -8.7148 C   0  0  0  0  0  0  0  0  0  0  0  0
  -21.8900  -39.1856   -8.3089 C   0  0  0  0  0  0  0  0  0  0  0  0
  -21.0702  -40.0722   -7.6322 C   0  0  0  0  0  0  0  0  0  0  0  0
  -19.7656  -39.7501   -7.3334 C   0  0  0  0  0  0  0  0  0  0  0  0
  -22.2332  -37.0307   -9.3924 O   0  0  0  0  0  0  0  0  0  0  0  0
  -21.8443  -35.6833   -9.5095 C   0  0  0  0  0  0  0  0  0  0  0  0
  -15.4802  -38.7865   -7.2601 C   0  0  2  0  0  0  0  0  0  0  0  0
  -15.2328  -37.5371   -7.8461 O   0  0  0  0  0  0  0  0  0  0  0  0
  -14.4993  -39.7423   -7.9107 C   0  0  0  0  0  0  0  0  0  0  0  0
  -14.5952  -39.7772   -9.3495 N   0  0  0  0  0  0  0  0  0  0  0  0
  -13.2950  -39.6444   -9.9816 C   0  0  0  0  0  0  0  0  0  0  0  0
  -13.3507  -38.6303  -11.0853 C   0  0  0  0  0  0  0  0  0  0  0  0
  -12.9803  -37.3195  -10.8431 C   0  0  0  0  0  0  0  0  0  0  0  0
  -13.0165  -36.3570  -11.8237 C   0  0  0  0  0  0  0  0  0  0  0  0
  -13.4329  -36.6957  -13.0914 C   0  0  0  0  0  0  0  0  0  0  0  0
  -13.8095  -38.0117  -13.3514 C   0  0  0  0  0  0  0  0  0  0  0  0
  -13.7656  -38.9596  -12.3546 C   0  0  0  0  0  0  0  0  0  0  0  0
  -12.6097  -34.9601  -11.5395 C   0  0  0  0  0  0  0  0  0  0  0  0
  -13.7865  -34.0733  -11.2730 C   0  0  0  0  0  0  0  0  0  0  0  0
  -11.8277  -34.4871  -12.7576 C   0  0  0  0  0  0  0  0  0  0  0  0
  1  2  1  0
  2  3  1  0
  3  4  1  0
  4  5  1  0
  5  6  2  0
  6  7  1  0
  7  8  1  0
  8  9  1  0
  9 10  1  0
  7 11  2  0
 11 12  1  0
 12 13  2  0
 12 14  1  0
 14 15  2  0
 14 16  1  0
 16 17  1  0
 17 18  1  1
 18 19  1  0
 19 20  2  0
 20 21  1  0
 21 22  2  0
 22 23  1  0
 23 24  2  0
 21 25  1  0
 25 26  1  0
 17 27  1  0
 27 28  1  6
 27 29  1  0
 29 30  1  0
 30 31  1  0
 31 32  1  0
 32 33  2  0
 33 34  1  0
 34 35  2  0
 35 36  1  0
 36 37  2  0
 34 38  1  0
 38 39  1  0
 38 40  1  0
 13  5  1  0
 24 19  1  0
 37 32  1  0
M  END
$$$$
