
     RDKit          3D

 40 42  0  0  0  0  0  0  0  0999 V2000
  -18.1181  -49.7045   -6.7386 C   0  0  0  0  0  0  0  0  0  0  0  0
  -18.8774  -48.8785   -7.7666 C   0  0  0  0  0  0  0  0  0  0  0  0
  -19.4748  -47.6498   -7.1365 C   0  0  0  0  0  0  0  0  0  0  0  0
  -18.8568  -46.4240   -7.5407 N   0  0  0  0  0  0  0  0  0  0  0  0
  -19.3880  -45.1698   -7.1434 C   0  0  0  0  0  0  0  0  0  0  0  0
  -20.5319  -45.0647   -6.4012 C   0  0  0  0  0  0  0  0  0  0  0  0
  -21.0076  -43.8036   -6.0601 C   0  0  0  0  0  0  0  0  0  0  0  0
  -22.2456  -43.6440   -5.2553 C   0  0  0  0  0  0  0  0  0  0  0  0
  -22.4513  -42.3303   -4.8992 O   0  0  0  0  0  0  0  0  0  0  0  0
  -22.1638  -42.0950   -3.5677 C   0  0  0  0  0  0  0  0  0  0  0  0
  -20.3227  -42.6563   -6.4715 C   0  0  0  0  0  0  0  0  0  0  0  0
  -19.1730  -42.7367   -7.2166 C   0  0  0  0  0  0  0  0  0  0  0  0
  -18.7254  -43.9914   -7.5400 C   0  0  0  0  0  0  0  0  0  0  0  0
  -18.4241  -41.5742   -7.6641 C   0  0  0  0  0  0  0  0  0  0  0  0
  -17.5270  -41.7122   -8.5607 O   0  0  0  0  0  0  0  0  0  0  0  0
  -18.5986  -40.2523   -7.1831 N   0  0  0  0  0  0  0  0  0  0  0  0
  -17.7260  -39.1562   -7.5815 C   0  0  1  0  0  0  0  0  0  0  0  0
  -18.3500  -37.8215   -7.4055 C   0  0  0  0  0  0  0  0  0  0  0  0
  -19.7595  -37.7343   -7.7813 C   0  0  0  0  0  0  0  0  0  0  0  0
  -20.1079  -37.6378   -9.1028 C   0  0  0  0  0  0  0  0  0  0  0  0
  -21.4231  -37.5503   -9.5599 C   0  0  0  0  0  0  0  0  0  0  0  0
  -22.3843  -37.5672   -8.5725 C   0  0  0  0  0  0  0  0  0  0  0  0
  -22.0556  -37.6639   -7.2313 C   0  0  0  0  0  0  0  0  0  0  0  0
  -20.7435  -37.7477   -6.8237 C   0  0  0  0  0  0  0  0  0  0  0  0
  -21.7096  -37.4542  -10.9107 O   0  0  0  0  0  0  0  0  0  0  0  0
  -20.9041  -38.0928  -11.8718 C   0  0  0  0  0  0  0  0  0  0  0  0
  -16.3444  -39.2906   -6.9600 C   0  0  2  0  0  0  0  0  0  0  0  0
  -15.7625  -38.0219   -7.0919 O   0  0  0  0  0  0  0  0  0  0  0  0
  -15.5157  -40.2111   -7.8346 C   0  0  0  0  0  0  0  0  0  0  0  0
  -14.1023  -40.1585   -7.5517 N   0  0  0  0  0  0  0  0  0  0  0  0
  -13.3579  -41.1300   -8.3325 C   0  0  0  0  0  0  0  0  0  0  0  0
  -13.6638  -40.9734   -9.7925 C   0  0  0  0  0  0  0  0  0  0  0  0
  -14.3472  -41.9678  -10.4692 C   0  0  0  0  0  0  0  0  0  0  0  0
  -14.6481  -41.8673  -11.8066 C   0  0  0  0  0  0  0  0  0  0  0  0
  -14.2621  -40.7461  -12.5061 C   0  0  0  0  0  0  0  0  0  0  0  0
  -13.5728  -39.7357  -11.8390 C   0  0  0  0  0  0  0  0  0  0  0  0
  -13.2819  -39.8570  -10.4992 C   0  0  0  0  0  0  0  0  0  0  0  0
  -15.3859  -42.9451  -12.5076 C   0  0  0  0  0  0  0  0  0  0  0  0
  -16.1156  -43.8407  -11.5548 C   0  0  0  0  0  0  0  0  0  0  0  0
  -14.3489  -43.7208  -13.3088 C   0  0  0  0  0  0  0  0  0  0  0  0
  1  2  1  0
  2  3  1  0
  3  4  1  0
  4  5  1  0
  5  6  2  0
  6  7  1  0
  7  8  1  0
  8  9  1  0
  9 10  1  0
  7 11  2  0
 11 12  1  0
 12 13  2  0
 12 14  1  0
 14 15  2  0
 14 16  1  0
 16 17  1  0
 17 18  1  1
 18 19  1  0
 19 20  2  0
 20 21  1  0
 21 22  2  0
 22 23  1  0
 23 24  2  0
 21 25  1  0
 25 26  1  0
 17 27  1  0
 27 28  1  6
 27 29  1  0
 29 30  1  0
 30 31  1  0
 31 32  1  0
 32 33  2  0
 33 34  1  0
 34 35  2  0
 35 36  1  0
 36 37  2  0
 34 38  1  0
 38 39  1  0
 38 40  1  0
 13  5  1  0
 24 19  1  0
 37 32  1  0
M  END
$$$$
