
     RDKit          3D

 40 42  0  0  0  0  0  0  0  0999 V2000
  -23.6079  -40.9270   -5.7873 C   0  0  0  0  0  0  0  0  0  0  0  0
  -23.6133  -39.9679   -6.9687 C   0  0  0  0  0  0  0  0  0  0  0  0
  -23.4336  -40.7088   -8.2658 C   0  0  0  0  0  0  0  0  0  0  0  0
  -23.5300  -39.8834   -9.4309 N   0  0  0  0  0  0  0  0  0  0  0  0
  -22.3798  -39.2715   -9.9925 C   0  0  0  0  0  0  0  0  0  0  0  0
  -22.4537  -38.4285  -11.0670 C   0  0  0  0  0  0  0  0  0  0  0  0
  -21.2854  -37.8756  -11.5790 C   0  0  0  0  0  0  0  0  0  0  0  0
  -21.3202  -36.9554  -12.7442 C   0  0  0  0  0  0  0  0  0  0  0  0
  -20.6900  -37.5020  -13.8392 O   0  0  0  0  0  0  0  0  0  0  0  0
  -21.4590  -38.4681  -14.4608 C   0  0  0  0  0  0  0  0  0  0  0  0
  -20.0491  -38.1785  -11.0005 C   0  0  0  0  0  0  0  0  0  0  0  0
  -19.9501  -39.0213   -9.9220 C   0  0  0  0  0  0  0  0  0  0  0  0
  -21.1164  -39.5534   -9.4365 C   0  0  0  0  0  0  0  0  0  0  0  0
  -18.6896  -39.3630   -9.2840 C   0  0  0  0  0  0  0  0  0  0  0  0
  -18.3707  -40.5899   -9.1405 O   0  0  0  0  0  0  0  0  0  0  0  0
  -17.7445  -38.4314   -8.7859 N   0  0  0  0  0  0  0  0  0  0  0  0
  -16.4424  -38.8389   -8.2757 C   0  0  1  0  0  0  0  0  0  0  0  0
  -15.3512  -37.9070   -8.6535 C   0  0  0  0  0  0  0  0  0  0  0  0
  -15.5128  -37.2438   -9.9456 C   0  0  0  0  0  0  0  0  0  0  0  0
  -15.7065  -35.8885   -9.9967 C   0  0  0  0  0  0  0  0  0  0  0  0
  -15.8703  -35.1665  -11.1792 C   0  0  0  0  0  0  0  0  0  0  0  0
  -15.8242  -35.9202  -12.3320 C   0  0  0  0  0  0  0  0  0  0  0  0
  -15.6298  -37.2905  -12.3044 C   0  0  0  0  0  0  0  0  0  0  0  0
  -15.4731  -37.9639  -11.1141 C   0  0  0  0  0  0  0  0  0  0  0  0
  -16.0632  -33.7958  -11.1635 O   0  0  0  0  0  0  0  0  0  0  0  0
  -15.4898  -32.9925  -10.1604 C   0  0  0  0  0  0  0  0  0  0  0  0
  -16.5036  -39.1659   -6.7917 C   0  0  2  0  0  0  0  0  0  0  0  0
  -15.4513  -40.0666   -6.5752 O   0  0  0  0  0  0  0  0  0  0  0  0
  -17.7729  -39.9526   -6.5288 C   0  0  0  0  0  0  0  0  0  0  0  0
  -17.6239  -40.9666   -5.5139 N   0  0  0  0  0  0  0  0  0  0  0  0
  -17.7502  -42.3045   -6.0633 C   0  0  0  0  0  0  0  0  0  0  0  0
  -19.0607  -42.9137   -5.6620 C   0  0  0  0  0  0  0  0  0  0  0  0
  -19.6567  -42.5534   -4.4666 C   0  0  0  0  0  0  0  0  0  0  0  0
  -20.8561  -43.0867   -4.0585 C   0  0  0  0  0  0  0  0  0  0  0  0
  -21.4942  -44.0099   -4.8559 C   0  0  0  0  0  0  0  0  0  0  0  0
  -20.9067  -44.3833   -6.0628 C   0  0  0  0  0  0  0  0  0  0  0  0
  -19.7051  -43.8368   -6.4521 C   0  0  0  0  0  0  0  0  0  0  0  0
  -21.4763  -42.6803   -2.7749 C   0  0  0  0  0  0  0  0  0  0  0  0
  -22.5613  -41.6666   -2.9690 C   0  0  0  0  0  0  0  0  0  0  0  0
  -20.3501  -42.1242   -1.9139 C   0  0  0  0  0  0  0  0  0  0  0  0
  1  2  1  0
  2  3  1  0
  3  4  1  0
  4  5  1  0
  5  6  2  0
  6  7  1  0
  7  8  1  0
  8  9  1  0
  9 10  1  0
  7 11  2  0
 11 12  1  0
 12 13  2  0
 12 14  1  0
 14 15  2  0
 14 16  1  0
 16 17  1  0
 17 18  1  1
 18 19  1  0
 19 20  2  0
 20 21  1  0
 21 22  2  0
 22 23  1  0
 23 24  2  0
 21 25  1  0
 25 26  1  0
 17 27  1  0
 27 28  1  6
 27 29  1  0
 29 30  1  0
 30 31  1  0
 31 32  1  0
 32 33  2  0
 33 34  1  0
 34 35  2  0
 35 36  1  0
 36 37  2  0
 34 38  1  0
 38 39  1  0
 38 40  1  0
 13  5  1  0
 24 19  1  0
 37 32  1  0
M  END
$$$$
