
     RDKit          3D

 40 42  0  0  0  0  0  0  0  0999 V2000
  -24.9846  -44.3143   -3.5767 C   0  0  0  0  0  0  0  0  0  0  0  0
  -24.5286  -43.6464   -4.8657 C   0  0  0  0  0  0  0  0  0  0  0  0
  -23.0269  -43.6056   -4.9501 C   0  0  0  0  0  0  0  0  0  0  0  0
  -22.5222  -43.1922   -6.2238 N   0  0  0  0  0  0  0  0  0  0  0  0
  -21.2650  -43.6488   -6.6970 C   0  0  0  0  0  0  0  0  0  0  0  0
  -20.9900  -44.9772   -6.8703 C   0  0  0  0  0  0  0  0  0  0  0  0
  -19.7312  -45.3578   -7.3215 C   0  0  0  0  0  0  0  0  0  0  0  0
  -19.3906  -46.7892   -7.5236 C   0  0  0  0  0  0  0  0  0  0  0  0
  -18.2525  -47.1405   -6.8333 O   0  0  0  0  0  0  0  0  0  0  0  0
  -18.5302  -47.5927   -5.5568 C   0  0  0  0  0  0  0  0  0  0  0  0
  -18.7582  -44.3919   -7.5950 C   0  0  0  0  0  0  0  0  0  0  0  0
  -19.0108  -43.0532   -7.4288 C   0  0  0  0  0  0  0  0  0  0  0  0
  -20.2592  -42.7044   -6.9827 C   0  0  0  0  0  0  0  0  0  0  0  0
  -18.0343  -42.0124   -7.7034 C   0  0  0  0  0  0  0  0  0  0  0  0
  -17.6471  -41.8153   -8.9030 O   0  0  0  0  0  0  0  0  0  0  0  0
  -17.4470  -41.1630   -6.7324 N   0  0  0  0  0  0  0  0  0  0  0  0
  -17.0479  -39.7948   -7.0325 C   0  0  1  0  0  0  0  0  0  0  0  0
  -17.9846  -38.7817   -6.4866 C   0  0  0  0  0  0  0  0  0  0  0  0
  -19.3838  -38.9491   -6.8736 C   0  0  0  0  0  0  0  0  0  0  0  0
  -19.7469  -38.8241   -8.1888 C   0  0  0  0  0  0  0  0  0  0  0  0
  -21.0539  -38.9662   -8.6556 C   0  0  0  0  0  0  0  0  0  0  0  0
  -21.9905  -39.2494   -7.6851 C   0  0  0  0  0  0  0  0  0  0  0  0
  -21.6466  -39.3801   -6.3507 C   0  0  0  0  0  0  0  0  0  0  0  0
  -20.3435  -39.2311   -5.9329 C   0  0  0  0  0  0  0  0  0  0  0  0
  -21.3563  -38.8270   -9.9992 O   0  0  0  0  0  0  0  0  0  0  0  0
  -20.3583  -38.5123  -10.9401 C   0  0  0  0  0  0  0  0  0  0  0  0
  -15.5874  -39.5520   -6.6843 C   0  0  2  0  0  0  0  0  0  0  0  0
  -15.3158  -38.2555   -7.1436 O   0  0  0  0  0  0  0  0  0  0  0  0
  -14.7349  -40.4722   -7.5361 C   0  0  0  0  0  0  0  0  0  0  0  0
  -13.8569  -39.7721   -8.4414 N   0  0  0  0  0  0  0  0  0  0  0  0
  -13.9181  -40.3185   -9.7851 C   0  0  0  0  0  0  0  0  0  0  0  0
  -14.1917  -39.2305  -10.7807 C   0  0  0  0  0  0  0  0  0  0  0  0
  -13.3840  -38.1080  -10.8219 C   0  0  0  0  0  0  0  0  0  0  0  0
  -13.5981  -37.0865  -11.7164 C   0  0  0  0  0  0  0  0  0  0  0  0
  -14.6466  -37.1714  -12.6045 C   0  0  0  0  0  0  0  0  0  0  0  0
  -15.4693  -38.2954  -12.5755 C   0  0  0  0  0  0  0  0  0  0  0  0
  -15.2368  -39.3067  -11.6714 C   0  0  0  0  0  0  0  0  0  0  0  0
  -12.7150  -35.8962  -11.7435 C   0  0  0  0  0  0  0  0  0  0  0  0
  -11.3729  -36.1760  -11.1410 C   0  0  0  0  0  0  0  0  0  0  0  0
  -13.4472  -34.8041  -10.9752 C   0  0  0  0  0  0  0  0  0  0  0  0
  1  2  1  0
  2  3  1  0
  3  4  1  0
  4  5  1  0
  5  6  2  0
  6  7  1  0
  7  8  1  0
  8  9  1  0
  9 10  1  0
  7 11  2  0
 11 12  1  0
 12 13  2  0
 12 14  1  0
 14 15  2  0
 14 16  1  0
 16 17  1  0
 17 18  1  1
 18 19  1  0
 19 20  2  0
 20 21  1  0
 21 22  2  0
 22 23  1  0
 23 24  2  0
 21 25  1  0
 25 26  1  0
 17 27  1  0
 27 28  1  6
 27 29  1  0
 29 30  1  0
 30 31  1  0
 31 32  1  0
 32 33  2  0
 33 34  1  0
 34 35  2  0
 35 36  1  0
 36 37  2  0
 34 38  1  0
 38 39  1  0
 38 40  1  0
 13  5  1  0
 24 19  1  0
 37 32  1  0
M  END
$$$$
