
     RDKit          3D

 40 43  0  0  0  0  0  0  0  0999 V2000
  -16.1976  -33.7105  -12.5508 C   0  0  0  0  0  0  0  0  0  0  0  0
  -15.3376  -34.9682  -12.6013 C   0  0  0  0  0  0  0  0  0  0  0  0
  -15.8953  -35.8206  -13.7251 C   0  0  0  0  0  0  0  0  0  0  0  0
  -15.4576  -35.6878  -11.3106 C   0  0  0  0  0  0  0  0  0  0  0  0
  -14.7107  -36.8117  -11.1031 C   0  0  0  0  0  0  0  0  0  0  0  0
  -14.8174  -37.4840   -9.9027 C   0  0  0  0  0  0  0  0  0  0  0  0
  -13.9901  -38.6952   -9.7015 C   0  0  0  0  0  0  0  0  0  0  0  0
  -14.0879  -39.1014   -8.3183 N   0  0  0  0  0  0  0  0  0  0  0  0
  -15.2305  -38.4491   -7.6496 C   0  0  0  0  0  0  0  0  0  0  0  0
  -16.3311  -39.4736   -7.6578 C   0  0  1  0  0  0  0  0  0  0  0  0
  -17.0818  -39.5341   -6.5189 O   0  0  0  0  0  0  0  0  0  0  0  0
  -17.1954  -39.4559   -8.8938 C   0  0  2  0  0  0  0  0  0  0  0  0
  -18.2392  -38.4152   -8.7270 C   0  0  0  0  0  0  0  0  0  0  0  0
  -19.6615  -38.7938   -8.5389 C   0  0  0  0  0  0  0  0  0  0  0  0
  -20.3058  -39.4268   -7.4932 C   0  0  0  0  0  0  0  0  0  0  0  0
  -21.6549  -39.7056   -7.4966 C   0  0  0  0  0  0  0  0  0  0  0  0
  -22.5971  -40.3603   -6.5831 C   0  0  0  0  0  0  0  0  0  0  0  0
  -22.1792  -41.0572   -5.3677 C   0  0  0  0  0  0  0  0  0  0  0  0
  -21.9898  -40.3074   -4.2122 C   0  0  0  0  0  0  0  0  0  0  0  0
  -21.6039  -40.7822   -2.9883 C   0  0  0  0  0  0  0  0  0  0  0  0
  -21.3709  -42.1289   -2.8462 C   0  0  0  0  0  0  0  0  0  0  0  0
  -21.5487  -42.9056   -3.9718 C   0  0  0  0  0  0  0  0  0  0  0  0
  -21.9410  -42.4228   -5.2175 C   0  0  0  0  0  0  0  0  0  0  0  0
  -22.0567  -43.3661   -6.1978 O   0  0  0  0  0  0  0  0  0  0  0  0
  -21.6708  -43.4810   -7.5463 C   0  0  0  0  0  0  0  0  0  0  0  0
  -20.3487  -44.1734   -7.7045 C   0  0  0  0  0  0  0  0  0  0  0  0
  -20.4268  -45.3976   -7.3063 O   0  0  0  0  0  0  0  0  0  0  0  0
  -19.1381  -43.7361   -8.1797 N   0  0  0  0  0  0  0  0  0  0  0  0
  -18.2770  -42.6287   -7.7018 C   0  0  1  0  0  0  0  0  0  0  0  0
  -17.2022  -43.1822   -6.7781 C   0  0  0  0  0  0  0  0  0  0  0  0
  -17.5404  -42.0317   -8.8555 C   0  0  0  0  0  0  0  0  0  0  0  0
  -16.7582  -42.9087   -9.3978 O   0  0  0  0  0  0  0  0  0  0  0  0
  -17.6146  -40.7307   -9.3573 N   0  0  0  0  0  0  0  0  0  0  0  0
  -22.3990  -39.3175   -8.6296 C   0  0  0  0  0  0  0  0  0  0  0  0
  -23.8290  -39.6036   -8.6488 O   0  0  0  0  0  0  0  0  0  0  0  0
  -21.8340  -38.6970   -9.6824 C   0  0  0  0  0  0  0  0  0  0  0  0
  -20.4961  -38.4450   -9.6305 C   0  0  0  0  0  0  0  0  0  0  0  0
  -15.6658  -37.0239   -8.9326 C   0  0  0  0  0  0  0  0  0  0  0  0
  -16.3988  -35.8920   -9.1790 C   0  0  0  0  0  0  0  0  0  0  0  0
  -16.3210  -35.1976  -10.3559 C   0  0  0  0  0  0  0  0  0  0  0  0
  1  2  1  0
  2  3  1  0
  2  4  1  0
  4  5  2  0
  5  6  1  0
  6  7  1  0
  7  8  1  0
  8  9  1  0
  9 10  1  0
 10 11  1  1
 10 12  1  0
 12 13  1  1
 13 14  1  0
 14 15  1  0
 15 16  2  0
 16 17  1  0
 17 18  1  0
 18 19  2  0
 19 20  1  0
 20 21  2  0
 21 22  1  0
 22 23  2  0
 23 24  1  0
 24 25  1  0
 25 26  1  0
 26 27  2  0
 26 28  1  0
 28 29  1  0
 29 30  1  1
 29 31  1  0
 31 32  2  0
 31 33  1  0
 16 34  1  0
 34 35  1  0
 34 36  2  0
 36 37  1  0
  6 38  2  0
 38 39  1  0
 39 40  2  0
 23 18  1  0
 33 12  1  0
 37 14  2  0
 40  4  1  0
M  END
$$$$
