
     RDKit          3D

 40 43  0  0  0  0  0  0  0  0999 V2000
  -16.4751  -32.9287  -11.4723 C   0  0  0  0  0  0  0  0  0  0  0  0
  -15.6896  -33.7181  -10.4311 C   0  0  0  0  0  0  0  0  0  0  0  0
  -14.5221  -32.8401  -10.0227 C   0  0  0  0  0  0  0  0  0  0  0  0
  -15.1916  -34.9704  -11.0487 C   0  0  0  0  0  0  0  0  0  0  0  0
  -14.6722  -35.9468  -10.2481 C   0  0  0  0  0  0  0  0  0  0  0  0
  -14.2090  -37.1151  -10.8180 C   0  0  0  0  0  0  0  0  0  0  0  0
  -13.6582  -38.1602   -9.9256 C   0  0  0  0  0  0  0  0  0  0  0  0
  -14.6419  -39.2075   -9.7724 N   0  0  0  0  0  0  0  0  0  0  0  0
  -14.7387  -39.6479   -8.3671 C   0  0  0  0  0  0  0  0  0  0  0  0
  -16.1287  -39.2755   -7.9307 C   0  0  1  0  0  0  0  0  0  0  0  0
  -16.2029  -38.2641   -7.0165 O   0  0  0  0  0  0  0  0  0  0  0  0
  -17.1089  -39.0782   -9.0599 C   0  0  2  0  0  0  0  0  0  0  0  0
  -18.0845  -38.0336   -8.6631 C   0  0  0  0  0  0  0  0  0  0  0  0
  -19.4966  -38.3874   -8.3759 C   0  0  0  0  0  0  0  0  0  0  0  0
  -20.0618  -39.1238   -7.3524 C   0  0  0  0  0  0  0  0  0  0  0  0
  -21.4157  -39.3573   -7.2498 C   0  0  0  0  0  0  0  0  0  0  0  0
  -22.2911  -40.0896   -6.3289 C   0  0  0  0  0  0  0  0  0  0  0  0
  -21.7864  -40.9439   -5.2551 C   0  0  0  0  0  0  0  0  0  0  0  0
  -21.4512  -40.3487   -4.0441 C   0  0  0  0  0  0  0  0  0  0  0  0
  -20.9678  -40.9828   -2.9321 C   0  0  0  0  0  0  0  0  0  0  0  0
  -20.7813  -42.3434   -2.9767 C   0  0  0  0  0  0  0  0  0  0  0  0
  -21.1032  -42.9693   -4.1626 C   0  0  0  0  0  0  0  0  0  0  0  0
  -21.5947  -42.3244   -5.2945 C   0  0  0  0  0  0  0  0  0  0  0  0
  -21.8478  -43.1355   -6.3633 O   0  0  0  0  0  0  0  0  0  0  0  0
  -21.6021  -43.0953   -7.7484 C   0  0  0  0  0  0  0  0  0  0  0  0
  -20.3338  -43.8044   -8.1238 C   0  0  0  0  0  0  0  0  0  0  0  0
  -20.4259  -45.0653   -7.8689 O   0  0  0  0  0  0  0  0  0  0  0  0
  -19.1579  -43.3503   -8.6658 N   0  0  0  0  0  0  0  0  0  0  0  0
  -18.2061  -42.3380   -8.1504 C   0  0  1  0  0  0  0  0  0  0  0  0
  -17.0708  -43.0349   -7.4153 C   0  0  0  0  0  0  0  0  0  0  0  0
  -17.5613  -41.6269   -9.2943 C   0  0  0  0  0  0  0  0  0  0  0  0
  -16.8756  -42.4546  -10.0153 O   0  0  0  0  0  0  0  0  0  0  0  0
  -17.6274  -40.2722   -9.6266 N   0  0  0  0  0  0  0  0  0  0  0  0
  -22.2501  -38.8091   -8.2455 C   0  0  0  0  0  0  0  0  0  0  0  0
  -23.6862  -39.0454   -8.1511 O   0  0  0  0  0  0  0  0  0  0  0  0
  -21.7649  -38.0817   -9.2692 C   0  0  0  0  0  0  0  0  0  0  0  0
  -20.4186  -37.8804   -9.3260 C   0  0  0  0  0  0  0  0  0  0  0  0
  -14.2720  -37.2881  -12.1740 C   0  0  0  0  0  0  0  0  0  0  0  0
  -14.8004  -36.2845  -12.9439 C   0  0  0  0  0  0  0  0  0  0  0  0
  -15.2699  -35.1119  -12.4166 C   0  0  0  0  0  0  0  0  0  0  0  0
  1  2  1  0
  2  3  1  0
  2  4  1  0
  4  5  2  0
  5  6  1  0
  6  7  1  0
  7  8  1  0
  8  9  1  0
  9 10  1  0
 10 11  1  6
 10 12  1  0
 12 13  1  1
 13 14  1  0
 14 15  1  0
 15 16  2  0
 16 17  1  0
 17 18  1  0
 18 19  2  0
 19 20  1  0
 20 21  2  0
 21 22  1  0
 22 23  2  0
 23 24  1  0
 24 25  1  0
 25 26  1  0
 26 27  2  0
 26 28  1  0
 28 29  1  0
 29 30  1  6
 29 31  1  0
 31 32  2  0
 31 33  1  0
 16 34  1  0
 34 35  1  0
 34 36  2  0
 36 37  1  0
  6 38  2  0
 38 39  1  0
 39 40  2  0
 23 18  1  0
 33 12  1  0
 37 14  2  0
 40  4  1  0
M  END
$$$$
