
     RDKit          3D

 40 43  0  0  0  0  0  0  0  0999 V2000
  -17.8012  -38.3826  -13.1863 C   0  0  0  0  0  0  0  0  0  0  0  0
  -17.4421  -36.9076  -13.0470 C   0  0  0  0  0  0  0  0  0  0  0  0
  -16.7858  -36.5038  -14.3535 C   0  0  0  0  0  0  0  0  0  0  0  0
  -16.4843  -36.7471  -11.9268 C   0  0  0  0  0  0  0  0  0  0  0  0
  -15.8811  -37.8542  -11.4029 C   0  0  0  0  0  0  0  0  0  0  0  0
  -14.9874  -37.7099  -10.3614 C   0  0  0  0  0  0  0  0  0  0  0  0
  -14.3419  -38.9265   -9.8177 C   0  0  0  0  0  0  0  0  0  0  0  0
  -14.4166  -38.8882   -8.3752 N   0  0  0  0  0  0  0  0  0  0  0  0
  -15.1320  -40.0655   -7.8459 C   0  0  0  0  0  0  0  0  0  0  0  0
  -16.4644  -39.5439   -7.3837 C   0  0  1  0  0  0  0  0  0  0  0  0
  -16.4112  -38.4809   -6.5285 O   0  0  0  0  0  0  0  0  0  0  0  0
  -17.4677  -39.3205   -8.4875 C   0  0  2  0  0  0  0  0  0  0  0  0
  -18.4391  -38.2911   -8.0436 C   0  0  0  0  0  0  0  0  0  0  0  0
  -19.8438  -38.6583   -7.7380 C   0  0  0  0  0  0  0  0  0  0  0  0
  -20.3858  -39.4242   -6.7236 C   0  0  0  0  0  0  0  0  0  0  0  0
  -21.7365  -39.6661   -6.6005 C   0  0  0  0  0  0  0  0  0  0  0  0
  -22.5906  -40.4264   -5.6824 C   0  0  0  0  0  0  0  0  0  0  0  0
  -22.0616  -41.3071   -4.6421 C   0  0  0  0  0  0  0  0  0  0  0  0
  -21.7044  -40.7431   -3.4224 C   0  0  0  0  0  0  0  0  0  0  0  0
  -21.1966  -41.4047   -2.3377 C   0  0  0  0  0  0  0  0  0  0  0  0
  -21.0061  -42.7628   -2.4225 C   0  0  0  0  0  0  0  0  0  0  0  0
  -21.3492  -43.3581   -3.6182 C   0  0  0  0  0  0  0  0  0  0  0  0
  -21.8656  -42.6852   -4.7224 C   0  0  0  0  0  0  0  0  0  0  0  0
  -22.1370  -43.4685   -5.8073 O   0  0  0  0  0  0  0  0  0  0  0  0
  -21.9191  -43.3902   -7.1955 C   0  0  0  0  0  0  0  0  0  0  0  0
  -20.6560  -44.0836   -7.6149 C   0  0  0  0  0  0  0  0  0  0  0  0
  -20.7384  -45.3512   -7.3921 O   0  0  0  0  0  0  0  0  0  0  0  0
  -19.4928  -43.6102   -8.1677 N   0  0  0  0  0  0  0  0  0  0  0  0
  -18.5346  -42.6081   -7.6443 C   0  0  1  0  0  0  0  0  0  0  0  0
  -17.3823  -43.3197   -6.9508 C   0  0  0  0  0  0  0  0  0  0  0  0
  -17.9154  -41.8639   -8.7812 C   0  0  0  0  0  0  0  0  0  0  0  0
  -17.2412  -42.6692   -9.5376 O   0  0  0  0  0  0  0  0  0  0  0  0
  -17.9930  -40.5012   -9.0757 N   0  0  0  0  0  0  0  0  0  0  0  0
  -22.5926  -39.0949   -7.5644 C   0  0  0  0  0  0  0  0  0  0  0  0
  -24.0256  -39.3397   -7.4478 O   0  0  0  0  0  0  0  0  0  0  0  0
  -22.1305  -38.3383   -8.5776 C   0  0  0  0  0  0  0  0  0  0  0  0
  -20.7864  -38.1300   -8.6557 C   0  0  0  0  0  0  0  0  0  0  0  0
  -14.7120  -36.4661   -9.8620 C   0  0  0  0  0  0  0  0  0  0  0  0
  -15.3380  -35.3791  -10.4149 C   0  0  0  0  0  0  0  0  0  0  0  0
  -16.2299  -35.4809  -11.4480 C   0  0  0  0  0  0  0  0  0  0  0  0
  1  2  1  0
  2  3  1  0
  2  4  1  0
  4  5  2  0
  5  6  1  0
  6  7  1  0
  7  8  1  0
  8  9  1  0
  9 10  1  0
 10 11  1  6
 10 12  1  0
 12 13  1  1
 13 14  1  0
 14 15  1  0
 15 16  2  0
 16 17  1  0
 17 18  1  0
 18 19  2  0
 19 20  1  0
 20 21  2  0
 21 22  1  0
 22 23  2  0
 23 24  1  0
 24 25  1  0
 25 26  1  0
 26 27  2  0
 26 28  1  0
 28 29  1  0
 29 30  1  6
 29 31  1  0
 31 32  2  0
 31 33  1  0
 16 34  1  0
 34 35  1  0
 34 36  2  0
 36 37  1  0
  6 38  2  0
 38 39  1  0
 39 40  2  0
 23 18  1  0
 33 12  1  0
 37 14  2  0
 40  4  1  0
M  END
$$$$
