
     RDKit          3D

 40 43  0  0  0  0  0  0  0  0999 V2000
  -12.7141  -44.4972  -12.5485 C   0  0  0  0  0  0  0  0  0  0  0  0
  -13.6744  -43.8514  -11.5562 C   0  0  0  0  0  0  0  0  0  0  0  0
  -14.4514  -42.8064  -12.3340 C   0  0  0  0  0  0  0  0  0  0  0  0
  -12.8909  -43.2030  -10.4775 C   0  0  0  0  0  0  0  0  0  0  0  0
  -13.4047  -42.1051   -9.8493 C   0  0  0  0  0  0  0  0  0  0  0  0
  -12.6801  -41.4991   -8.8433 C   0  0  0  0  0  0  0  0  0  0  0  0
  -13.2647  -40.3150   -8.1738 C   0  0  0  0  0  0  0  0  0  0  0  0
  -14.5142  -40.6980   -7.5576 N   0  0  0  0  0  0  0  0  0  0  0  0
  -14.9570  -39.6889   -6.5759 C   0  0  0  0  0  0  0  0  0  0  0  0
  -16.4375  -39.5454   -6.7965 C   0  0  1  0  0  0  0  0  0  0  0  0
  -17.0647  -38.6445   -5.9845 O   0  0  0  0  0  0  0  0  0  0  0  0
  -16.8428  -39.3711   -8.2388 C   0  0  2  0  0  0  0  0  0  0  0  0
  -17.7775  -38.2231   -8.3329 C   0  0  0  0  0  0  0  0  0  0  0  0
  -19.2124  -38.4394   -8.6422 C   0  0  0  0  0  0  0  0  0  0  0  0
  -20.2221  -39.0377   -7.9129 C   0  0  0  0  0  0  0  0  0  0  0  0
  -21.5159  -39.1551   -8.3714 C   0  0  0  0  0  0  0  0  0  0  0  0
  -22.7643  -39.7340   -7.8643 C   0  0  0  0  0  0  0  0  0  0  0  0
  -22.8376  -40.5284   -6.6391 C   0  0  0  0  0  0  0  0  0  0  0  0
  -22.9656  -39.8581   -5.4277 C   0  0  0  0  0  0  0  0  0  0  0  0
  -23.0503  -40.4288   -4.1870 C   0  0  0  0  0  0  0  0  0  0  0  0
  -23.0086  -41.7985   -4.0861 C   0  0  0  0  0  0  0  0  0  0  0  0
  -22.8821  -42.4982   -5.2678 C   0  0  0  0  0  0  0  0  0  0  0  0
  -22.7955  -41.9178   -6.5304 C   0  0  0  0  0  0  0  0  0  0  0  0
  -22.6744  -42.7966   -7.5684 O   0  0  0  0  0  0  0  0  0  0  0  0
  -21.8808  -42.8963   -8.7263 C   0  0  0  0  0  0  0  0  0  0  0  0
  -20.6537  -43.7321   -8.5070 C   0  0  0  0  0  0  0  0  0  0  0  0
  -20.9764  -44.9550   -8.2546 O   0  0  0  0  0  0  0  0  0  0  0  0
  -19.3179  -43.4199   -8.5319 N   0  0  0  0  0  0  0  0  0  0  0  0
  -18.5579  -42.4440   -7.7157 C   0  0  1  0  0  0  0  0  0  0  0  0
  -17.9043  -43.1607   -6.5434 C   0  0  0  0  0  0  0  0  0  0  0  0
  -17.4295  -41.8875   -8.5201 C   0  0  0  0  0  0  0  0  0  0  0  0
  -16.6018  -42.8257   -8.8512 O   0  0  0  0  0  0  0  0  0  0  0  0
  -17.2086  -40.5659   -8.9131 N   0  0  0  0  0  0  0  0  0  0  0  0
  -21.8061  -38.6322   -9.6483 C   0  0  0  0  0  0  0  0  0  0  0  0
  -23.1714  -38.7466  -10.1482 O   0  0  0  0  0  0  0  0  0  0  0  0
  -20.8698  -38.0366  -10.4107 C   0  0  0  0  0  0  0  0  0  0  0  0
  -19.6050  -37.9466   -9.9122 C   0  0  0  0  0  0  0  0  0  0  0  0
  -11.4582  -41.9983   -8.4826 C   0  0  0  0  0  0  0  0  0  0  0  0
  -10.9766  -43.1023   -9.1372 C   0  0  0  0  0  0  0  0  0  0  0  0
  -11.6646  -43.7312  -10.1394 C   0  0  0  0  0  0  0  0  0  0  0  0
  1  2  1  0
  2  3  1  0
  2  4  1  0
  4  5  2  0
  5  6  1  0
  6  7  1  0
  7  8  1  0
  8  9  1  0
  9 10  1  0
 10 11  1  1
 10 12  1  0
 12 13  1  1
 13 14  1  0
 14 15  1  0
 15 16  2  0
 16 17  1  0
 17 18  1  0
 18 19  2  0
 19 20  1  0
 20 21  2  0
 21 22  1  0
 22 23  2  0
 23 24  1  0
 24 25  1  0
 25 26  1  0
 26 27  2  0
 26 28  1  0
 28 29  1  0
 29 30  1  1
 29 31  1  0
 31 32  2  0
 31 33  1  0
 16 34  1  0
 34 35  1  0
 34 36  2  0
 36 37  1  0
  6 38  2  0
 38 39  1  0
 39 40  2  0
 23 18  1  0
 33 12  1  0
 37 14  2  0
 40  4  1  0
M  END
$$$$
