
     RDKit          3D

 40 43  0  0  0  0  0  0  0  0999 V2000
  -14.1784  -36.3926   -9.1821 C   0  0  0  0  0  0  0  0  0  0  0  0
  -12.7675  -36.4267   -9.7586 C   0  0  0  0  0  0  0  0  0  0  0  0
  -12.5170  -35.0538  -10.3529 C   0  0  0  0  0  0  0  0  0  0  0  0
  -12.7042  -37.4590  -10.8207 C   0  0  0  0  0  0  0  0  0  0  0  0
  -13.7677  -38.2965  -10.9993 C   0  0  0  0  0  0  0  0  0  0  0  0
  -13.7144  -39.2578  -11.9879 C   0  0  0  0  0  0  0  0  0  0  0  0
  -14.8848  -40.1472  -12.1647 C   0  0  0  0  0  0  0  0  0  0  0  0
  -15.2808  -40.6582  -10.8724 N   0  0  0  0  0  0  0  0  0  0  0  0
  -15.1935  -39.6121   -9.8349 C   0  0  0  0  0  0  0  0  0  0  0  0
  -16.5718  -39.5296   -9.2395 C   0  0  1  0  0  0  0  0  0  0  0  0
  -16.7706  -38.4986   -8.3666 O   0  0  0  0  0  0  0  0  0  0  0  0
  -17.6950  -39.6356  -10.2405 C   0  0  2  0  0  0  0  0  0  0  0  0
  -18.6704  -38.5501   -9.9749 C   0  0  0  0  0  0  0  0  0  0  0  0
  -20.0134  -38.8580   -9.4245 C   0  0  0  0  0  0  0  0  0  0  0  0
  -20.4042  -39.3379   -8.1891 C   0  0  0  0  0  0  0  0  0  0  0  0
  -21.7194  -39.5725   -7.8526 C   0  0  0  0  0  0  0  0  0  0  0  0
  -22.4305  -40.0809   -6.6751 C   0  0  0  0  0  0  0  0  0  0  0  0
  -21.7486  -40.6370   -5.5075 C   0  0  0  0  0  0  0  0  0  0  0  0
  -21.2986  -39.7581   -4.5285 C   0  0  0  0  0  0  0  0  0  0  0  0
  -20.6453  -40.0918   -3.3735 C   0  0  0  0  0  0  0  0  0  0  0  0
  -20.3899  -41.4178   -3.1191 C   0  0  0  0  0  0  0  0  0  0  0  0
  -20.8218  -42.3200   -4.0684 C   0  0  0  0  0  0  0  0  0  0  0  0
  -21.4862  -41.9808   -5.2440 C   0  0  0  0  0  0  0  0  0  0  0  0
  -21.8250  -43.0326   -6.0460 O   0  0  0  0  0  0  0  0  0  0  0  0
  -21.7569  -43.3233   -7.4213 C   0  0  0  0  0  0  0  0  0  0  0  0
  -20.5076  -44.0711   -7.7853 C   0  0  0  0  0  0  0  0  0  0  0  0
  -20.4964  -45.2345   -7.2288 O   0  0  0  0  0  0  0  0  0  0  0  0
  -19.4360  -43.7335   -8.5728 N   0  0  0  0  0  0  0  0  0  0  0  0
  -18.4855  -42.6036   -8.4451 C   0  0  1  0  0  0  0  0  0  0  0  0
  -17.2300  -43.0738   -7.7256 C   0  0  0  0  0  0  0  0  0  0  0  0
  -18.0295  -42.1754   -9.8010 C   0  0  0  0  0  0  0  0  0  0  0  0
  -17.3940  -43.1362  -10.3909 O   0  0  0  0  0  0  0  0  0  0  0  0
  -18.2125  -40.9437  -10.4330 N   0  0  0  0  0  0  0  0  0  0  0  0
  -22.7011  -39.3024   -8.8281 C   0  0  0  0  0  0  0  0  0  0  0  0
  -24.0986  -39.5436   -8.4877 O   0  0  0  0  0  0  0  0  0  0  0  0
  -22.3891  -38.8331  -10.0508 C   0  0  0  0  0  0  0  0  0  0  0  0
  -21.0739  -38.6189  -10.3345 C   0  0  0  0  0  0  0  0  0  0  0  0
  -12.6033  -39.3664  -12.7790 C   0  0  0  0  0  0  0  0  0  0  0  0
  -11.5562  -38.5071  -12.5686 C   0  0  0  0  0  0  0  0  0  0  0  0
  -11.5708  -37.5410  -11.5991 C   0  0  0  0  0  0  0  0  0  0  0  0
  1  2  1  0
  2  3  1  0
  2  4  1  0
  4  5  2  0
  5  6  1  0
  6  7  1  0
  7  8  1  0
  8  9  1  0
  9 10  1  0
 10 11  1  6
 10 12  1  0
 12 13  1  1
 13 14  1  0
 14 15  1  0
 15 16  2  0
 16 17  1  0
 17 18  1  0
 18 19  2  0
 19 20  1  0
 20 21  2  0
 21 22  1  0
 22 23  2  0
 23 24  1  0
 24 25  1  0
 25 26  1  0
 26 27  2  0
 26 28  1  0
 28 29  1  0
 29 30  1  1
 29 31  1  0
 31 32  2  0
 31 33  1  0
 16 34  1  0
 34 35  1  0
 34 36  2  0
 36 37  1  0
  6 38  2  0
 38 39  1  0
 39 40  2  0
 23 18  1  0
 33 12  1  0
 37 14  2  0
 40  4  1  0
M  END
$$$$
