
     RDKit          3D

 40 43  0  0  0  0  0  0  0  0999 V2000
  -10.2833  -35.8429  -10.2667 C   0  0  0  0  0  0  0  0  0  0  0  0
  -11.4784  -35.8690  -11.2127 C   0  0  0  0  0  0  0  0  0  0  0  0
  -12.5206  -34.9477  -10.6079 C   0  0  0  0  0  0  0  0  0  0  0  0
  -12.0057  -37.2526  -11.2871 C   0  0  0  0  0  0  0  0  0  0  0  0
  -13.0854  -37.5955  -10.5252 C   0  0  0  0  0  0  0  0  0  0  0  0
  -13.5811  -38.8816  -10.5923 C   0  0  0  0  0  0  0  0  0  0  0  0
  -14.7576  -39.2238   -9.7612 C   0  0  0  0  0  0  0  0  0  0  0  0
  -14.6157  -40.5824   -9.2901 N   0  0  0  0  0  0  0  0  0  0  0  0
  -15.0236  -40.7031   -7.8769 C   0  0  0  0  0  0  0  0  0  0  0  0
  -16.2513  -39.8451   -7.7449 C   0  0  1  0  0  0  0  0  0  0  0  0
  -16.0516  -38.6240   -7.1675 O   0  0  0  0  0  0  0  0  0  0  0  0
  -17.0799  -39.7382   -9.0006 C   0  0  2  0  0  0  0  0  0  0  0  0
  -17.9029  -38.5066   -8.9218 C   0  0  0  0  0  0  0  0  0  0  0  0
  -19.3739  -38.5897   -8.7466 C   0  0  0  0  0  0  0  0  0  0  0  0
  -20.1423  -39.0185   -7.6813 C   0  0  0  0  0  0  0  0  0  0  0  0
  -21.5198  -39.0302   -7.7013 C   0  0  0  0  0  0  0  0  0  0  0  0
  -22.5830  -39.4310   -6.7741 C   0  0  0  0  0  0  0  0  0  0  0  0
  -22.3243  -40.1176   -5.5095 C   0  0  0  0  0  0  0  0  0  0  0  0
  -22.0069  -39.3473   -4.3963 C   0  0  0  0  0  0  0  0  0  0  0  0
  -21.7364  -39.8097   -3.1372 C   0  0  0  0  0  0  0  0  0  0  0  0
  -21.7722  -41.1643   -2.9095 C   0  0  0  0  0  0  0  0  0  0  0  0
  -22.0839  -41.9612   -3.9910 C   0  0  0  0  0  0  0  0  0  0  0  0
  -22.3588  -41.4912   -5.2725 C   0  0  0  0  0  0  0  0  0  0  0  0
  -22.6438  -42.4541   -6.1975 O   0  0  0  0  0  0  0  0  0  0  0  0
  -22.2707  -42.7264   -7.5269 C   0  0  0  0  0  0  0  0  0  0  0  0
  -21.1071  -43.6705   -7.6111 C   0  0  0  0  0  0  0  0  0  0  0  0
  -21.4274  -44.8288   -7.1429 O   0  0  0  0  0  0  0  0  0  0  0  0
  -19.8286  -43.5070   -8.0815 N   0  0  0  0  0  0  0  0  0  0  0  0
  -18.7743  -42.5595   -7.6492 C   0  0  1  0  0  0  0  0  0  0  0  0
  -17.8397  -43.2515   -6.6680 C   0  0  0  0  0  0  0  0  0  0  0  0
  -17.9209  -42.1907   -8.8178 C   0  0  0  0  0  0  0  0  0  0  0  0
  -17.3180  -43.2351   -9.2876 O   0  0  0  0  0  0  0  0  0  0  0  0
  -17.7338  -40.9342   -9.3978 N   0  0  0  0  0  0  0  0  0  0  0  0
  -22.1596  -38.5776   -8.8734 C   0  0  0  0  0  0  0  0  0  0  0  0
  -23.6176  -38.5818   -8.9108 O   0  0  0  0  0  0  0  0  0  0  0  0
  -21.4713  -38.1460   -9.9470 C   0  0  0  0  0  0  0  0  0  0  0  0
  -20.1107  -38.1554   -9.8773 C   0  0  0  0  0  0  0  0  0  0  0  0
  -12.9918  -39.8010  -11.4168 C   0  0  0  0  0  0  0  0  0  0  0  0
  -11.9096  -39.4182  -12.1661 C   0  0  0  0  0  0  0  0  0  0  0  0
  -11.3888  -38.1530  -12.1274 C   0  0  0  0  0  0  0  0  0  0  0  0
  1  2  1  0
  2  3  1  0
  2  4  1  0
  4  5  2  0
  5  6  1  0
  6  7  1  0
  7  8  1  0
  8  9  1  0
  9 10  1  0
 10 11  1  6
 10 12  1  0
 12 13  1  1
 13 14  1  0
 14 15  1  0
 15 16  2  0
 16 17  1  0
 17 18  1  0
 18 19  2  0
 19 20  1  0
 20 21  2  0
 21 22  1  0
 22 23  2  0
 23 24  1  0
 24 25  1  0
 25 26  1  0
 26 27  2  0
 26 28  1  0
 28 29  1  0
 29 30  1  1
 29 31  1  0
 31 32  2  0
 31 33  1  0
 16 34  1  0
 34 35  1  0
 34 36  2  0
 36 37  1  0
  6 38  2  0
 38 39  1  0
 39 40  2  0
 23 18  1  0
 33 12  1  0
 37 14  2  0
 40  4  1  0
M  END
$$$$
