
     RDKit          3D

 40 43  0  0  0  0  0  0  0  0999 V2000
  -21.8114  -41.7280   -2.9170 C   0  0  0  0  0  0  0  0  0  0  0  0
  -23.0882  -41.1614   -3.5274 C   0  0  0  0  0  0  0  0  0  0  0  0
  -23.9280  -42.3546   -3.9419 C   0  0  0  0  0  0  0  0  0  0  0  0
  -22.7363  -40.3502   -4.7173 C   0  0  0  0  0  0  0  0  0  0  0  0
  -21.6666  -40.7186   -5.4816 C   0  0  0  0  0  0  0  0  0  0  0  0
  -21.3362  -39.9679   -6.5913 C   0  0  0  0  0  0  0  0  0  0  0  0
  -20.1763  -40.3948   -7.4065 C   0  0  0  0  0  0  0  0  0  0  0  0
  -19.0689  -39.5048   -7.1427 N   0  0  0  0  0  0  0  0  0  0  0  0
  -18.9228  -38.5015   -8.2151 C   0  0  0  0  0  0  0  0  0  0  0  0
  -17.6579  -38.8755   -8.9371 C   0  0  1  0  0  0  0  0  0  0  0  0
  -17.1937  -37.9457   -9.8227 O   0  0  0  0  0  0  0  0  0  0  0  0
  -16.5569  -39.3938   -8.0461 C   0  0  2  0  0  0  0  0  0  0  0  0
  -15.5951  -38.2934   -7.7926 C   0  0  0  0  0  0  0  0  0  0  0  0
  -14.2342  -38.3273   -8.3828 C   0  0  0  0  0  0  0  0  0  0  0  0
  -13.8060  -38.2287   -9.6928 C   0  0  0  0  0  0  0  0  0  0  0  0
  -12.4792  -38.2884  -10.0592 C   0  0  0  0  0  0  0  0  0  0  0  0
  -11.7317  -38.2383  -11.3199 C   0  0  0  0  0  0  0  0  0  0  0  0
  -12.3759  -38.2441  -12.6323 C   0  0  0  0  0  0  0  0  0  0  0  0
  -12.8184  -37.0330  -13.1528 C   0  0  0  0  0  0  0  0  0  0  0  0
  -13.4383  -36.8431  -14.3577 C   0  0  0  0  0  0  0  0  0  0  0  0
  -13.6640  -37.9333  -15.1630 C   0  0  0  0  0  0  0  0  0  0  0  0
  -13.2385  -39.1529  -14.6799 C   0  0  0  0  0  0  0  0  0  0  0  0
  -12.6080  -39.3466  -13.4537 C   0  0  0  0  0  0  0  0  0  0  0  0
  -12.2695  -40.6387  -13.1704 O   0  0  0  0  0  0  0  0  0  0  0  0
  -12.3647  -41.4915  -12.0549 C   0  0  0  0  0  0  0  0  0  0  0  0
  -13.6086  -42.3307  -12.0827 C   0  0  0  0  0  0  0  0  0  0  0  0
  -13.5860  -43.1431  -13.0842 O   0  0  0  0  0  0  0  0  0  0  0  0
  -14.7043  -42.3698  -11.2579 N   0  0  0  0  0  0  0  0  0  0  0  0
  -15.6715  -41.3002  -10.9165 C   0  0  1  0  0  0  0  0  0  0  0  0
  -16.9012  -41.4240  -11.8040 C   0  0  0  0  0  0  0  0  0  0  0  0
  -16.1669  -41.4976   -9.5216 C   0  0  0  0  0  0  0  0  0  0  0  0
  -16.7988  -42.6224   -9.4190 O   0  0  0  0  0  0  0  0  0  0  0  0
  -16.0208  -40.6549   -8.4179 N   0  0  0  0  0  0  0  0  0  0  0  0
  -11.5258  -38.4567   -9.0341 C   0  0  0  0  0  0  0  0  0  0  0  0
  -10.1165  -38.5202   -9.4045 O   0  0  0  0  0  0  0  0  0  0  0  0
  -11.8747  -38.5591   -7.7379 C   0  0  0  0  0  0  0  0  0  0  0  0
  -13.1999  -38.4952   -7.4279 C   0  0  0  0  0  0  0  0  0  0  0  0
  -22.0773  -38.8650   -6.9181 C   0  0  0  0  0  0  0  0  0  0  0  0
  -23.1438  -38.5276   -6.1258 C   0  0  0  0  0  0  0  0  0  0  0  0
  -23.5033  -39.2462   -5.0178 C   0  0  0  0  0  0  0  0  0  0  0  0
  1  2  1  0
  2  3  1  0
  2  4  1  0
  4  5  2  0
  5  6  1  0
  6  7  1  0
  7  8  1  0
  8  9  1  0
  9 10  1  0
 10 11  1  1
 10 12  1  0
 12 13  1  6
 13 14  1  0
 14 15  1  0
 15 16  2  0
 16 17  1  0
 17 18  1  0
 18 19  2  0
 19 20  1  0
 20 21  2  0
 21 22  1  0
 22 23  2  0
 23 24  1  0
 24 25  1  0
 25 26  1  0
 26 27  2  0
 26 28  1  0
 28 29  1  0
 29 30  1  6
 29 31  1  0
 31 32  2  0
 31 33  1  0
 16 34  1  0
 34 35  1  0
 34 36  2  0
 36 37  1  0
  6 38  2  0
 38 39  1  0
 39 40  2  0
 23 18  1  0
 33 12  1  0
 37 14  2  0
 40  4  1  0
M  END
$$$$
