
     RDKit          3D

 40 43  0  0  0  0  0  0  0  0999 V2000
  -16.0917  -35.5565  -12.3494 C   0  0  0  0  0  0  0  0  0  0  0  0
  -14.6873  -35.7558  -11.7906 C   0  0  0  0  0  0  0  0  0  0  0  0
  -13.7315  -35.2223  -12.8406 C   0  0  0  0  0  0  0  0  0  0  0  0
  -14.4524  -37.2042  -11.5792 C   0  0  0  0  0  0  0  0  0  0  0  0
  -14.0323  -37.6389  -10.3550 C   0  0  0  0  0  0  0  0  0  0  0  0
  -13.8141  -38.9863  -10.1527 C   0  0  0  0  0  0  0  0  0  0  0  0
  -13.3664  -39.4307   -8.8132 C   0  0  0  0  0  0  0  0  0  0  0  0
  -14.3294  -38.9895   -7.8303 N   0  0  0  0  0  0  0  0  0  0  0  0
  -14.6726  -40.0768   -6.8933 C   0  0  0  0  0  0  0  0  0  0  0  0
  -16.1660  -40.2245   -6.9886 C   0  0  1  0  0  0  0  0  0  0  0  0
  -16.8812  -39.5582   -6.0352 O   0  0  0  0  0  0  0  0  0  0  0  0
  -16.7319  -39.9984   -8.3682 C   0  0  2  0  0  0  0  0  0  0  0  0
  -17.5718  -38.7760   -8.3413 C   0  0  0  0  0  0  0  0  0  0  0  0
  -19.0471  -38.8689   -8.4689 C   0  0  0  0  0  0  0  0  0  0  0  0
  -20.0045  -39.3913   -7.6204 C   0  0  0  0  0  0  0  0  0  0  0  0
  -21.3506  -39.3954   -7.9135 C   0  0  0  0  0  0  0  0  0  0  0  0
  -22.5700  -39.8759   -7.2556 C   0  0  0  0  0  0  0  0  0  0  0  0
  -22.5562  -40.6777   -6.0331 C   0  0  0  0  0  0  0  0  0  0  0  0
  -22.4757  -40.0151   -4.8133 C   0  0  0  0  0  0  0  0  0  0  0  0
  -22.4524  -40.5931   -3.5734 C   0  0  0  0  0  0  0  0  0  0  0  0
  -22.5131  -41.9628   -3.4823 C   0  0  0  0  0  0  0  0  0  0  0  0
  -22.5938  -42.6549   -4.6724 C   0  0  0  0  0  0  0  0  0  0  0  0
  -22.6171  -42.0671   -5.9343 C   0  0  0  0  0  0  0  0  0  0  0  0
  -22.7002  -42.9391   -6.9817 O   0  0  0  0  0  0  0  0  0  0  0  0
  -22.0683  -43.0888   -8.2302 C   0  0  0  0  0  0  0  0  0  0  0  0
  -20.8976  -44.0258   -8.1687 C   0  0  0  0  0  0  0  0  0  0  0  0
  -21.2874  -45.2211   -7.8812 O   0  0  0  0  0  0  0  0  0  0  0  0
  -19.5539  -43.8248   -8.3599 N   0  0  0  0  0  0  0  0  0  0  0  0
  -18.6192  -42.9257   -7.6427 C   0  0  1  0  0  0  0  0  0  0  0  0
  -17.8869  -43.7094   -6.5636 C   0  0  0  0  0  0  0  0  0  0  0  0
  -17.5574  -42.4538   -8.5807 C   0  0  0  0  0  0  0  0  0  0  0  0
  -16.8587  -43.4527   -9.0155 O   0  0  0  0  0  0  0  0  0  0  0  0
  -17.2775  -41.1499   -8.9946 N   0  0  0  0  0  0  0  0  0  0  0  0
  -21.7530  -38.8335   -9.1426 C   0  0  0  0  0  0  0  0  0  0  0  0
  -23.1747  -38.8283   -9.4678 O   0  0  0  0  0  0  0  0  0  0  0  0
  -20.8725  -38.3073  -10.0146 C   0  0  0  0  0  0  0  0  0  0  0  0
  -19.5524  -38.3287   -9.6783 C   0  0  0  0  0  0  0  0  0  0  0  0
  -14.0184  -39.8745  -11.1734 C   0  0  0  0  0  0  0  0  0  0  0  0
  -14.4403  -39.3991  -12.3879 C   0  0  0  0  0  0  0  0  0  0  0  0
  -14.6676  -38.0709  -12.6279 C   0  0  0  0  0  0  0  0  0  0  0  0
  1  2  1  0
  2  3  1  0
  2  4  1  0
  4  5  2  0
  5  6  1  0
  6  7  1  0
  7  8  1  0
  8  9  1  0
  9 10  1  0
 10 11  1  1
 10 12  1  0
 12 13  1  1
 13 14  1  0
 14 15  1  0
 15 16  2  0
 16 17  1  0
 17 18  1  0
 18 19  2  0
 19 20  1  0
 20 21  2  0
 21 22  1  0
 22 23  2  0
 23 24  1  0
 24 25  1  0
 25 26  1  0
 26 27  2  0
 26 28  1  0
 28 29  1  0
 29 30  1  1
 29 31  1  0
 31 32  2  0
 31 33  1  0
 16 34  1  0
 34 35  1  0
 34 36  2  0
 36 37  1  0
  6 38  2  0
 38 39  1  0
 39 40  2  0
 23 18  1  0
 33 12  1  0
 37 14  2  0
 40  4  1  0
M  END
$$$$
