
     RDKit          3D

 40 43  0  0  0  0  0  0  0  0999 V2000
  -14.4246  -34.8603  -12.4923 C   0  0  0  0  0  0  0  0  0  0  0  0
  -13.2895  -35.1682  -11.5224 C   0  0  0  0  0  0  0  0  0  0  0  0
  -12.1114  -34.3204  -11.9626 C   0  0  0  0  0  0  0  0  0  0  0  0
  -12.9454  -36.6068  -11.6223 C   0  0  0  0  0  0  0  0  0  0  0  0
  -13.5539  -37.4967  -10.7845 C   0  0  0  0  0  0  0  0  0  0  0  0
  -13.2383  -38.8370  -10.8748 C   0  0  0  0  0  0  0  0  0  0  0  0
  -13.9190  -39.7808   -9.9594 C   0  0  0  0  0  0  0  0  0  0  0  0
  -14.8436  -39.0411   -9.1312 N   0  0  0  0  0  0  0  0  0  0  0  0
  -14.9387  -39.6288   -7.7808 C   0  0  0  0  0  0  0  0  0  0  0  0
  -16.3601  -39.3974   -7.3479 C   0  0  1  0  0  0  0  0  0  0  0  0
  -16.5184  -38.5438   -6.2939 O   0  0  0  0  0  0  0  0  0  0  0  0
  -17.3138  -39.0771   -8.4716 C   0  0  2  0  0  0  0  0  0  0  0  0
  -18.2874  -38.0655   -7.9928 C   0  0  0  0  0  0  0  0  0  0  0  0
  -19.7087  -38.4292   -7.7712 C   0  0  0  0  0  0  0  0  0  0  0  0
  -20.3030  -39.2569   -6.8379 C   0  0  0  0  0  0  0  0  0  0  0  0
  -21.6610  -39.4832   -6.7868 C   0  0  0  0  0  0  0  0  0  0  0  0
  -22.5633  -40.2929   -5.9614 C   0  0  0  0  0  0  0  0  0  0  0  0
  -22.0903  -41.2556   -4.9680 C   0  0  0  0  0  0  0  0  0  0  0  0
  -21.7754  -40.7878   -3.6971 C   0  0  0  0  0  0  0  0  0  0  0  0
  -21.3223  -41.5349   -2.6441 C   0  0  0  0  0  0  0  0  0  0  0  0
  -21.1483  -42.8865   -2.8201 C   0  0  0  0  0  0  0  0  0  0  0  0
  -21.4507  -43.3876   -4.0689 C   0  0  0  0  0  0  0  0  0  0  0  0
  -21.9114  -42.6276   -5.1407 C   0  0  0  0  0  0  0  0  0  0  0  0
  -22.1494  -43.3254   -6.2899 O   0  0  0  0  0  0  0  0  0  0  0  0
  -21.8735  -43.1507   -7.6588 C   0  0  0  0  0  0  0  0  0  0  0  0
  -20.6045  -43.8340   -8.0770 C   0  0  0  0  0  0  0  0  0  0  0  0
  -20.7145  -45.1128   -7.9508 O   0  0  0  0  0  0  0  0  0  0  0  0
  -19.4128  -43.3425   -8.5468 N   0  0  0  0  0  0  0  0  0  0  0  0
  -18.4624  -42.3978   -7.9139 C   0  0  1  0  0  0  0  0  0  0  0  0
  -17.3501  -43.1778   -7.2287 C   0  0  0  0  0  0  0  0  0  0  0  0
  -17.7861  -41.5843   -8.9678 C   0  0  0  0  0  0  0  0  0  0  0  0
  -17.0932  -42.3444   -9.7535 O   0  0  0  0  0  0  0  0  0  0  0  0
  -17.8317  -40.2027   -9.1649 N   0  0  0  0  0  0  0  0  0  0  0  0
  -22.4683  -38.8289   -7.7398 C   0  0  0  0  0  0  0  0  0  0  0  0
  -23.9084  -39.0562   -7.6987 O   0  0  0  0  0  0  0  0  0  0  0  0
  -21.9541  -38.0092   -8.6758 C   0  0  0  0  0  0  0  0  0  0  0  0
  -20.6050  -37.8194   -8.6847 C   0  0  0  0  0  0  0  0  0  0  0  0
  -12.3230  -39.2649  -11.7976 C   0  0  0  0  0  0  0  0  0  0  0  0
  -11.7337  -38.3406  -12.6208 C   0  0  0  0  0  0  0  0  0  0  0  0
  -12.0199  -37.0035  -12.5621 C   0  0  0  0  0  0  0  0  0  0  0  0
  1  2  1  0
  2  3  1  0
  2  4  1  0
  4  5  2  0
  5  6  1  0
  6  7  1  0
  7  8  1  0
  8  9  1  0
  9 10  1  0
 10 11  1  1
 10 12  1  0
 12 13  1  1
 13 14  1  0
 14 15  1  0
 15 16  2  0
 16 17  1  0
 17 18  1  0
 18 19  2  0
 19 20  1  0
 20 21  2  0
 21 22  1  0
 22 23  2  0
 23 24  1  0
 24 25  1  0
 25 26  1  0
 26 27  2  0
 26 28  1  0
 28 29  1  0
 29 30  1  6
 29 31  1  0
 31 32  2  0
 31 33  1  0
 16 34  1  0
 34 35  1  0
 34 36  2  0
 36 37  1  0
  6 38  2  0
 38 39  1  0
 39 40  2  0
 23 18  1  0
 33 12  1  0
 37 14  2  0
 40  4  1  0
M  END
$$$$
