
     RDKit          3D

 40 43  0  0  0  0  0  0  0  0999 V2000
  -13.2454  -33.7063  -10.1342 C   0  0  0  0  0  0  0  0  0  0  0  0
  -12.3071  -34.8830  -10.3771 C   0  0  0  0  0  0  0  0  0  0  0  0
  -11.2343  -34.3835  -11.3260 C   0  0  0  0  0  0  0  0  0  0  0  0
  -13.0695  -35.9867  -11.0084 C   0  0  0  0  0  0  0  0  0  0  0  0
  -13.1053  -37.2065  -10.3961 C   0  0  0  0  0  0  0  0  0  0  0  0
  -13.8151  -38.2365  -10.9788 C   0  0  0  0  0  0  0  0  0  0  0  0
  -13.8434  -39.5464  -10.2892 C   0  0  0  0  0  0  0  0  0  0  0  0
  -15.1931  -39.8100   -9.8457 N   0  0  0  0  0  0  0  0  0  0  0  0
  -15.3503  -39.5148   -8.4083 C   0  0  0  0  0  0  0  0  0  0  0  0
  -16.8335  -39.5294   -8.1613 C   0  0  1  0  0  0  0  0  0  0  0  0
  -17.3138  -38.4838   -7.4261 O   0  0  0  0  0  0  0  0  0  0  0  0
  -17.6717  -39.7770   -9.3905 C   0  0  2  0  0  0  0  0  0  0  0  0
  -18.7634  -38.7736   -9.4295 C   0  0  0  0  0  0  0  0  0  0  0  0
  -20.1713  -39.1780   -9.1934 C   0  0  0  0  0  0  0  0  0  0  0  0
  -20.8089  -39.6399   -8.0578 C   0  0  0  0  0  0  0  0  0  0  0  0
  -22.1442  -39.9776   -8.0272 C   0  0  0  0  0  0  0  0  0  0  0  0
  -23.0756  -40.4990   -7.0215 C   0  0  0  0  0  0  0  0  0  0  0  0
  -22.6531  -40.9430   -5.6942 C   0  0  0  0  0  0  0  0  0  0  0  0
  -22.5208  -39.9877   -4.6926 C   0  0  0  0  0  0  0  0  0  0  0  0
  -22.1402  -40.2135   -3.3979 C   0  0  0  0  0  0  0  0  0  0  0  0
  -21.8513  -41.4995   -3.0095 C   0  0  0  0  0  0  0  0  0  0  0  0
  -21.9714  -42.4753   -3.9766 C   0  0  0  0  0  0  0  0  0  0  0  0
  -22.3584  -42.2458   -5.2943 C   0  0  0  0  0  0  0  0  0  0  0  0
  -22.4121  -43.3559   -6.0874 O   0  0  0  0  0  0  0  0  0  0  0  0
  -21.9934  -43.6957   -7.3873 C   0  0  0  0  0  0  0  0  0  0  0  0
  -20.6393  -44.3426   -7.3999 C   0  0  0  0  0  0  0  0  0  0  0  0
  -20.6719  -45.4763   -6.7861 O   0  0  0  0  0  0  0  0  0  0  0  0
  -19.4393  -43.9426   -7.9318 N   0  0  0  0  0  0  0  0  0  0  0  0
  -18.6378  -42.7276   -7.6532 C   0  0  1  0  0  0  0  0  0  0  0  0
  -17.5593  -43.0530   -6.6305 C   0  0  0  0  0  0  0  0  0  0  0  0
  -17.9041  -42.3163   -8.8871 C   0  0  0  0  0  0  0  0  0  0  0  0
  -17.0731  -43.2396   -9.2504 O   0  0  0  0  0  0  0  0  0  0  0  0
  -18.0249  -41.1331   -9.6188 N   0  0  0  0  0  0  0  0  0  0  0  0
  -22.8808  -39.8372   -9.2213 C   0  0  0  0  0  0  0  0  0  0  0  0
  -24.2961  -40.1889   -9.2058 O   0  0  0  0  0  0  0  0  0  0  0  0
  -22.3216  -39.3926  -10.3624 C   0  0  0  0  0  0  0  0  0  0  0  0
  -20.9974  -39.0729  -10.3407 C   0  0  0  0  0  0  0  0  0  0  0  0
  -14.4754  -38.0316  -12.1597 C   0  0  0  0  0  0  0  0  0  0  0  0
  -14.4155  -36.7927  -12.7434 C   0  0  0  0  0  0  0  0  0  0  0  0
  -13.7226  -35.7464  -12.1971 C   0  0  0  0  0  0  0  0  0  0  0  0
  1  2  1  0
  2  3  1  0
  2  4  1  0
  4  5  2  0
  5  6  1  0
  6  7  1  0
  7  8  1  0
  8  9  1  0
  9 10  1  0
 10 11  1  6
 10 12  1  0
 12 13  1  1
 13 14  1  0
 14 15  1  0
 15 16  2  0
 16 17  1  0
 17 18  1  0
 18 19  2  0
 19 20  1  0
 20 21  2  0
 21 22  1  0
 22 23  2  0
 23 24  1  0
 24 25  1  0
 25 26  1  0
 26 27  2  0
 26 28  1  0
 28 29  1  0
 29 30  1  1
 29 31  1  0
 31 32  2  0
 31 33  1  0
 16 34  1  0
 34 35  1  0
 34 36  2  0
 36 37  1  0
  6 38  2  0
 38 39  1  0
 39 40  2  0
 23 18  1  0
 33 12  1  0
 37 14  2  0
 40  4  1  0
M  END
$$$$
