
     RDKit          3D

 40 43  0  0  0  0  0  0  0  0999 V2000
  -16.3139  -35.4928  -11.2419 C   0  0  0  0  0  0  0  0  0  0  0  0
  -15.2885  -35.7929  -12.3294 C   0  0  0  0  0  0  0  0  0  0  0  0
  -15.9235  -36.8264  -13.2400 C   0  0  0  0  0  0  0  0  0  0  0  0
  -14.0673  -36.3515  -11.7012 C   0  0  0  0  0  0  0  0  0  0  0  0
  -14.1190  -37.5915  -11.1323 C   0  0  0  0  0  0  0  0  0  0  0  0
  -12.9845  -38.1167  -10.5480 C   0  0  0  0  0  0  0  0  0  0  0  0
  -13.0668  -39.4666   -9.9456 C   0  0  0  0  0  0  0  0  0  0  0  0
  -14.3944  -39.6563   -9.4076 N   0  0  0  0  0  0  0  0  0  0  0  0
  -14.5124  -39.0713   -8.0578 C   0  0  0  0  0  0  0  0  0  0  0  0
  -15.9485  -39.2762   -7.6620 C   0  0  1  0  0  0  0  0  0  0  0  0
  -16.3200  -38.6900   -6.4861 O   0  0  0  0  0  0  0  0  0  0  0  0
  -16.9466  -39.0036   -8.7594 C   0  0  2  0  0  0  0  0  0  0  0  0
  -17.8396  -37.9019   -8.3247 C   0  0  0  0  0  0  0  0  0  0  0  0
  -19.2627  -38.1658   -7.9981 C   0  0  0  0  0  0  0  0  0  0  0  0
  -19.8445  -38.8744   -6.9643 C   0  0  0  0  0  0  0  0  0  0  0  0
  -21.2071  -39.0202   -6.8230 C   0  0  0  0  0  0  0  0  0  0  0  0
  -22.1011  -39.7034   -5.8823 C   0  0  0  0  0  0  0  0  0  0  0  0
  -21.6220  -40.5999   -4.8314 C   0  0  0  0  0  0  0  0  0  0  0  0
  -21.2130  -40.0404   -3.6261 C   0  0  0  0  0  0  0  0  0  0  0  0
  -20.7395  -40.7162   -2.5345 C   0  0  0  0  0  0  0  0  0  0  0  0
  -20.6439  -42.0855   -2.5962 C   0  0  0  0  0  0  0  0  0  0  0  0
  -21.0409  -42.6768   -3.7771 C   0  0  0  0  0  0  0  0  0  0  0  0
  -21.5224  -41.9895   -4.8882 C   0  0  0  0  0  0  0  0  0  0  0  0
  -21.8594  -42.7712   -5.9557 O   0  0  0  0  0  0  0  0  0  0  0  0
  -21.6526  -42.7327   -7.3472 C   0  0  0  0  0  0  0  0  0  0  0  0
  -20.4450  -43.5190   -7.7666 C   0  0  0  0  0  0  0  0  0  0  0  0
  -20.6120  -44.7738   -7.5197 O   0  0  0  0  0  0  0  0  0  0  0  0
  -19.2584  -43.1370   -8.3399 N   0  0  0  0  0  0  0  0  0  0  0  0
  -18.2276  -42.1943   -7.8448 C   0  0  1  0  0  0  0  0  0  0  0  0
  -17.1192  -42.9713   -7.1502 C   0  0  0  0  0  0  0  0  0  0  0  0
  -17.5716  -41.5149   -9.0016 C   0  0  0  0  0  0  0  0  0  0  0  0
  -16.9632  -42.3780   -9.7499 O   0  0  0  0  0  0  0  0  0  0  0  0
  -17.5587  -40.1554   -9.3204 N   0  0  0  0  0  0  0  0  0  0  0  0
  -22.0329  -38.4085   -7.7884 C   0  0  0  0  0  0  0  0  0  0  0  0
  -23.4779  -38.5516   -7.6528 O   0  0  0  0  0  0  0  0  0  0  0  0
  -21.5315  -37.7036   -8.8201 C   0  0  0  0  0  0  0  0  0  0  0  0
  -20.1772  -37.5900   -8.9157 C   0  0  0  0  0  0  0  0  0  0  0  0
  -11.8209  -37.3966  -10.5415 C   0  0  0  0  0  0  0  0  0  0  0  0
  -11.8094  -36.1552  -11.1229 C   0  0  0  0  0  0  0  0  0  0  0  0
  -12.9130  -35.6001  -11.7122 C   0  0  0  0  0  0  0  0  0  0  0  0
  1  2  1  0
  2  3  1  0
  2  4  1  0
  4  5  2  0
  5  6  1  0
  6  7  1  0
  7  8  1  0
  8  9  1  0
  9 10  1  0
 10 11  1  1
 10 12  1  0
 12 13  1  1
 13 14  1  0
 14 15  1  0
 15 16  2  0
 16 17  1  0
 17 18  1  0
 18 19  2  0
 19 20  1  0
 20 21  2  0
 21 22  1  0
 22 23  2  0
 23 24  1  0
 24 25  1  0
 25 26  1  0
 26 27  2  0
 26 28  1  0
 28 29  1  0
 29 30  1  6
 29 31  1  0
 31 32  2  0
 31 33  1  0
 16 34  1  0
 34 35  1  0
 34 36  2  0
 36 37  1  0
  6 38  2  0
 38 39  1  0
 39 40  2  0
 23 18  1  0
 33 12  1  0
 37 14  2  0
 40  4  1  0
M  END
$$$$
