
     RDKit          3D

 40 43  0  0  0  0  0  0  0  0999 V2000
  -16.4353  -35.3322  -11.5503 C   0  0  0  0  0  0  0  0  0  0  0  0
  -15.1562  -35.5452  -10.7487 C   0  0  0  0  0  0  0  0  0  0  0  0
  -14.1601  -34.5199  -11.2559 C   0  0  0  0  0  0  0  0  0  0  0  0
  -14.6490  -36.9148  -11.0029 C   0  0  0  0  0  0  0  0  0  0  0  0
  -14.2653  -37.6895   -9.9461 C   0  0  0  0  0  0  0  0  0  0  0  0
  -13.7943  -38.9658  -10.1773 C   0  0  0  0  0  0  0  0  0  0  0  0
  -13.3926  -39.7867   -9.0125 C   0  0  0  0  0  0  0  0  0  0  0  0
  -14.1452  -39.3550   -7.8570 N   0  0  0  0  0  0  0  0  0  0  0  0
  -14.9041  -40.4741   -7.2653 C   0  0  0  0  0  0  0  0  0  0  0  0
  -16.3286  -39.9967   -7.2028 C   0  0  1  0  0  0  0  0  0  0  0  0
  -16.5662  -38.9804   -6.3224 O   0  0  0  0  0  0  0  0  0  0  0  0
  -16.9598  -39.7284   -8.5460 C   0  0  2  0  0  0  0  0  0  0  0  0
  -17.8553  -38.5523   -8.4223 C   0  0  0  0  0  0  0  0  0  0  0  0
  -19.3284  -38.7118   -8.4989 C   0  0  0  0  0  0  0  0  0  0  0  0
  -20.2248  -39.3241   -7.6439 C   0  0  0  0  0  0  0  0  0  0  0  0
  -21.5799  -39.3802   -7.8858 C   0  0  0  0  0  0  0  0  0  0  0  0
  -22.7475  -39.9539   -7.2088 C   0  0  0  0  0  0  0  0  0  0  0  0
  -22.6462  -40.8157   -6.0322 C   0  0  0  0  0  0  0  0  0  0  0  0
  -22.5482  -40.2135   -4.7827 C   0  0  0  0  0  0  0  0  0  0  0  0
  -22.4475  -40.8527   -3.5771 C   0  0  0  0  0  0  0  0  0  0  0  0
  -22.4390  -42.2265   -3.5569 C   0  0  0  0  0  0  0  0  0  0  0  0
  -22.5345  -42.8597   -4.7783 C   0  0  0  0  0  0  0  0  0  0  0  0
  -22.6367  -42.2097   -6.0054 C   0  0  0  0  0  0  0  0  0  0  0  0
  -22.7202  -43.0298   -7.0938 O   0  0  0  0  0  0  0  0  0  0  0  0
  -22.1328  -43.0835   -8.3716 C   0  0  0  0  0  0  0  0  0  0  0  0
  -20.9172  -43.9630   -8.4043 C   0  0  0  0  0  0  0  0  0  0  0  0
  -21.2376  -45.1894   -8.1663 O   0  0  0  0  0  0  0  0  0  0  0  0
  -19.5934  -43.6858   -8.6351 N   0  0  0  0  0  0  0  0  0  0  0  0
  -18.6745  -42.7794   -7.9068 C   0  0  1  0  0  0  0  0  0  0  0  0
  -17.8627  -43.5801   -6.8994 C   0  0  0  0  0  0  0  0  0  0  0  0
  -17.6751  -42.2077   -8.8577 C   0  0  0  0  0  0  0  0  0  0  0  0
  -16.9476  -43.1469   -9.3712 O   0  0  0  0  0  0  0  0  0  0  0  0
  -17.4746  -40.8719   -9.2119 N   0  0  0  0  0  0  0  0  0  0  0  0
  -22.0578  -38.7766   -9.0671 C   0  0  0  0  0  0  0  0  0  0  0  0
  -23.4901  -38.8254   -9.3376 O   0  0  0  0  0  0  0  0  0  0  0  0
  -21.2393  -38.1631   -9.9425 C   0  0  0  0  0  0  0  0  0  0  0  0
  -19.9073  -38.1360   -9.6579 C   0  0  0  0  0  0  0  0  0  0  0  0
  -13.7145  -39.4456  -11.4563 C   0  0  0  0  0  0  0  0  0  0  0  0
  -14.1093  -38.6372  -12.4907 C   0  0  0  0  0  0  0  0  0  0  0  0
  -14.5817  -37.3665  -12.3024 C   0  0  0  0  0  0  0  0  0  0  0  0
  1  2  1  0
  2  3  1  0
  2  4  1  0
  4  5  2  0
  5  6  1  0
  6  7  1  0
  7  8  1  0
  8  9  1  0
  9 10  1  0
 10 11  1  1
 10 12  1  0
 12 13  1  1
 13 14  1  0
 14 15  1  0
 15 16  2  0
 16 17  1  0
 17 18  1  0
 18 19  2  0
 19 20  1  0
 20 21  2  0
 21 22  1  0
 22 23  2  0
 23 24  1  0
 24 25  1  0
 25 26  1  0
 26 27  2  0
 26 28  1  0
 28 29  1  0
 29 30  1  1
 29 31  1  0
 31 32  2  0
 31 33  1  0
 16 34  1  0
 34 35  1  0
 34 36  2  0
 36 37  1  0
  6 38  2  0
 38 39  1  0
 39 40  2  0
 23 18  1  0
 33 12  1  0
 37 14  2  0
 40  4  1  0
M  END
$$$$
