
     RDKit          3D

 40 43  0  0  0  0  0  0  0  0999 V2000
  -17.2040  -36.5209  -10.1118 C   0  0  0  0  0  0  0  0  0  0  0  0
  -16.1354  -36.3399  -11.1838 C   0  0  0  0  0  0  0  0  0  0  0  0
  -16.6237  -37.0970  -12.4040 C   0  0  0  0  0  0  0  0  0  0  0  0
  -14.8616  -36.9239  -10.6999 C   0  0  0  0  0  0  0  0  0  0  0  0
  -14.8408  -38.2244  -10.2846 C   0  0  0  0  0  0  0  0  0  0  0  0
  -13.6572  -38.7732   -9.8351 C   0  0  0  0  0  0  0  0  0  0  0  0
  -13.6616  -40.1878   -9.3981 C   0  0  0  0  0  0  0  0  0  0  0  0
  -14.5401  -40.3204   -8.2586 N   0  0  0  0  0  0  0  0  0  0  0  0
  -14.8750  -39.0020   -7.6861 C   0  0  0  0  0  0  0  0  0  0  0  0
  -16.3683  -39.0150   -7.5100 C   0  0  1  0  0  0  0  0  0  0  0  0
  -16.8528  -38.1567   -6.5650 O   0  0  0  0  0  0  0  0  0  0  0  0
  -17.1524  -38.9278   -8.7954 C   0  0  2  0  0  0  0  0  0  0  0  0
  -18.1795  -37.8671   -8.6529 C   0  0  0  0  0  0  0  0  0  0  0  0
  -19.6194  -38.2150   -8.5684 C   0  0  0  0  0  0  0  0  0  0  0  0
  -20.3432  -38.8697   -7.5902 C   0  0  0  0  0  0  0  0  0  0  0  0
  -21.6958  -39.1126   -7.6882 C   0  0  0  0  0  0  0  0  0  0  0  0
  -22.7090  -39.7763   -6.8614 C   0  0  0  0  0  0  0  0  0  0  0  0
  -22.3852  -40.5294   -5.6508 C   0  0  0  0  0  0  0  0  0  0  0  0
  -22.2510  -39.8290   -4.4571 C   0  0  0  0  0  0  0  0  0  0  0  0
  -21.9544  -40.3597   -3.2313 C   0  0  0  0  0  0  0  0  0  0  0  0
  -21.7630  -41.7164   -3.1280 C   0  0  0  0  0  0  0  0  0  0  0  0
  -21.8882  -42.4451   -4.2922 C   0  0  0  0  0  0  0  0  0  0  0  0
  -22.1896  -41.9055   -5.5398 C   0  0  0  0  0  0  0  0  0  0  0  0
  -22.2659  -42.8077   -6.5618 O   0  0  0  0  0  0  0  0  0  0  0  0
  -21.7987  -42.8817   -7.8872 C   0  0  0  0  0  0  0  0  0  0  0  0
  -20.4863  -43.6022   -7.9903 C   0  0  0  0  0  0  0  0  0  0  0  0
  -20.6185  -44.8381   -7.6462 O   0  0  0  0  0  0  0  0  0  0  0  0
  -19.2380  -43.1794   -8.3720 N   0  0  0  0  0  0  0  0  0  0  0  0
  -18.3825  -42.1138   -7.7985 C   0  0  1  0  0  0  0  0  0  0  0  0
  -17.3815  -42.7299   -6.8324 C   0  0  0  0  0  0  0  0  0  0  0  0
  -17.5607  -41.4933   -8.8799 C   0  0  0  0  0  0  0  0  0  0  0  0
  -16.7671  -42.3695   -9.4068 O   0  0  0  0  0  0  0  0  0  0  0  0
  -17.5720  -40.1728   -9.3338 N   0  0  0  0  0  0  0  0  0  0  0  0
  -22.3576  -38.6625   -8.8490 C   0  0  0  0  0  0  0  0  0  0  0  0
  -23.7900  -38.9100   -8.9680 O   0  0  0  0  0  0  0  0  0  0  0  0
  -21.7127  -38.0178   -9.8396 C   0  0  0  0  0  0  0  0  0  0  0  0
  -20.3751  -37.8033   -9.6950 C   0  0  0  0  0  0  0  0  0  0  0  0
  -12.5175  -38.0163   -9.8079 C   0  0  0  0  0  0  0  0  0  0  0  0
  -12.5791  -36.7145  -10.2331 C   0  0  0  0  0  0  0  0  0  0  0  0
  -13.7331  -36.1342  -10.6857 C   0  0  0  0  0  0  0  0  0  0  0  0
  1  2  1  0
  2  3  1  0
  2  4  1  0
  4  5  2  0
  5  6  1  0
  6  7  1  0
  7  8  1  0
  8  9  1  0
  9 10  1  0
 10 11  1  1
 10 12  1  0
 12 13  1  1
 13 14  1  0
 14 15  1  0
 15 16  2  0
 16 17  1  0
 17 18  1  0
 18 19  2  0
 19 20  1  0
 20 21  2  0
 21 22  1  0
 22 23  2  0
 23 24  1  0
 24 25  1  0
 25 26  1  0
 26 27  2  0
 26 28  1  0
 28 29  1  0
 29 30  1  1
 29 31  1  0
 31 32  2  0
 31 33  1  0
 16 34  1  0
 34 35  1  0
 34 36  2  0
 36 37  1  0
  6 38  2  0
 38 39  1  0
 39 40  2  0
 23 18  1  0
 33 12  1  0
 37 14  2  0
 40  4  1  0
M  END
$$$$
