
     RDKit          3D

 40 43  0  0  0  0  0  0  0  0999 V2000
  -12.7096  -35.4721  -11.8543 C   0  0  0  0  0  0  0  0  0  0  0  0
  -13.6557  -36.4748  -12.5054 C   0  0  0  0  0  0  0  0  0  0  0  0
  -15.0596  -35.9530  -12.2659 C   0  0  0  0  0  0  0  0  0  0  0  0
  -13.4859  -37.7943  -11.8513 C   0  0  0  0  0  0  0  0  0  0  0  0
  -13.4446  -37.8614  -10.4883 C   0  0  0  0  0  0  0  0  0  0  0  0
  -13.2887  -39.0876   -9.8747 C   0  0  0  0  0  0  0  0  0  0  0  0
  -13.2552  -39.1320   -8.3952 C   0  0  0  0  0  0  0  0  0  0  0  0
  -14.0432  -40.2564   -7.9451 N   0  0  0  0  0  0  0  0  0  0  0  0
  -15.2002  -40.4868   -8.8318 C   0  0  0  0  0  0  0  0  0  0  0  0
  -16.3059  -39.6378   -8.2681 C   0  0  1  0  0  0  0  0  0  0  0  0
  -15.8993  -38.5428   -7.5609 O   0  0  0  0  0  0  0  0  0  0  0  0
  -17.3951  -39.2918   -9.2523 C   0  0  2  0  0  0  0  0  0  0  0  0
  -18.2569  -38.2422   -8.6555 C   0  0  0  0  0  0  0  0  0  0  0  0
  -19.6452  -38.5528   -8.2341 C   0  0  0  0  0  0  0  0  0  0  0  0
  -20.1322  -39.3515   -7.2171 C   0  0  0  0  0  0  0  0  0  0  0  0
  -21.4768  -39.5284   -6.9750 C   0  0  0  0  0  0  0  0  0  0  0  0
  -22.2828  -40.2988   -6.0224 C   0  0  0  0  0  0  0  0  0  0  0  0
  -21.7098  -41.2706   -5.0924 C   0  0  0  0  0  0  0  0  0  0  0  0
  -21.2049  -40.8049   -3.8834 C   0  0  0  0  0  0  0  0  0  0  0  0
  -20.6358  -41.5599   -2.8944 C   0  0  0  0  0  0  0  0  0  0  0  0
  -20.5349  -42.9182   -3.0761 C   0  0  0  0  0  0  0  0  0  0  0  0
  -21.0254  -43.4174   -4.2645 C   0  0  0  0  0  0  0  0  0  0  0  0
  -21.6043  -42.6493   -5.2713 C   0  0  0  0  0  0  0  0  0  0  0  0
  -22.0240  -43.3466   -6.3675 O   0  0  0  0  0  0  0  0  0  0  0  0
  -21.9356  -43.1923   -7.7636 C   0  0  0  0  0  0  0  0  0  0  0  0
  -20.7616  -43.9240   -8.3454 C   0  0  0  0  0  0  0  0  0  0  0  0
  -20.8972  -45.1970   -8.1893 O   0  0  0  0  0  0  0  0  0  0  0  0
  -19.6306  -43.4792   -8.9823 N   0  0  0  0  0  0  0  0  0  0  0  0
  -18.5692  -42.5647   -8.4992 C   0  0  1  0  0  0  0  0  0  0  0  0
  -17.4000  -43.3791   -7.9657 C   0  0  0  0  0  0  0  0  0  0  0  0
  -18.0185  -41.7840   -9.6469 C   0  0  0  0  0  0  0  0  0  0  0  0
  -17.4686  -42.5744  -10.5117 O   0  0  0  0  0  0  0  0  0  0  0  0
  -18.0432  -40.4031   -9.8529 N   0  0  0  0  0  0  0  0  0  0  0  0
  -22.3858  -38.8525   -7.8147 C   0  0  0  0  0  0  0  0  0  0  0  0
  -23.8132  -39.0275   -7.5712 O   0  0  0  0  0  0  0  0  0  0  0  0
  -21.9788  -38.0589   -8.8232 C   0  0  0  0  0  0  0  0  0  0  0  0
  -20.6384  -37.9179   -9.0218 C   0  0  0  0  0  0  0  0  0  0  0  0
  -13.1768  -40.2228  -10.6304 C   0  0  0  0  0  0  0  0  0  0  0  0
  -13.2229  -40.1141  -11.9962 C   0  0  0  0  0  0  0  0  0  0  0  0
  -13.3763  -38.9170  -12.6418 C   0  0  0  0  0  0  0  0  0  0  0  0
  1  2  1  0
  2  3  1  0
  2  4  1  0
  4  5  2  0
  5  6  1  0
  6  7  1  0
  7  8  1  0
  8  9  1  0
  9 10  1  0
 10 11  1  6
 10 12  1  0
 12 13  1  1
 13 14  1  0
 14 15  1  0
 15 16  2  0
 16 17  1  0
 17 18  1  0
 18 19  2  0
 19 20  1  0
 20 21  2  0
 21 22  1  0
 22 23  2  0
 23 24  1  0
 24 25  1  0
 25 26  1  0
 26 27  2  0
 26 28  1  0
 28 29  1  0
 29 30  1  6
 29 31  1  0
 31 32  2  0
 31 33  1  0
 16 34  1  0
 34 35  1  0
 34 36  2  0
 36 37  1  0
  6 38  2  0
 38 39  1  0
 39 40  2  0
 23 18  1  0
 33 12  1  0
 37 14  2  0
 40  4  1  0
M  END
$$$$
