
     RDKit          3D

 40 43  0  0  0  0  0  0  0  0999 V2000
  -17.7485  -35.2038  -11.5467 C   0  0  0  0  0  0  0  0  0  0  0  0
  -17.5457  -35.8949  -12.8903 C   0  0  0  0  0  0  0  0  0  0  0  0
  -18.8978  -36.4543  -13.2899 C   0  0  0  0  0  0  0  0  0  0  0  0
  -16.5689  -36.9977  -12.7240 C   0  0  0  0  0  0  0  0  0  0  0  0
  -16.2953  -37.4610  -11.4692 C   0  0  0  0  0  0  0  0  0  0  0  0
  -15.3883  -38.4886  -11.3092 C   0  0  0  0  0  0  0  0  0  0  0  0
  -15.1164  -38.9768   -9.9381 C   0  0  0  0  0  0  0  0  0  0  0  0
  -16.1528  -38.4902   -9.0566 N   0  0  0  0  0  0  0  0  0  0  0  0
  -15.8359  -38.7853   -7.6457 C   0  0  0  0  0  0  0  0  0  0  0  0
  -16.9644  -39.6521   -7.1598 C   0  0  1  0  0  0  0  0  0  0  0  0
  -16.9057  -40.0033   -5.8416 O   0  0  0  0  0  0  0  0  0  0  0  0
  -18.3392  -39.1667   -7.5457 C   0  0  2  0  0  0  0  0  0  0  0  0
  -19.1173  -38.9144   -6.3083 C   0  0  0  0  0  0  0  0  0  0  0  0
  -20.2526  -39.7943   -5.9360 C   0  0  0  0  0  0  0  0  0  0  0  0
  -20.2883  -41.1166   -5.5368 C   0  0  0  0  0  0  0  0  0  0  0  0
  -21.4560  -41.7813   -5.2323 C   0  0  0  0  0  0  0  0  0  0  0  0
  -21.8158  -43.1402   -4.8143 C   0  0  0  0  0  0  0  0  0  0  0  0
  -20.8552  -44.2411   -4.7607 C   0  0  0  0  0  0  0  0  0  0  0  0
  -20.0770  -44.3793   -3.6168 C   0  0  0  0  0  0  0  0  0  0  0  0
  -19.1327  -45.3424   -3.3866 C   0  0  0  0  0  0  0  0  0  0  0  0
  -18.9012  -46.2856   -4.3586 C   0  0  0  0  0  0  0  0  0  0  0  0
  -19.6549  -46.1808   -5.5087 C   0  0  0  0  0  0  0  0  0  0  0  0
  -20.6156  -45.2007   -5.7435 C   0  0  0  0  0  0  0  0  0  0  0  0
  -21.2466  -45.2810   -6.9516 O   0  0  0  0  0  0  0  0  0  0  0  0
  -21.6107  -44.3787   -7.9684 C   0  0  0  0  0  0  0  0  0  0  0  0
  -20.5789  -44.2968   -9.0551 C   0  0  0  0  0  0  0  0  0  0  0  0
  -20.4792  -45.4248   -9.6725 O   0  0  0  0  0  0  0  0  0  0  0  0
  -19.7708  -43.2701   -9.4738 N   0  0  0  0  0  0  0  0  0  0  0  0
  -18.7530  -42.4988   -8.7217 C   0  0  1  0  0  0  0  0  0  0  0  0
  -17.3741  -43.0866   -8.9826 C   0  0  0  0  0  0  0  0  0  0  0  0
  -18.6945  -41.1013   -9.2447 C   0  0  0  0  0  0  0  0  0  0  0  0
  -18.3285  -41.0959  -10.4861 O   0  0  0  0  0  0  0  0  0  0  0  0
  -18.9757  -39.9083   -8.5756 N   0  0  0  0  0  0  0  0  0  0  0  0
  -22.6636  -41.0611   -5.3371 C   0  0  0  0  0  0  0  0  0  0  0  0
  -23.9090  -41.7493   -5.0168 O   0  0  0  0  0  0  0  0  0  0  0  0
  -22.6999  -39.7708   -5.7196 C   0  0  0  0  0  0  0  0  0  0  0  0
  -21.5178  -39.1591   -6.0108 C   0  0  0  0  0  0  0  0  0  0  0  0
  -14.7715  -39.0346  -12.4019 C   0  0  0  0  0  0  0  0  0  0  0  0
  -15.0729  -38.5419  -13.6452 C   0  0  0  0  0  0  0  0  0  0  0  0
  -15.9663  -37.5244  -13.8449 C   0  0  0  0  0  0  0  0  0  0  0  0
  1  2  1  0
  2  3  1  0
  2  4  1  0
  4  5  2  0
  5  6  1  0
  6  7  1  0
  7  8  1  0
  8  9  1  0
  9 10  1  0
 10 11  1  1
 10 12  1  0
 12 13  1  1
 13 14  1  0
 14 15  1  0
 15 16  2  0
 16 17  1  0
 17 18  1  0
 18 19  2  0
 19 20  1  0
 20 21  2  0
 21 22  1  0
 22 23  2  0
 23 24  1  0
 24 25  1  0
 25 26  1  0
 26 27  2  0
 26 28  1  0
 28 29  1  0
 29 30  1  6
 29 31  1  0
 31 32  2  0
 31 33  1  0
 16 34  1  0
 34 35  1  0
 34 36  2  0
 36 37  1  0
  6 38  2  0
 38 39  1  0
 39 40  2  0
 23 18  1  0
 33 12  1  0
 37 14  2  0
 40  4  1  0
M  END
$$$$
