
     RDKit          3D

 35 37  0  0  0  0  0  0  0  0999 V2000
  -14.7044  -34.6911  -12.1278 C   0  0  0  0  0  0  0  0  0  0  0  0
  -13.3638  -35.3833  -12.1412 C   0  0  0  0  0  0  0  0  0  0  0  0
  -12.5337  -34.9590  -13.3379 C   0  0  0  0  0  0  0  0  0  0  0  0
  -13.5577  -36.8344  -12.0806 C   0  0  0  0  0  0  0  0  0  0  0  0
  -14.1872  -37.4772  -13.1249 C   0  0  0  0  0  0  0  0  0  0  0  0
  -14.4084  -38.8424  -13.1443 C   0  0  0  0  0  0  0  0  0  0  0  0
  -13.9707  -39.5605  -12.0628 C   0  0  0  0  0  0  0  0  0  0  0  0
  -13.3346  -38.9936  -10.9830 C   0  0  0  0  0  0  0  0  0  0  0  0
  -12.8686  -39.8055   -9.8172 C   0  0  0  0  0  0  0  0  0  0  0  0
  -13.6975  -39.4752   -8.7017 N   0  0  0  0  0  0  0  0  0  0  0  0
  -14.9253  -40.2326   -8.6113 C   0  0  0  0  0  0  0  0  0  0  0  0
  -15.7629  -39.6641   -7.5394 C   0  0  1  0  0  0  0  0  0  0  0  0
  -15.5975  -38.3211   -7.3253 O   0  0  0  0  0  0  0  0  0  0  0  0
  -17.2741  -39.9089   -7.7136 C   0  0  2  0  0  0  0  0  0  0  0  0
  -17.9985  -39.9472   -6.4214 C   0  0  0  0  0  0  0  0  0  0  0  0
  -19.1278  -38.8979   -6.3565 C   0  0  2  0  0  0  0  0  0  0  0  0
  -19.0401  -38.0519   -5.1306 C   0  0  0  0  0  0  0  0  0  0  0  0
  -20.4598  -39.5439   -6.5536 C   0  0  0  0  0  0  0  0  0  0  0  0
  -21.6346  -38.7179   -6.1274 C   0  0  0  0  0  0  0  0  0  0  0  0
  -22.9468  -39.3197   -6.6073 C   0  0  0  0  0  0  0  0  0  0  0  0
  -23.1516  -40.7235   -6.1404 C   0  0  0  0  0  0  0  0  0  0  0  0
  -23.6050  -41.6534   -7.2499 C   0  0  0  0  0  0  0  0  0  0  0  0
  -23.9624  -42.9806   -6.6292 C   0  0  0  0  0  0  0  0  0  0  0  0
  -22.9128  -44.0447   -6.8984 C   0  0  0  0  0  0  0  0  0  0  0  0
  -21.8490  -44.0586   -5.8502 C   0  0  0  0  0  0  0  0  0  0  0  0
  -20.4822  -43.9310   -6.4528 C   0  0  0  0  0  0  0  0  0  0  0  0
  -19.9378  -43.0036   -7.3007 C   0  0  0  0  0  0  0  0  0  0  0  0
  -18.5909  -43.1652   -7.6004 C   0  0  0  0  0  0  0  0  0  0  0  0
  -17.8719  -44.2476   -7.0343 C   0  0  0  0  0  0  0  0  0  0  0  0
  -18.4402  -45.1690   -6.1854 C   0  0  0  0  0  0  0  0  0  0  0  0
  -19.7198  -44.9719   -5.9310 N   0  0  0  0  0  0  0  0  0  0  0  0
  -17.6903  -42.3637   -8.4415 C   0  0  0  0  0  0  0  0  0  0  0  0
  -16.8807  -43.1157   -9.1771 O   0  0  0  0  0  0  0  0  0  0  0  0
  -17.5052  -40.9906   -8.6304 N   0  0  0  0  0  0  0  0  0  0  0  0
  -13.1446  -37.6215  -11.0273 C   0  0  0  0  0  0  0  0  0  0  0  0
  1  2  1  0
  2  3  1  0
  2  4  1  0
  4  5  2  0
  5  6  1  0
  6  7  2  0
  7  8  1  0
  8  9  1  0
  9 10  1  0
 10 11  1  0
 11 12  1  0
 12 13  1  6
 12 14  1  0
 14 15  1  1
 15 16  1  0
 16 17  1  1
 16 18  1  0
 18 19  1  0
 19 20  1  0
 20 21  1  0
 21 22  1  0
 22 23  1  0
 23 24  1  0
 24 25  1  0
 25 26  1  0
 26 27  2  0
 27 28  1  0
 28 29  2  0
 29 30  1  0
 30 31  2  0
 28 32  1  0
 32 33  2  0
 32 34  1  0
  8 35  2  0
 31 26  1  0
 34 14  1  0
 35  4  1  0
M  END
$$$$
