
     RDKit          3D

 35 37  0  0  0  0  0  0  0  0999 V2000
  -11.8944  -34.9748  -12.9417 C   0  0  0  0  0  0  0  0  0  0  0  0
  -13.0227  -35.4055  -12.0372 C   0  0  0  0  0  0  0  0  0  0  0  0
  -12.8546  -34.8456  -10.6375 C   0  0  0  0  0  0  0  0  0  0  0  0
  -13.1311  -36.8668  -12.0463 C   0  0  0  0  0  0  0  0  0  0  0  0
  -13.5651  -37.5062  -13.1876 C   0  0  0  0  0  0  0  0  0  0  0  0
  -13.6946  -38.8803  -13.2773 C   0  0  0  0  0  0  0  0  0  0  0  0
  -13.3692  -39.6112  -12.1652 C   0  0  0  0  0  0  0  0  0  0  0  0
  -12.9288  -39.0485  -10.9899 C   0  0  0  0  0  0  0  0  0  0  0  0
  -12.5814  -39.8743   -9.7929 C   0  0  0  0  0  0  0  0  0  0  0  0
  -13.5426  -39.5873   -8.7760 N   0  0  0  0  0  0  0  0  0  0  0  0
  -14.9162  -39.8385   -9.1495 C   0  0  0  0  0  0  0  0  0  0  0  0
  -15.7777  -39.6507   -7.9678 C   0  0  1  0  0  0  0  0  0  0  0  0
  -15.6801  -38.4225   -7.3687 O   0  0  0  0  0  0  0  0  0  0  0  0
  -17.2751  -39.9088   -8.2230 C   0  0  2  0  0  0  0  0  0  0  0  0
  -18.0388  -40.1215   -6.9710 C   0  0  0  0  0  0  0  0  0  0  0  0
  -19.1987  -39.1153   -6.8194 C   0  0  2  0  0  0  0  0  0  0  0  0
  -19.1739  -38.4229   -5.4980 C   0  0  0  0  0  0  0  0  0  0  0  0
  -20.5051  -39.7643   -7.1395 C   0  0  0  0  0  0  0  0  0  0  0  0
  -21.7156  -39.0249   -6.6581 C   0  0  0  0  0  0  0  0  0  0  0  0
  -22.9944  -39.5952   -7.2527 C   0  0  0  0  0  0  0  0  0  0  0  0
  -23.1744  -41.0498   -6.9663 C   0  0  0  0  0  0  0  0  0  0  0  0
  -23.5659  -41.8486   -8.1951 C   0  0  0  0  0  0  0  0  0  0  0  0
  -23.9054  -43.2496   -7.7521 C   0  0  0  0  0  0  0  0  0  0  0  0
  -22.8183  -44.2475   -8.1110 C   0  0  0  0  0  0  0  0  0  0  0  0
  -21.7885  -44.3632   -7.0355 C   0  0  0  0  0  0  0  0  0  0  0  0
  -20.4072  -44.1305   -7.5702 C   0  0  0  0  0  0  0  0  0  0  0  0
  -19.8625  -43.0939   -8.2803 C   0  0  0  0  0  0  0  0  0  0  0  0
  -18.5027  -43.1854   -8.5501 C   0  0  0  0  0  0  0  0  0  0  0  0
  -17.7719  -44.3110   -8.0940 C   0  0  0  0  0  0  0  0  0  0  0  0
  -18.3408  -45.3423   -7.3830 C   0  0  0  0  0  0  0  0  0  0  0  0
  -19.6329  -45.2085   -7.1515 N   0  0  0  0  0  0  0  0  0  0  0  0
  -17.5987  -42.2661   -9.2561 C   0  0  0  0  0  0  0  0  0  0  0  0
  -16.7454  -42.9033  -10.0484 O   0  0  0  0  0  0  0  0  0  0  0  0
  -17.4465  -40.8762   -9.2713 N   0  0  0  0  0  0  0  0  0  0  0  0
  -12.8217  -37.6669  -10.9675 C   0  0  0  0  0  0  0  0  0  0  0  0
  1  2  1  0
  2  3  1  0
  2  4  1  0
  4  5  2  0
  5  6  1  0
  6  7  2  0
  7  8  1  0
  8  9  1  0
  9 10  1  0
 10 11  1  0
 11 12  1  0
 12 13  1  6
 12 14  1  0
 14 15  1  1
 15 16  1  0
 16 17  1  1
 16 18  1  0
 18 19  1  0
 19 20  1  0
 20 21  1  0
 21 22  1  0
 22 23  1  0
 23 24  1  0
 24 25  1  0
 25 26  1  0
 26 27  2  0
 27 28  1  0
 28 29  2  0
 29 30  1  0
 30 31  2  0
 28 32  1  0
 32 33  2  0
 32 34  1  0
  8 35  2  0
 31 26  1  0
 34 14  1  0
 35  4  1  0
M  END
$$$$
