
     RDKit          3D

 35 37  0  0  0  0  0  0  0  0999 V2000
  -10.8075  -37.4034  -15.2731 C   0  0  0  0  0  0  0  0  0  0  0  0
  -12.1532  -38.0693  -15.1235 C   0  0  0  0  0  0  0  0  0  0  0  0
  -13.0061  -37.8784  -16.3632 C   0  0  0  0  0  0  0  0  0  0  0  0
  -12.8126  -37.5807  -13.9096 C   0  0  0  0  0  0  0  0  0  0  0  0
  -13.8351  -36.6627  -14.0177 C   0  0  0  0  0  0  0  0  0  0  0  0
  -14.5075  -36.1529  -12.9218 C   0  0  0  0  0  0  0  0  0  0  0  0
  -14.1169  -36.5999  -11.6871 C   0  0  0  0  0  0  0  0  0  0  0  0
  -13.1069  -37.5139  -11.4960 C   0  0  0  0  0  0  0  0  0  0  0  0
  -12.7040  -37.9821  -10.1344 C   0  0  0  0  0  0  0  0  0  0  0  0
  -13.3992  -39.2024   -9.8736 N   0  0  0  0  0  0  0  0  0  0  0  0
  -14.8285  -39.1441  -10.0810 C   0  0  0  0  0  0  0  0  0  0  0  0
  -15.5037  -39.1218   -8.7704 C   0  0  1  0  0  0  0  0  0  0  0  0
  -15.3995  -37.9404   -8.0848 O   0  0  0  0  0  0  0  0  0  0  0  0
  -17.0007  -39.4834   -8.8185 C   0  0  2  0  0  0  0  0  0  0  0  0
  -17.5977  -39.6219   -7.4693 C   0  0  0  0  0  0  0  0  0  0  0  0
  -18.7949  -38.6708   -7.2626 C   0  0  2  0  0  0  0  0  0  0  0  0
  -18.6611  -37.8601   -6.0172 C   0  0  0  0  0  0  0  0  0  0  0  0
  -20.0847  -39.4166   -7.3651 C   0  0  0  0  0  0  0  0  0  0  0  0
  -21.2763  -38.7032   -6.8037 C   0  0  0  0  0  0  0  0  0  0  0  0
  -22.5760  -39.3944   -7.1877 C   0  0  0  0  0  0  0  0  0  0  0  0
  -22.6264  -40.8244   -6.7599 C   0  0  0  0  0  0  0  0  0  0  0  0
  -23.1058  -41.7523   -7.8600 C   0  0  0  0  0  0  0  0  0  0  0  0
  -23.2995  -43.1234   -7.2625 C   0  0  0  0  0  0  0  0  0  0  0  0
  -22.1991  -44.0892   -7.6659 C   0  0  0  0  0  0  0  0  0  0  0  0
  -21.0454  -44.0497   -6.7182 C   0  0  0  0  0  0  0  0  0  0  0  0
  -19.7541  -43.7920   -7.4350 C   0  0  0  0  0  0  0  0  0  0  0  0
  -19.3645  -42.7966   -8.2910 C   0  0  0  0  0  0  0  0  0  0  0  0
  -18.0425  -42.8382   -8.7160 C   0  0  0  0  0  0  0  0  0  0  0  0
  -17.1918  -43.8759   -8.2593 C   0  0  0  0  0  0  0  0  0  0  0  0
  -17.6055  -44.8672   -7.3999 C   0  0  0  0  0  0  0  0  0  0  0  0
  -18.8677  -44.7834   -7.0246 N   0  0  0  0  0  0  0  0  0  0  0  0
  -17.2887  -41.9394   -9.6020 C   0  0  0  0  0  0  0  0  0  0  0  0
  -16.4940  -42.5990  -10.4359 O   0  0  0  0  0  0  0  0  0  0  0  0
  -17.2300  -40.5505   -9.7527 N   0  0  0  0  0  0  0  0  0  0  0  0
  -12.4745  -37.9844  -12.6359 C   0  0  0  0  0  0  0  0  0  0  0  0
  1  2  1  0
  2  3  1  0
  2  4  1  0
  4  5  2  0
  5  6  1  0
  6  7  2  0
  7  8  1  0
  8  9  1  0
  9 10  1  0
 10 11  1  0
 11 12  1  0
 12 13  1  6
 12 14  1  0
 14 15  1  1
 15 16  1  0
 16 17  1  1
 16 18  1  0
 18 19  1  0
 19 20  1  0
 20 21  1  0
 21 22  1  0
 22 23  1  0
 23 24  1  0
 24 25  1  0
 25 26  1  0
 26 27  2  0
 27 28  1  0
 28 29  2  0
 29 30  1  0
 30 31  2  0
 28 32  1  0
 32 33  2  0
 32 34  1  0
  8 35  2  0
 31 26  1  0
 34 14  1  0
 35  4  1  0
M  END
$$$$
