
     RDKit          3D

 35 37  0  0  0  0  0  0  0  0999 V2000
  -21.9620  -40.8999   -3.7541 C   0  0  0  0  0  0  0  0  0  0  0  0
  -22.9004  -40.9480   -4.9347 C   0  0  0  0  0  0  0  0  0  0  0  0
  -23.2775  -42.3751   -5.2842 C   0  0  0  0  0  0  0  0  0  0  0  0
  -22.3051  -40.2330   -6.0667 C   0  0  0  0  0  0  0  0  0  0  0  0
  -22.9792  -40.1870   -7.2681 C   0  0  0  0  0  0  0  0  0  0  0  0
  -22.4861  -39.5337   -8.3830 C   0  0  0  0  0  0  0  0  0  0  0  0
  -21.2710  -38.9140   -8.2560 C   0  0  0  0  0  0  0  0  0  0  0  0
  -20.5374  -38.9140   -7.0925 C   0  0  0  0  0  0  0  0  0  0  0  0
  -19.2134  -38.2277   -6.9860 C   0  0  0  0  0  0  0  0  0  0  0  0
  -18.2456  -39.2108   -6.6153 N   0  0  0  0  0  0  0  0  0  0  0  0
  -16.8698  -38.7819   -6.7270 C   0  0  0  0  0  0  0  0  0  0  0  0
  -16.6521  -38.2096   -8.0682 C   0  0  1  0  0  0  0  0  0  0  0  0
  -16.7158  -36.8426   -8.1323 O   0  0  0  0  0  0  0  0  0  0  0  0
  -15.3272  -38.6298   -8.7332 C   0  0  2  0  0  0  0  0  0  0  0  0
  -15.2247  -38.1731  -10.1392 C   0  0  0  0  0  0  0  0  0  0  0  0
  -13.9789  -37.2940  -10.3758 C   0  0  2  0  0  0  0  0  0  0  0  0
  -14.3198  -36.0019  -11.0394 C   0  0  0  0  0  0  0  0  0  0  0  0
  -12.9104  -38.0704  -11.0727 C   0  0  0  0  0  0  0  0  0  0  0  0
  -11.8309  -37.2421  -11.6994 C   0  0  0  0  0  0  0  0  0  0  0  0
  -10.6537  -38.0976  -12.1429 C   0  0  0  0  0  0  0  0  0  0  0  0
  -11.0434  -39.1798  -13.0955 C   0  0  0  0  0  0  0  0  0  0  0  0
  -10.4526  -40.5282  -12.7297 C   0  0  0  0  0  0  0  0  0  0  0  0
  -10.7501  -41.4884  -13.8540 C   0  0  0  0  0  0  0  0  0  0  0  0
  -11.8479  -42.4745  -13.4952 C   0  0  0  0  0  0  0  0  0  0  0  0
  -13.2037  -41.9516  -13.8399 C   0  0  0  0  0  0  0  0  0  0  0  0
  -14.1214  -41.9805  -12.6546 C   0  0  0  0  0  0  0  0  0  0  0  0
  -14.0042  -41.4617  -11.3927 C   0  0  0  0  0  0  0  0  0  0  0  0
  -15.1049  -41.6234  -10.5604 C   0  0  0  0  0  0  0  0  0  0  0  0
  -16.2550  -42.2971  -11.0424 C   0  0  0  0  0  0  0  0  0  0  0  0
  -16.3500  -42.8120  -12.3147 C   0  0  0  0  0  0  0  0  0  0  0  0
  -15.2804  -42.6321  -13.0660 N   0  0  0  0  0  0  0  0  0  0  0  0
  -15.3362  -41.1856   -9.1763 C   0  0  0  0  0  0  0  0  0  0  0  0
  -15.9516  -42.1096   -8.4486 O   0  0  0  0  0  0  0  0  0  0  0  0
  -15.0494  -40.0143   -8.4686 N   0  0  0  0  0  0  0  0  0  0  0  0
  -21.0889  -39.5868   -6.0136 C   0  0  0  0  0  0  0  0  0  0  0  0
  1  2  1  0
  2  3  1  0
  2  4  1  0
  4  5  2  0
  5  6  1  0
  6  7  2  0
  7  8  1  0
  8  9  1  0
  9 10  1  0
 10 11  1  0
 11 12  1  0
 12 13  1  1
 12 14  1  0
 14 15  1  6
 15 16  1  0
 16 17  1  6
 16 18  1  0
 18 19  1  0
 19 20  1  0
 20 21  1  0
 21 22  1  0
 22 23  1  0
 23 24  1  0
 24 25  1  0
 25 26  1  0
 26 27  2  0
 27 28  1  0
 28 29  2  0
 29 30  1  0
 30 31  2  0
 28 32  1  0
 32 33  2  0
 32 34  1  0
  8 35  2  0
 31 26  1  0
 34 14  1  0
 35  4  1  0
M  END
$$$$
