
     RDKit          3D

 35 37  0  0  0  0  0  0  0  0999 V2000
  -13.1805  -44.5053  -10.2233 C   0  0  0  0  0  0  0  0  0  0  0  0
  -12.2901  -43.8107  -11.2239 C   0  0  0  0  0  0  0  0  0  0  0  0
  -10.8282  -43.9217  -10.8347 C   0  0  0  0  0  0  0  0  0  0  0  0
  -12.7221  -42.4200  -11.3862 C   0  0  0  0  0  0  0  0  0  0  0  0
  -13.2669  -42.0162  -12.5862 C   0  0  0  0  0  0  0  0  0  0  0  0
  -13.6986  -40.7230  -12.8193 C   0  0  0  0  0  0  0  0  0  0  0  0
  -13.5656  -39.8265  -11.7919 C   0  0  0  0  0  0  0  0  0  0  0  0
  -13.0330  -40.1512  -10.5661 C   0  0  0  0  0  0  0  0  0  0  0  0
  -12.9014  -39.1489   -9.4645 C   0  0  0  0  0  0  0  0  0  0  0  0
  -13.5568  -39.6833   -8.3133 N   0  0  0  0  0  0  0  0  0  0  0  0
  -14.8572  -40.2609   -8.5674 C   0  0  0  0  0  0  0  0  0  0  0  0
  -15.8030  -39.7861   -7.5409 C   0  0  1  0  0  0  0  0  0  0  0  0
  -15.5861  -38.5072   -7.1002 O   0  0  0  0  0  0  0  0  0  0  0  0
  -17.2858  -39.8753   -7.9501 C   0  0  2  0  0  0  0  0  0  0  0  0
  -18.2043  -39.7778   -6.7913 C   0  0  0  0  0  0  0  0  0  0  0  0
  -19.2040  -38.6117   -6.9382 C   0  0  2  0  0  0  0  0  0  0  0  0
  -19.2156  -37.7258   -5.7378 C   0  0  0  0  0  0  0  0  0  0  0  0
  -20.5526  -39.1196   -7.3302 C   0  0  0  0  0  0  0  0  0  0  0  0
  -21.6790  -38.1543   -7.1220 C   0  0  0  0  0  0  0  0  0  0  0  0
  -22.9587  -38.6331   -7.7910 C   0  0  0  0  0  0  0  0  0  0  0  0
  -23.3916  -39.9845   -7.3254 C   0  0  0  0  0  0  0  0  0  0  0  0
  -23.7666  -40.9095   -8.4677 C   0  0  0  0  0  0  0  0  0  0  0  0
  -24.3648  -42.1615   -7.8771 C   0  0  0  0  0  0  0  0  0  0  0  0
  -23.4128  -43.3429   -7.9441 C   0  0  0  0  0  0  0  0  0  0  0  0
  -22.5359  -43.4234   -6.7379 C   0  0  0  0  0  0  0  0  0  0  0  0
  -21.0856  -43.4702   -7.1151 C   0  0  0  0  0  0  0  0  0  0  0  0
  -20.3134  -42.6454   -7.8888 C   0  0  0  0  0  0  0  0  0  0  0  0
  -18.9630  -42.9635   -7.9626 C   0  0  0  0  0  0  0  0  0  0  0  0
  -18.4689  -44.0902   -7.2585 C   0  0  0  0  0  0  0  0  0  0  0  0
  -19.2641  -44.9064   -6.4878 C   0  0  0  0  0  0  0  0  0  0  0  0
  -20.5373  -44.5622   -6.4488 N   0  0  0  0  0  0  0  0  0  0  0  0
  -17.8564  -42.3016   -8.6686 C   0  0  0  0  0  0  0  0  0  0  0  0
  -17.0313  -43.1683   -9.2431 O   0  0  0  0  0  0  0  0  0  0  0  0
  -17.4902  -40.9662   -8.8625 N   0  0  0  0  0  0  0  0  0  0  0  0
  -12.6201  -41.4636  -10.3990 C   0  0  0  0  0  0  0  0  0  0  0  0
  1  2  1  0
  2  3  1  0
  2  4  1  0
  4  5  2  0
  5  6  1  0
  6  7  2  0
  7  8  1  0
  8  9  1  0
  9 10  1  0
 10 11  1  0
 11 12  1  0
 12 13  1  6
 12 14  1  0
 14 15  1  1
 15 16  1  0
 16 17  1  1
 16 18  1  0
 18 19  1  0
 19 20  1  0
 20 21  1  0
 21 22  1  0
 22 23  1  0
 23 24  1  0
 24 25  1  0
 25 26  1  0
 26 27  2  0
 27 28  1  0
 28 29  2  0
 29 30  1  0
 30 31  2  0
 28 32  1  0
 32 33  2  0
 32 34  1  0
  8 35  2  0
 31 26  1  0
 34 14  1  0
 35  4  1  0
M  END
$$$$
