
     RDKit          3D

 35 37  0  0  0  0  0  0  0  0999 V2000
  -10.6460  -35.9704  -12.1864 C   0  0  0  0  0  0  0  0  0  0  0  0
  -12.0656  -35.6634  -11.7775 C   0  0  0  0  0  0  0  0  0  0  0  0
  -12.1161  -34.9780  -10.4252 C   0  0  0  0  0  0  0  0  0  0  0  0
  -12.8651  -36.8908  -11.8133 C   0  0  0  0  0  0  0  0  0  0  0  0
  -13.8777  -37.0121  -12.7405 C   0  0  0  0  0  0  0  0  0  0  0  0
  -14.6768  -38.1367  -12.8391 C   0  0  0  0  0  0  0  0  0  0  0  0
  -14.4260  -39.1589  -11.9621 C   0  0  0  0  0  0  0  0  0  0  0  0
  -13.4349  -39.1147  -11.0094 C   0  0  0  0  0  0  0  0  0  0  0  0
  -13.1862  -40.2478  -10.0662 C   0  0  0  0  0  0  0  0  0  0  0  0
  -14.1100  -40.1202   -8.9841 N   0  0  0  0  0  0  0  0  0  0  0  0
  -15.1929  -39.1912   -9.2157 C   0  0  0  0  0  0  0  0  0  0  0  0
  -16.0967  -39.2067   -8.0509 C   0  0  1  0  0  0  0  0  0  0  0  0
  -16.2285  -38.0064   -7.4037 O   0  0  0  0  0  0  0  0  0  0  0  0
  -17.5201  -39.7122   -8.3551 C   0  0  2  0  0  0  0  0  0  0  0  0
  -18.4959  -39.3348   -7.3057 C   0  0  0  0  0  0  0  0  0  0  0  0
  -19.6750  -38.5182   -7.8747 C   0  0  2  0  0  0  0  0  0  0  0  0
  -19.8979  -37.2507   -7.1196 C   0  0  0  0  0  0  0  0  0  0  0  0
  -20.8944  -39.3709   -8.0016 C   0  0  0  0  0  0  0  0  0  0  0  0
  -22.1802  -38.6192   -8.1621 C   0  0  0  0  0  0  0  0  0  0  0  0
  -23.3236  -39.5418   -8.5567 C   0  0  0  0  0  0  0  0  0  0  0  0
  -23.5368  -40.6569   -7.5864 C   0  0  0  0  0  0  0  0  0  0  0  0
  -23.6901  -42.0059   -8.2631 C   0  0  0  0  0  0  0  0  0  0  0  0
  -24.0891  -43.0119   -7.2128 C   0  0  0  0  0  0  0  0  0  0  0  0
  -22.9441  -43.9347   -6.8334 C   0  0  0  0  0  0  0  0  0  0  0  0
  -22.1252  -43.3788   -5.7149 C   0  0  0  0  0  0  0  0  0  0  0  0
  -20.6725  -43.3095   -6.0791 C   0  0  0  0  0  0  0  0  0  0  0  0
  -20.0194  -42.7297   -7.1339 C   0  0  0  0  0  0  0  0  0  0  0  0
  -18.6323  -42.8046   -7.1100 C   0  0  0  0  0  0  0  0  0  0  0  0
  -17.9841  -43.4580   -6.0320 C   0  0  0  0  0  0  0  0  0  0  0  0
  -18.6613  -44.0353   -4.9829 C   0  0  0  0  0  0  0  0  0  0  0  0
  -19.9753  -43.9368   -5.0508 N   0  0  0  0  0  0  0  0  0  0  0  0
  -17.6252  -42.2857   -8.0468 C   0  0  0  0  0  0  0  0  0  0  0  0
  -16.6354  -43.1454   -8.2543 O   0  0  0  0  0  0  0  0  0  0  0  0
  -17.4879  -41.0905   -8.7594 N   0  0  0  0  0  0  0  0  0  0  0  0
  -12.6710  -37.9592  -10.9645 C   0  0  0  0  0  0  0  0  0  0  0  0
  1  2  1  0
  2  3  1  0
  2  4  1  0
  4  5  2  0
  5  6  1  0
  6  7  2  0
  7  8  1  0
  8  9  1  0
  9 10  1  0
 10 11  1  0
 11 12  1  0
 12 13  1  6
 12 14  1  0
 14 15  1  1
 15 16  1  0
 16 17  1  1
 16 18  1  0
 18 19  1  0
 19 20  1  0
 20 21  1  0
 21 22  1  0
 22 23  1  0
 23 24  1  0
 24 25  1  0
 25 26  1  0
 26 27  2  0
 27 28  1  0
 28 29  2  0
 29 30  1  0
 30 31  2  0
 28 32  1  0
 32 33  2  0
 32 34  1  0
  8 35  2  0
 31 26  1  0
 34 14  1  0
 35  4  1  0
M  END
$$$$
