
     RDKit          3D

 35 37  0  0  0  0  0  0  0  0999 V2000
  -10.6682  -34.5375  -12.6519 C   0  0  0  0  0  0  0  0  0  0  0  0
  -12.1163  -34.1226  -12.5661 C   0  0  0  0  0  0  0  0  0  0  0  0
  -12.2954  -32.9227  -11.6556 C   0  0  0  0  0  0  0  0  0  0  0  0
  -12.9329  -35.2665  -12.1518 C   0  0  0  0  0  0  0  0  0  0  0  0
  -13.7946  -35.8465  -13.0579 C   0  0  0  0  0  0  0  0  0  0  0  0
  -14.5985  -36.9279  -12.7457 C   0  0  0  0  0  0  0  0  0  0  0  0
  -14.5117  -37.4221  -11.4710 C   0  0  0  0  0  0  0  0  0  0  0  0
  -13.6773  -36.9000  -10.5103 C   0  0  0  0  0  0  0  0  0  0  0  0
  -13.6056  -37.4626   -9.1269 C   0  0  0  0  0  0  0  0  0  0  0  0
  -14.9385  -37.5275   -8.6171 N   0  0  0  0  0  0  0  0  0  0  0  0
  -15.6289  -38.7705   -8.8769 C   0  0  0  0  0  0  0  0  0  0  0  0
  -16.2169  -39.2657   -7.6188 C   0  0  1  0  0  0  0  0  0  0  0  0
  -16.1338  -38.4002   -6.5601 O   0  0  0  0  0  0  0  0  0  0  0  0
  -17.6914  -39.6984   -7.7312 C   0  0  2  0  0  0  0  0  0  0  0  0
  -18.2174  -40.2658   -6.4673 C   0  0  0  0  0  0  0  0  0  0  0  0
  -19.4564  -39.5004   -5.9576 C   0  0  2  0  0  0  0  0  0  0  0  0
  -19.3126  -39.0823   -4.5326 C   0  0  0  0  0  0  0  0  0  0  0  0
  -20.7047  -40.2696   -6.2409 C   0  0  0  0  0  0  0  0  0  0  0  0
  -21.9083  -39.8344   -5.4624 C   0  0  0  0  0  0  0  0  0  0  0  0
  -23.1825  -40.4698   -5.9982 C   0  0  0  0  0  0  0  0  0  0  0  0
  -23.1315  -41.9624   -6.0098 C   0  0  0  0  0  0  0  0  0  0  0  0
  -23.6067  -42.5584   -7.3213 C   0  0  0  0  0  0  0  0  0  0  0  0
  -23.6943  -44.0541   -7.1495 C   0  0  0  0  0  0  0  0  0  0  0  0
  -22.5600  -44.7825   -7.8490 C   0  0  0  0  0  0  0  0  0  0  0  0
  -21.3685  -44.9435   -6.9630 C   0  0  0  0  0  0  0  0  0  0  0  0
  -20.1280  -44.4001   -7.6062 C   0  0  0  0  0  0  0  0  0  0  0  0
  -19.8354  -43.1738   -8.1409 C   0  0  0  0  0  0  0  0  0  0  0  0
  -18.5339  -42.9992   -8.5944 C   0  0  0  0  0  0  0  0  0  0  0  0
  -17.6053  -44.0647   -8.4868 C   0  0  0  0  0  0  0  0  0  0  0  0
  -17.9221  -45.2898   -7.9470 C   0  0  0  0  0  0  0  0  0  0  0  0
  -19.1686  -45.4055   -7.5301 N   0  0  0  0  0  0  0  0  0  0  0  0
  -17.8739  -41.8315   -9.1960 C   0  0  0  0  0  0  0  0  0  0  0  0
  -17.0816  -42.1627  -10.2082 O   0  0  0  0  0  0  0  0  0  0  0  0
  -17.9016  -40.4586   -8.9320 N   0  0  0  0  0  0  0  0  0  0  0  0
  -12.8991  -35.8174  -10.8888 C   0  0  0  0  0  0  0  0  0  0  0  0
  1  2  1  0
  2  3  1  0
  2  4  1  0
  4  5  2  0
  5  6  1  0
  6  7  2  0
  7  8  1  0
  8  9  1  0
  9 10  1  0
 10 11  1  0
 11 12  1  0
 12 13  1  1
 12 14  1  0
 14 15  1  1
 15 16  1  0
 16 17  1  1
 16 18  1  0
 18 19  1  0
 19 20  1  0
 20 21  1  0
 21 22  1  0
 22 23  1  0
 23 24  1  0
 24 25  1  0
 25 26  1  0
 26 27  2  0
 27 28  1  0
 28 29  2  0
 29 30  1  0
 30 31  2  0
 28 32  1  0
 32 33  2  0
 32 34  1  0
  8 35  2  0
 31 26  1  0
 34 14  1  0
 35  4  1  0
M  END
$$$$
