
     RDKit          3D

 35 37  0  0  0  0  0  0  0  0999 V2000
  -15.0917  -34.8449  -11.4361 C   0  0  0  0  0  0  0  0  0  0  0  0
  -14.6411  -35.8463  -12.4709 C   0  0  0  0  0  0  0  0  0  0  0  0
  -15.8018  -36.6842  -12.9726 C   0  0  0  0  0  0  0  0  0  0  0  0
  -13.5551  -36.6644  -11.9248 C   0  0  0  0  0  0  0  0  0  0  0  0
  -12.2932  -36.1226  -11.8065 C   0  0  0  0  0  0  0  0  0  0  0  0
  -11.2158  -36.8278  -11.3016 C   0  0  0  0  0  0  0  0  0  0  0  0
  -11.4449  -38.1204  -10.9097 C   0  0  0  0  0  0  0  0  0  0  0  0
  -12.6738  -38.7323  -10.9953 C   0  0  0  0  0  0  0  0  0  0  0  0
  -12.8914  -40.1457  -10.5589 C   0  0  0  0  0  0  0  0  0  0  0  0
  -13.6571  -40.1128   -9.3534 N   0  0  0  0  0  0  0  0  0  0  0  0
  -14.9368  -39.4500   -9.4640 C   0  0  0  0  0  0  0  0  0  0  0  0
  -15.5718  -39.4059   -8.1340 C   0  0  1  0  0  0  0  0  0  0  0  0
  -15.2900  -38.2879   -7.3941 O   0  0  0  0  0  0  0  0  0  0  0  0
  -17.1050  -39.5570   -8.1543 C   0  0  2  0  0  0  0  0  0  0  0  0
  -17.6784  -39.7371   -6.7998 C   0  0  0  0  0  0  0  0  0  0  0  0
  -18.7275  -38.6566   -6.4641 C   0  0  2  0  0  0  0  0  0  0  0  0
  -18.4498  -37.9888   -5.1591 C   0  0  0  0  0  0  0  0  0  0  0  0
  -20.1099  -39.2097   -6.5802 C   0  0  0  0  0  0  0  0  0  0  0  0
  -21.1764  -38.3971   -5.9122 C   0  0  0  0  0  0  0  0  0  0  0  0
  -22.5687  -38.8692   -6.3034 C   0  0  0  0  0  0  0  0  0  0  0  0
  -22.8034  -40.3126   -6.0000 C   0  0  0  0  0  0  0  0  0  0  0  0
  -23.4356  -41.0629   -7.1570 C   0  0  0  0  0  0  0  0  0  0  0  0
  -23.7995  -42.4444   -6.6739 C   0  0  0  0  0  0  0  0  0  0  0  0
  -22.8536  -43.5083   -7.2029 C   0  0  0  0  0  0  0  0  0  0  0  0
  -21.6801  -43.7113   -6.3016 C   0  0  0  0  0  0  0  0  0  0  0  0
  -20.3856  -43.5649   -7.0437 C   0  0  0  0  0  0  0  0  0  0  0  0
  -19.8864  -42.5567   -7.8245 C   0  0  0  0  0  0  0  0  0  0  0  0
  -18.5947  -42.7364   -8.3033 C   0  0  0  0  0  0  0  0  0  0  0  0
  -17.8825  -43.9165   -7.9725 C   0  0  0  0  0  0  0  0  0  0  0  0
  -18.4050  -44.9178   -7.1870 C   0  0  0  0  0  0  0  0  0  0  0  0
  -19.6330  -44.6998   -6.7564 N   0  0  0  0  0  0  0  0  0  0  0  0
  -17.7489  -41.8698   -9.1367 C   0  0  0  0  0  0  0  0  0  0  0  0
  -17.0754  -42.5510  -10.0556 O   0  0  0  0  0  0  0  0  0  0  0  0
  -17.5040  -40.4935   -9.1681 N   0  0  0  0  0  0  0  0  0  0  0  0
  -13.7101  -37.9697  -11.5102 C   0  0  0  0  0  0  0  0  0  0  0  0
  1  2  1  0
  2  3  1  0
  2  4  1  0
  4  5  2  0
  5  6  1  0
  6  7  2  0
  7  8  1  0
  8  9  1  0
  9 10  1  0
 10 11  1  0
 11 12  1  0
 12 13  1  6
 12 14  1  0
 14 15  1  1
 15 16  1  0
 16 17  1  1
 16 18  1  0
 18 19  1  0
 19 20  1  0
 20 21  1  0
 21 22  1  0
 22 23  1  0
 23 24  1  0
 24 25  1  0
 25 26  1  0
 26 27  2  0
 27 28  1  0
 28 29  2  0
 29 30  1  0
 30 31  2  0
 28 32  1  0
 32 33  2  0
 32 34  1  0
  8 35  2  0
 31 26  1  0
 34 14  1  0
 35  4  1  0
M  END
$$$$
