
     RDKit          3D

 35 37  0  0  0  0  0  0  0  0999 V2000
  -11.8602  -34.4671  -12.7123 C   0  0  0  0  0  0  0  0  0  0  0  0
  -12.7664  -35.3596  -13.5240 C   0  0  0  0  0  0  0  0  0  0  0  0
  -14.0630  -34.6565  -13.8784 C   0  0  0  0  0  0  0  0  0  0  0  0
  -12.9898  -36.6178  -12.8071 C   0  0  0  0  0  0  0  0  0  0  0  0
  -12.8784  -37.8124  -13.4858 C   0  0  0  0  0  0  0  0  0  0  0  0
  -13.0735  -39.0416  -12.8824 C   0  0  0  0  0  0  0  0  0  0  0  0
  -13.3904  -39.0387  -11.5496 C   0  0  0  0  0  0  0  0  0  0  0  0
  -13.5195  -37.8907  -10.8031 C   0  0  0  0  0  0  0  0  0  0  0  0
  -13.8666  -37.9212   -9.3491 C   0  0  0  0  0  0  0  0  0  0  0  0
  -15.1068  -38.6173   -9.2154 N   0  0  0  0  0  0  0  0  0  0  0  0
  -15.1571  -39.5659   -8.1260 C   0  0  0  0  0  0  0  0  0  0  0  0
  -16.2185  -39.1620   -7.1857 C   0  0  1  0  0  0  0  0  0  0  0  0
  -16.2795  -37.8189   -6.9226 O   0  0  0  0  0  0  0  0  0  0  0  0
  -17.6362  -39.6046   -7.5962 C   0  0  2  0  0  0  0  0  0  0  0  0
  -18.3594  -40.2911   -6.5000 C   0  0  0  0  0  0  0  0  0  0  0  0
  -19.6917  -39.5930   -6.1558 C   0  0  2  0  0  0  0  0  0  0  0  0
  -19.8145  -39.3027   -4.6975 C   0  0  0  0  0  0  0  0  0  0  0  0
  -20.8464  -40.3520   -6.7224 C   0  0  0  0  0  0  0  0  0  0  0  0
  -22.1812  -40.0064   -6.1368 C   0  0  0  0  0  0  0  0  0  0  0  0
  -23.3208  -40.6098   -6.9440 C   0  0  0  0  0  0  0  0  0  0  0  0
  -23.2230  -42.0943   -7.0744 C   0  0  0  0  0  0  0  0  0  0  0  0
  -23.4409  -42.5769   -8.4960 C   0  0  0  0  0  0  0  0  0  0  0  0
  -23.5116  -44.0831   -8.4717 C   0  0  0  0  0  0  0  0  0  0  0  0
  -22.2500  -44.7288   -9.0174 C   0  0  0  0  0  0  0  0  0  0  0  0
  -21.2292  -44.9513   -7.9501 C   0  0  0  0  0  0  0  0  0  0  0  0
  -19.9119  -44.3340   -8.3125 C   0  0  0  0  0  0  0  0  0  0  0  0
  -19.5671  -43.0604   -8.6790 C   0  0  0  0  0  0  0  0  0  0  0  0
  -18.2119  -42.8264   -8.8762 C   0  0  0  0  0  0  0  0  0  0  0  0
  -17.2848  -43.8835   -8.6965 C   0  0  0  0  0  0  0  0  0  0  0  0
  -17.6543  -45.1567   -8.3292 C   0  0  0  0  0  0  0  0  0  0  0  0
  -18.9507  -45.3279   -8.1530 N   0  0  0  0  0  0  0  0  0  0  0  0
  -17.4920  -41.5998   -9.2477 C   0  0  0  0  0  0  0  0  0  0  0  0
  -16.5238  -41.8268  -10.1269 O   0  0  0  0  0  0  0  0  0  0  0  0
  -17.6078  -40.2568   -8.8761 N   0  0  0  0  0  0  0  0  0  0  0  0
  -13.3109  -36.6932  -11.4689 C   0  0  0  0  0  0  0  0  0  0  0  0
  1  2  1  0
  2  3  1  0
  2  4  1  0
  4  5  2  0
  5  6  1  0
  6  7  2  0
  7  8  1  0
  8  9  1  0
  9 10  1  0
 10 11  1  0
 11 12  1  0
 12 13  1  6
 12 14  1  0
 14 15  1  1
 15 16  1  0
 16 17  1  1
 16 18  1  0
 18 19  1  0
 19 20  1  0
 20 21  1  0
 21 22  1  0
 22 23  1  0
 23 24  1  0
 24 25  1  0
 25 26  1  0
 26 27  2  0
 27 28  1  0
 28 29  2  0
 29 30  1  0
 30 31  2  0
 28 32  1  0
 32 33  2  0
 32 34  1  0
  8 35  2  0
 31 26  1  0
 34 14  1  0
 35  4  1  0
M  END
$$$$
