
     RDKit          3D

 35 37  0  0  0  0  0  0  0  0999 V2000
   -9.7427  -40.2722  -11.2955 C   0  0  0  0  0  0  0  0  0  0  0  0
  -10.9008  -41.1540  -11.6928 C   0  0  0  0  0  0  0  0  0  0  0  0
  -10.6616  -41.8084  -13.0402 C   0  0  0  0  0  0  0  0  0  0  0  0
  -12.1441  -40.3793  -11.6596 C   0  0  0  0  0  0  0  0  0  0  0  0
  -13.0468  -40.5036  -12.6939 C   0  0  0  0  0  0  0  0  0  0  0  0
  -14.2415  -39.8081  -12.7375 C   0  0  0  0  0  0  0  0  0  0  0  0
  -14.5113  -38.9658  -11.6913 C   0  0  0  0  0  0  0  0  0  0  0  0
  -13.6631  -38.7870  -10.6233 C   0  0  0  0  0  0  0  0  0  0  0  0
  -13.9868  -37.8596   -9.4961 C   0  0  0  0  0  0  0  0  0  0  0  0
  -14.0903  -38.6442   -8.3070 N   0  0  0  0  0  0  0  0  0  0  0  0
  -15.0914  -39.6860   -8.3512 C   0  0  0  0  0  0  0  0  0  0  0  0
  -15.9943  -39.5342   -7.1955 C   0  0  1  0  0  0  0  0  0  0  0  0
  -15.9630  -38.3042   -6.5932 O   0  0  0  0  0  0  0  0  0  0  0  0
  -17.4722  -39.8506   -7.4954 C   0  0  2  0  0  0  0  0  0  0  0  0
  -18.2198  -40.2793   -6.2899 C   0  0  0  0  0  0  0  0  0  0  0  0
  -19.4420  -39.3791   -6.0129 C   0  0  2  0  0  0  0  0  0  0  0  0
  -19.4609  -38.8720   -4.6099 C   0  0  0  0  0  0  0  0  0  0  0  0
  -20.7040  -40.0610   -6.4284 C   0  0  0  0  0  0  0  0  0  0  0  0
  -21.9593  -39.4725   -5.8612 C   0  0  0  0  0  0  0  0  0  0  0  0
  -23.1992  -40.0376   -6.5378 C   0  0  0  0  0  0  0  0  0  0  0  0
  -23.2849  -41.5262   -6.4522 C   0  0  0  0  0  0  0  0  0  0  0  0
  -23.6249  -42.1745   -7.7808 C   0  0  0  0  0  0  0  0  0  0  0  0
  -23.8732  -43.6414   -7.5341 C   0  0  0  0  0  0  0  0  0  0  0  0
  -22.7242  -44.5099   -8.0159 C   0  0  0  0  0  0  0  0  0  0  0  0
  -21.6883  -44.7041   -6.9577 C   0  0  0  0  0  0  0  0  0  0  0  0
  -20.3253  -44.3133   -7.4448 C   0  0  0  0  0  0  0  0  0  0  0  0
  -19.8490  -43.1574   -8.0037 C   0  0  0  0  0  0  0  0  0  0  0  0
  -18.4864  -43.1244   -8.2725 C   0  0  0  0  0  0  0  0  0  0  0  0
  -17.6842  -44.2524   -7.9669 C   0  0  0  0  0  0  0  0  0  0  0  0
  -18.1850  -45.4047   -7.4065 C   0  0  0  0  0  0  0  0  0  0  0  0
  -19.4828  -45.3863   -7.1695 N   0  0  0  0  0  0  0  0  0  0  0  0
  -17.6439  -42.0620   -8.8404 C   0  0  0  0  0  0  0  0  0  0  0  0
  -16.7518  -42.5302   -9.7047 O   0  0  0  0  0  0  0  0  0  0  0  0
  -17.5815  -40.6760   -8.6662 N   0  0  0  0  0  0  0  0  0  0  0  0
  -12.4833  -39.5139  -10.6419 C   0  0  0  0  0  0  0  0  0  0  0  0
  1  2  1  0
  2  3  1  0
  2  4  1  0
  4  5  2  0
  5  6  1  0
  6  7  2  0
  7  8  1  0
  8  9  1  0
  9 10  1  0
 10 11  1  0
 11 12  1  0
 12 13  1  6
 12 14  1  0
 14 15  1  1
 15 16  1  0
 16 17  1  1
 16 18  1  0
 18 19  1  0
 19 20  1  0
 20 21  1  0
 21 22  1  0
 22 23  1  0
 23 24  1  0
 24 25  1  0
 25 26  1  0
 26 27  2  0
 27 28  1  0
 28 29  2  0
 29 30  1  0
 30 31  2  0
 28 32  1  0
 32 33  2  0
 32 34  1  0
  8 35  2  0
 31 26  1  0
 34 14  1  0
 35  4  1  0
M  END
$$$$
