
     RDKit          3D

 35 37  0  0  0  0  0  0  0  0999 V2000
  -14.7610  -33.6630  -10.2672 C   0  0  0  0  0  0  0  0  0  0  0  0
  -14.9662  -34.0875  -11.7005 C   0  0  0  0  0  0  0  0  0  0  0  0
  -16.4119  -33.9166  -12.1267 C   0  0  0  0  0  0  0  0  0  0  0  0
  -14.4879  -35.4606  -11.8811 C   0  0  0  0  0  0  0  0  0  0  0  0
  -14.1492  -35.8989  -13.1433 C   0  0  0  0  0  0  0  0  0  0  0  0
  -13.6902  -37.1786  -13.3975 C   0  0  0  0  0  0  0  0  0  0  0  0
  -13.5778  -38.0251  -12.3262 C   0  0  0  0  0  0  0  0  0  0  0  0
  -13.8950  -37.6637  -11.0375 C   0  0  0  0  0  0  0  0  0  0  0  0
  -13.7612  -38.6117   -9.8890 C   0  0  0  0  0  0  0  0  0  0  0  0
  -14.0069  -37.8753   -8.6899 N   0  0  0  0  0  0  0  0  0  0  0  0
  -15.2965  -38.1150   -8.0827 C   0  0  0  0  0  0  0  0  0  0  0  0
  -15.7308  -39.4872   -8.4026 C   0  0  1  0  0  0  0  0  0  0  0  0
  -15.1824  -40.4666   -7.6172 O   0  0  0  0  0  0  0  0  0  0  0  0
  -17.2575  -39.6944   -8.3793 C   0  0  2  0  0  0  0  0  0  0  0  0
  -17.8519  -39.4076   -7.0526 C   0  0  0  0  0  0  0  0  0  0  0  0
  -18.9430  -38.3192   -7.1272 C   0  0  2  0  0  0  0  0  0  0  0  0
  -18.7142  -37.2244   -6.1397 C   0  0  0  0  0  0  0  0  0  0  0  0
  -20.3035  -38.9304   -7.0508 C   0  0  0  0  0  0  0  0  0  0  0  0
  -21.4099  -37.9761   -6.7201 C   0  0  0  0  0  0  0  0  0  0  0  0
  -22.7775  -38.6087   -6.9297 C   0  0  0  0  0  0  0  0  0  0  0  0
  -22.9701  -39.8605   -6.1384 C   0  0  0  0  0  0  0  0  0  0  0  0
  -23.5533  -40.9940   -6.9609 C   0  0  0  0  0  0  0  0  0  0  0  0
  -23.8807  -42.1296   -6.0241 C   0  0  0  0  0  0  0  0  0  0  0  0
  -22.8894  -43.2746   -6.1370 C   0  0  0  0  0  0  0  0  0  0  0  0
  -21.7283  -43.1019   -5.2136 C   0  0  0  0  0  0  0  0  0  0  0  0
  -20.4246  -43.1768   -5.9502 C   0  0  0  0  0  0  0  0  0  0  0  0
  -19.9435  -42.4899   -7.0328 C   0  0  0  0  0  0  0  0  0  0  0  0
  -18.6371  -42.7771   -7.4080 C   0  0  0  0  0  0  0  0  0  0  0  0
  -17.8929  -43.7369   -6.6771 C   0  0  0  0  0  0  0  0  0  0  0  0
  -18.3976  -44.4165   -5.5927 C   0  0  0  0  0  0  0  0  0  0  0  0
  -19.6406  -44.1080   -5.2755 N   0  0  0  0  0  0  0  0  0  0  0  0
  -17.8039  -42.2279   -8.4874 C   0  0  0  0  0  0  0  0  0  0  0  0
  -17.0896  -43.1628   -9.1020 O   0  0  0  0  0  0  0  0  0  0  0  0
  -17.6044  -40.9425   -9.0005 N   0  0  0  0  0  0  0  0  0  0  0  0
  -14.3489  -36.3674  -10.8524 C   0  0  0  0  0  0  0  0  0  0  0  0
  1  2  1  0
  2  3  1  0
  2  4  1  0
  4  5  2  0
  5  6  1  0
  6  7  2  0
  7  8  1  0
  8  9  1  0
  9 10  1  0
 10 11  1  0
 11 12  1  0
 12 13  1  1
 12 14  1  0
 14 15  1  1
 15 16  1  0
 16 17  1  1
 16 18  1  0
 18 19  1  0
 19 20  1  0
 20 21  1  0
 21 22  1  0
 22 23  1  0
 23 24  1  0
 24 25  1  0
 25 26  1  0
 26 27  2  0
 27 28  1  0
 28 29  2  0
 29 30  1  0
 30 31  2  0
 28 32  1  0
 32 33  2  0
 32 34  1  0
  8 35  2  0
 31 26  1  0
 34 14  1  0
 35  4  1  0
M  END
$$$$
