
     RDKit          3D

 35 37  0  0  0  0  0  0  0  0999 V2000
  -12.2209  -35.0424  -11.6779 C   0  0  0  0  0  0  0  0  0  0  0  0
  -11.6174  -36.0065  -12.6693 C   0  0  0  0  0  0  0  0  0  0  0  0
  -11.7546  -35.4965  -14.0913 C   0  0  0  0  0  0  0  0  0  0  0  0
  -12.2121  -37.3337  -12.4907 C   0  0  0  0  0  0  0  0  0  0  0  0
  -12.7159  -38.0025  -13.5856 C   0  0  0  0  0  0  0  0  0  0  0  0
  -13.2925  -39.2568  -13.5013 C   0  0  0  0  0  0  0  0  0  0  0  0
  -13.3508  -39.8342  -12.2604 C   0  0  0  0  0  0  0  0  0  0  0  0
  -12.8706  -39.2326  -11.1205 C   0  0  0  0  0  0  0  0  0  0  0  0
  -12.9492  -39.8897   -9.7798 C   0  0  0  0  0  0  0  0  0  0  0  0
  -13.9257  -39.1862   -9.0104 N   0  0  0  0  0  0  0  0  0  0  0  0
  -15.2977  -39.5279   -9.3105 C   0  0  0  0  0  0  0  0  0  0  0  0
  -16.1924  -38.6306   -8.5567 C   0  0  1  0  0  0  0  0  0  0  0  0
  -16.2238  -37.3354   -9.0021 O   0  0  0  0  0  0  0  0  0  0  0  0
  -17.6535  -39.1121   -8.4708 C   0  0  2  0  0  0  0  0  0  0  0  0
  -18.3667  -38.5635   -7.2934 C   0  0  0  0  0  0  0  0  0  0  0  0
  -19.6334  -37.7789   -7.6944 C   0  0  2  0  0  0  0  0  0  0  0  0
  -19.6679  -36.4171   -7.0860 C   0  0  0  0  0  0  0  0  0  0  0  0
  -20.8602  -38.5902   -7.4353 C   0  0  0  0  0  0  0  0  0  0  0  0
  -22.1407  -37.8132   -7.4094 C   0  0  0  0  0  0  0  0  0  0  0  0
  -23.3538  -38.7311   -7.4163 C   0  0  0  0  0  0  0  0  0  0  0  0
  -23.3583  -39.7028   -6.2822 C   0  0  0  0  0  0  0  0  0  0  0  0
  -23.6740  -41.1200   -6.7214 C   0  0  0  0  0  0  0  0  0  0  0  0
  -23.8406  -41.9658   -5.4840 C   0  0  0  0  0  0  0  0  0  0  0  0
  -22.6506  -42.8783   -5.2444 C   0  0  0  0  0  0  0  0  0  0  0  0
  -21.5968  -42.2176   -4.4176 C   0  0  0  0  0  0  0  0  0  0  0  0
  -20.2611  -42.2553   -5.0973 C   0  0  0  0  0  0  0  0  0  0  0  0
  -19.8526  -41.8429   -6.3376 C   0  0  0  0  0  0  0  0  0  0  0  0
  -18.4960  -41.9710   -6.6086 C   0  0  0  0  0  0  0  0  0  0  0  0
  -17.6316  -42.5066   -5.6212 C   0  0  0  0  0  0  0  0  0  0  0  0
  -18.0647  -42.9163   -4.3814 C   0  0  0  0  0  0  0  0  0  0  0  0
  -19.3596  -42.7735   -4.1722 N   0  0  0  0  0  0  0  0  0  0  0  0
  -17.7169  -41.6183   -7.8043 C   0  0  0  0  0  0  0  0  0  0  0  0
  -16.8081  -42.5374   -8.1064 O   0  0  0  0  0  0  0  0  0  0  0  0
  -17.7280  -40.5311   -8.6835 N   0  0  0  0  0  0  0  0  0  0  0  0
  -12.3053  -37.9767  -11.2751 C   0  0  0  0  0  0  0  0  0  0  0  0
  1  2  1  0
  2  3  1  0
  2  4  1  0
  4  5  2  0
  5  6  1  0
  6  7  2  0
  7  8  1  0
  8  9  1  0
  9 10  1  0
 10 11  1  0
 11 12  1  0
 12 13  1  6
 12 14  1  0
 14 15  1  1
 15 16  1  0
 16 17  1  1
 16 18  1  0
 18 19  1  0
 19 20  1  0
 20 21  1  0
 21 22  1  0
 22 23  1  0
 23 24  1  0
 24 25  1  0
 25 26  1  0
 26 27  2  0
 27 28  1  0
 28 29  2  0
 29 30  1  0
 30 31  2  0
 28 32  1  0
 32 33  2  0
 32 34  1  0
  8 35  2  0
 31 26  1  0
 34 14  1  0
 35  4  1  0
M  END
$$$$
