
     RDKit          3D

 35 37  0  0  0  0  0  0  0  0999 V2000
  -12.2966  -35.1289  -14.4828 C   0  0  0  0  0  0  0  0  0  0  0  0
  -12.3419  -36.5174  -13.8939 C   0  0  0  0  0  0  0  0  0  0  0  0
  -13.0473  -37.4890  -14.8209 C   0  0  0  0  0  0  0  0  0  0  0  0
  -12.9539  -36.4687  -12.5634 C   0  0  0  0  0  0  0  0  0  0  0  0
  -13.9666  -35.5666  -12.3169 C   0  0  0  0  0  0  0  0  0  0  0  0
  -14.5952  -35.4579  -11.0897 C   0  0  0  0  0  0  0  0  0  0  0  0
  -14.1701  -36.2983  -10.0948 C   0  0  0  0  0  0  0  0  0  0  0  0
  -13.1673  -37.2248  -10.2614 C   0  0  0  0  0  0  0  0  0  0  0  0
  -12.7260  -38.1281   -9.1547 C   0  0  0  0  0  0  0  0  0  0  0  0
  -13.6132  -39.2475   -9.1308 N   0  0  0  0  0  0  0  0  0  0  0  0
  -15.0185  -38.9100   -9.1549 C   0  0  0  0  0  0  0  0  0  0  0  0
  -15.5889  -39.1309   -7.8134 C   0  0  1  0  0  0  0  0  0  0  0  0
  -15.3600  -38.1238   -6.9133 O   0  0  0  0  0  0  0  0  0  0  0  0
  -17.1047  -39.4074   -7.8028 C   0  0  2  0  0  0  0  0  0  0  0  0
  -17.5839  -39.9091   -6.4935 C   0  0  0  0  0  0  0  0  0  0  0  0
  -18.6919  -39.0152   -5.8983 C   0  0  2  0  0  0  0  0  0  0  0  0
  -18.3918  -38.6061   -4.4952 C   0  0  0  0  0  0  0  0  0  0  0  0
  -20.0321  -39.6511   -6.0712 C   0  0  0  0  0  0  0  0  0  0  0  0
  -21.1177  -39.0877   -5.2064 C   0  0  0  0  0  0  0  0  0  0  0  0
  -22.4898  -39.5892   -5.6308 C   0  0  0  0  0  0  0  0  0  0  0  0
  -22.5953  -41.0789   -5.6251 C   0  0  0  0  0  0  0  0  0  0  0  0
  -23.2334  -41.6296   -6.8864 C   0  0  0  0  0  0  0  0  0  0  0  0
  -23.4619  -43.1068   -6.6870 C   0  0  0  0  0  0  0  0  0  0  0  0
  -22.4690  -43.9541   -7.4635 C   0  0  0  0  0  0  0  0  0  0  0  0
  -21.2337  -44.2339   -6.6721 C   0  0  0  0  0  0  0  0  0  0  0  0
  -19.9989  -43.8272   -7.4190 C   0  0  0  0  0  0  0  0  0  0  0  0
  -19.6242  -42.6415   -7.9925 C   0  0  0  0  0  0  0  0  0  0  0  0
  -18.3521  -42.6068   -8.5498 C   0  0  0  0  0  0  0  0  0  0  0  0
  -17.5337  -43.7631   -8.5008 C   0  0  0  0  0  0  0  0  0  0  0  0
  -17.9319  -44.9451   -7.9203 C   0  0  0  0  0  0  0  0  0  0  0  0
  -19.1462  -44.9271   -7.4046 N   0  0  0  0  0  0  0  0  0  0  0  0
  -17.6245  -41.5182   -9.2182 C   0  0  0  0  0  0  0  0  0  0  0  0
  -16.9545  -41.9365  -10.2850 O   0  0  0  0  0  0  0  0  0  0  0  0
  -17.4882  -40.1485   -8.9724 N   0  0  0  0  0  0  0  0  0  0  0  0
  -12.5796  -37.2815  -11.5152 C   0  0  0  0  0  0  0  0  0  0  0  0
  1  2  1  0
  2  3  1  0
  2  4  1  0
  4  5  2  0
  5  6  1  0
  6  7  2  0
  7  8  1  0
  8  9  1  0
  9 10  1  0
 10 11  1  0
 11 12  1  0
 12 13  1  1
 12 14  1  0
 14 15  1  1
 15 16  1  0
 16 17  1  1
 16 18  1  0
 18 19  1  0
 19 20  1  0
 20 21  1  0
 21 22  1  0
 22 23  1  0
 23 24  1  0
 24 25  1  0
 25 26  1  0
 26 27  2  0
 27 28  1  0
 28 29  2  0
 29 30  1  0
 30 31  2  0
 28 32  1  0
 32 33  2  0
 32 34  1  0
  8 35  2  0
 31 26  1  0
 34 14  1  0
 35  4  1  0
M  END
$$$$
