
     RDKit          3D

 35 37  0  0  0  0  0  0  0  0999 V2000
   -9.2637  -38.5170  -11.3957 C   0  0  0  0  0  0  0  0  0  0  0  0
  -10.0592  -38.7848  -12.6495 C   0  0  0  0  0  0  0  0  0  0  0  0
   -9.4778  -38.0487  -13.8416 C   0  0  0  0  0  0  0  0  0  0  0  0
  -11.4678  -38.4535  -12.4196 C   0  0  0  0  0  0  0  0  0  0  0  0
  -12.4004  -38.7521  -13.3896 C   0  0  0  0  0  0  0  0  0  0  0  0
  -13.7476  -38.4721  -13.2498 C   0  0  0  0  0  0  0  0  0  0  0  0
  -14.1419  -37.8710  -12.0836 C   0  0  0  0  0  0  0  0  0  0  0  0
  -13.2737  -37.5419  -11.0688 C   0  0  0  0  0  0  0  0  0  0  0  0
  -13.7357  -36.8859   -9.8072 C   0  0  0  0  0  0  0  0  0  0  0  0
  -14.2081  -37.9129   -8.9340 N   0  0  0  0  0  0  0  0  0  0  0  0
  -15.5836  -38.3044   -9.1441 C   0  0  0  0  0  0  0  0  0  0  0  0
  -16.2150  -38.5621   -7.8369 C   0  0  1  0  0  0  0  0  0  0  0  0
  -16.1179  -37.5362   -6.9341 O   0  0  0  0  0  0  0  0  0  0  0  0
  -17.7032  -38.9538   -7.9140 C   0  0  2  0  0  0  0  0  0  0  0  0
  -18.1742  -39.6484   -6.6926 C   0  0  0  0  0  0  0  0  0  0  0  0
  -19.3660  -38.9227   -6.0340 C   0  0  2  0  0  0  0  0  0  0  0  0
  -19.1367  -38.6675   -4.5820 C   0  0  0  0  0  0  0  0  0  0  0  0
  -20.6454  -39.6339   -6.3301 C   0  0  0  0  0  0  0  0  0  0  0  0
  -21.7953  -39.2667   -5.4430 C   0  0  0  0  0  0  0  0  0  0  0  0
  -23.1108  -39.8165   -5.9736 C   0  0  0  0  0  0  0  0  0  0  0  0
  -23.0955  -41.2992   -6.1515 C   0  0  0  0  0  0  0  0  0  0  0  0
  -23.6538  -41.7379   -7.4921 C   0  0  0  0  0  0  0  0  0  0  0  0
  -23.7671  -43.2417   -7.4806 C   0  0  0  0  0  0  0  0  0  0  0  0
  -22.6891  -43.9079   -8.3177 C   0  0  0  0  0  0  0  0  0  0  0  0
  -21.4562  -44.1868   -7.5222 C   0  0  0  0  0  0  0  0  0  0  0  0
  -20.2394  -43.5973   -8.1699 C   0  0  0  0  0  0  0  0  0  0  0  0
  -19.9470  -42.3246   -8.5824 C   0  0  0  0  0  0  0  0  0  0  0  0
  -18.6677  -42.1235   -9.0856 C   0  0  0  0  0  0  0  0  0  0  0  0
  -17.7600  -43.2105   -9.1472 C   0  0  0  0  0  0  0  0  0  0  0  0
  -18.0762  -44.4821   -8.7282 C   0  0  0  0  0  0  0  0  0  0  0  0
  -19.3011  -44.6215   -8.2579 N   0  0  0  0  0  0  0  0  0  0  0  0
  -18.0135  -40.9081   -9.5913 C   0  0  0  0  0  0  0  0  0  0  0  0
  -17.2843  -41.1390  -10.6762 O   0  0  0  0  0  0  0  0  0  0  0  0
  -17.9948  -39.5727   -9.1773 N   0  0  0  0  0  0  0  0  0  0  0  0
  -11.9379  -37.8497  -11.2732 C   0  0  0  0  0  0  0  0  0  0  0  0
  1  2  1  0
  2  3  1  0
  2  4  1  0
  4  5  2  0
  5  6  1  0
  6  7  2  0
  7  8  1  0
  8  9  1  0
  9 10  1  0
 10 11  1  0
 11 12  1  0
 12 13  1  1
 12 14  1  0
 14 15  1  1
 15 16  1  0
 16 17  1  1
 16 18  1  0
 18 19  1  0
 19 20  1  0
 20 21  1  0
 21 22  1  0
 22 23  1  0
 23 24  1  0
 24 25  1  0
 25 26  1  0
 26 27  2  0
 27 28  1  0
 28 29  2  0
 29 30  1  0
 30 31  2  0
 28 32  1  0
 32 33  2  0
 32 34  1  0
  8 35  2  0
 31 26  1  0
 34 14  1  0
 35  4  1  0
M  END
$$$$
