
     RDKit          3D

 38 40  0  0  0  0  0  0  0  0999 V2000
  -15.2679  -36.7402   -8.5376 C   0  0  0  0  0  0  0  0  0  0  0  0
  -14.9400  -37.8772   -9.5312 C   0  0  2  0  0  0  0  0  0  0  0  0
  -14.3171  -37.2146  -10.6970 C   0  0  0  0  0  0  0  0  0  0  0  0
  -14.1610  -38.0778  -11.9448 C   0  0  0  0  0  0  0  0  0  0  0  0
  -13.3145  -39.2743  -11.6287 C   0  0  0  0  0  0  0  0  0  0  0  0
  -12.3689  -39.9397  -12.2017 C   0  0  0  0  0  0  0  0  0  0  0  0
  -11.5365  -41.1378  -11.8646 C   0  0  0  0  0  0  0  0  0  0  0  0
  -11.8003  -42.1486  -12.9995 C   0  0  0  0  0  0  0  0  0  0  0  0
  -13.1534  -41.9064  -13.5437 C   0  0  0  0  0  0  0  0  0  0  0  0
  -14.1691  -42.8642  -13.1013 N   0  0  0  0  0  0  0  0  0  0  0  0
  -15.2944  -42.7017  -12.2376 C   0  0  0  0  0  0  0  0  0  0  0  0
  -15.4178  -42.1397  -10.9789 C   0  0  0  0  0  0  0  0  0  0  0  0
  -16.6644  -42.1076  -10.3763 C   0  0  0  0  0  0  0  0  0  0  0  0
  -17.7745  -42.6562  -11.0711 C   0  0  0  0  0  0  0  0  0  0  0  0
  -17.6957  -43.2218  -12.3141 C   0  0  0  0  0  0  0  0  0  0  0  0
  -18.8895  -43.7852  -13.0001 C   0  0  0  0  0  0  0  0  0  0  0  0
  -19.1486  -45.0111  -12.4120 O   0  0  0  0  0  0  0  0  0  0  0  0
  -16.4522  -43.2329  -12.8734 C   0  0  0  0  0  0  0  0  0  0  0  0
  -17.1203  -41.5906   -9.0813 C   0  0  0  0  0  0  0  0  0  0  0  0
  -17.9717  -42.3476   -8.3921 O   0  0  0  0  0  0  0  0  0  0  0  0
  -16.8526  -40.4061   -8.3521 N   0  0  0  0  0  0  0  0  0  0  0  0
  -16.9957  -39.0445   -8.7078 C   0  0  1  0  0  0  0  0  0  0  0  0
  -16.2149  -38.5894   -9.9223 C   0  0  0  0  0  0  0  0  0  0  0  0
  -18.4349  -38.5657   -8.7910 C   0  0  2  0  0  0  0  0  0  0  0  0
  -18.4161  -37.1706   -8.7929 O   0  0  0  0  0  0  0  0  0  0  0  0
  -19.3000  -39.0608   -7.6724 C   0  0  0  0  0  0  0  0  0  0  0  0
  -20.2295  -40.0323   -8.1913 N   0  0  0  0  0  0  0  0  0  0  0  0
  -21.4800  -40.1225   -7.5128 C   0  0  0  0  0  0  0  0  0  0  0  0
  -21.2380  -40.9021   -6.2447 C   0  0  0  0  0  0  0  0  0  0  0  0
  -21.3057  -40.4984   -4.9424 C   0  0  0  0  0  0  0  0  0  0  0  0
  -21.0031  -41.5848   -4.1536 C   0  0  0  0  0  0  0  0  0  0  0  0
  -20.9398  -41.6722   -2.6660 C   0  0  0  0  0  0  0  0  0  0  0  0
  -22.3260  -41.7423   -2.0655 C   0  0  0  0  0  0  0  0  0  0  0  0
  -22.9551  -40.3593   -2.0076 C   0  0  0  0  0  0  0  0  0  0  0  0
  -22.3246  -42.3436   -0.6966 C   0  0  0  0  0  0  0  0  0  0  0  0
  -23.1884  -42.5687   -2.9967 C   0  0  0  0  0  0  0  0  0  0  0  0
  -20.7681  -42.5823   -4.9718 O   0  0  0  0  0  0  0  0  0  0  0  0
  -20.8983  -42.2133   -6.2156 N   0  0  0  0  0  0  0  0  0  0  0  0
  2  1  1  1
  2  3  1  0
  3  4  1  0
  4  5  1  0
  5  6  2  0
  6  7  1  0
  7  8  1  0
  8  9  1  0
  9 10  1  0
 10 11  1  0
 11 12  1  0
 12 13  2  0
 13 14  1  0
 14 15  2  0
 15 16  1  0
 16 17  1  0
 15 18  1  0
 13 19  1  0
 19 20  2  0
 19 21  1  0
 21 22  1  0
 22 23  1  6
 22 24  1  0
 24 25  1  1
 24 26  1  0
 26 27  1  0
 27 28  1  0
 28 29  1  0
 29 30  1  0
 30 31  2  0
 31 32  1  0
 32 33  1  0
 33 34  1  0
 33 35  1  0
 33 36  1  0
 31 37  1  0
 37 38  1  0
 18 11  2  0
 23  2  1  0
 38 29  2  0
M  END
$$$$
