
     RDKit          3D

 38 40  0  0  0  0  0  0  0  0999 V2000
  -14.1174  -35.8111  -10.1686 C   0  0  0  0  0  0  0  0  0  0  0  0
  -13.8328  -36.9584  -11.1637 C   0  0  2  0  0  0  0  0  0  0  0  0
  -14.1985  -36.4264  -12.4939 C   0  0  0  0  0  0  0  0  0  0  0  0
  -14.2856  -37.4540  -13.6176 C   0  0  0  0  0  0  0  0  0  0  0  0
  -12.9621  -38.1396  -13.7790 C   0  0  0  0  0  0  0  0  0  0  0  0
  -12.2158  -38.5337  -14.7554 C   0  0  0  0  0  0  0  0  0  0  0  0
  -10.8923  -39.2206  -14.8915 C   0  0  0  0  0  0  0  0  0  0  0  0
  -11.1819  -40.5060  -15.6935 C   0  0  0  0  0  0  0  0  0  0  0  0
  -12.5787  -40.9182  -15.4385 C   0  0  0  0  0  0  0  0  0  0  0  0
  -12.7233  -42.0384  -14.5062 N   0  0  0  0  0  0  0  0  0  0  0  0
  -13.2479  -42.0889  -13.1793 C   0  0  0  0  0  0  0  0  0  0  0  0
  -12.9976  -41.3167  -12.0583 C   0  0  0  0  0  0  0  0  0  0  0  0
  -13.6802  -41.5934  -10.8854 C   0  0  0  0  0  0  0  0  0  0  0  0
  -14.6131  -42.6637  -10.8728 C   0  0  0  0  0  0  0  0  0  0  0  0
  -14.8885  -43.4514  -11.9567 C   0  0  0  0  0  0  0  0  0  0  0  0
  -15.8746  -44.5634  -11.8920 C   0  0  0  0  0  0  0  0  0  0  0  0
  -15.1510  -45.7431  -11.9184 O   0  0  0  0  0  0  0  0  0  0  0  0
  -14.1971  -43.1463  -13.0917 C   0  0  0  0  0  0  0  0  0  0  0  0
  -13.6470  -40.9740   -9.5559 C   0  0  0  0  0  0  0  0  0  0  0  0
  -13.6386  -41.7928   -8.5058 O   0  0  0  0  0  0  0  0  0  0  0  0
  -13.6221  -39.6324   -9.1023 N   0  0  0  0  0  0  0  0  0  0  0  0
  -14.4999  -38.5516   -9.3518 C   0  0  1  0  0  0  0  0  0  0  0  0
  -14.6763  -38.1602  -10.8034 C   0  0  0  0  0  0  0  0  0  0  0  0
  -15.8498  -38.6684   -8.6649 C   0  0  2  0  0  0  0  0  0  0  0  0
  -16.3503  -37.3771   -8.4958 O   0  0  0  0  0  0  0  0  0  0  0  0
  -15.7937  -39.3691   -7.3418 C   0  0  0  0  0  0  0  0  0  0  0  0
  -16.9040  -40.2829   -7.2461 N   0  0  0  0  0  0  0  0  0  0  0  0
  -17.6278  -40.2573   -6.0181 C   0  0  0  0  0  0  0  0  0  0  0  0
  -18.9191  -39.5245   -6.2831 C   0  0  0  0  0  0  0  0  0  0  0  0
  -19.6495  -39.4253   -7.4321 C   0  0  0  0  0  0  0  0  0  0  0  0
  -20.7523  -38.6488   -7.1585 C   0  0  0  0  0  0  0  0  0  0  0  0
  -21.8592  -38.2411   -8.0713 C   0  0  0  0  0  0  0  0  0  0  0  0
  -22.9823  -39.2536   -8.0510 C   0  0  0  0  0  0  0  0  0  0  0  0
  -23.6670  -39.2667   -6.6934 C   0  0  0  0  0  0  0  0  0  0  0  0
  -22.5118  -40.6336   -8.3819 C   0  0  0  0  0  0  0  0  0  0  0  0
  -24.0242  -38.8037   -9.0540 C   0  0  0  0  0  0  0  0  0  0  0  0
  -20.6624  -38.3103   -5.8948 O   0  0  0  0  0  0  0  0  0  0  0  0
  -19.5904  -38.8113   -5.3471 N   0  0  0  0  0  0  0  0  0  0  0  0
  2  1  1  1
  2  3  1  0
  3  4  1  0
  4  5  1  0
  5  6  2  0
  6  7  1  0
  7  8  1  0
  8  9  1  0
  9 10  1  0
 10 11  1  0
 11 12  1  0
 12 13  2  0
 13 14  1  0
 14 15  2  0
 15 16  1  0
 16 17  1  0
 15 18  1  0
 13 19  1  0
 19 20  2  0
 19 21  1  0
 21 22  1  0
 22 23  1  6
 22 24  1  0
 24 25  1  1
 24 26  1  0
 26 27  1  0
 27 28  1  0
 28 29  1  0
 29 30  1  0
 30 31  2  0
 31 32  1  0
 32 33  1  0
 33 34  1  0
 33 35  1  0
 33 36  1  0
 31 37  1  0
 37 38  1  0
 18 11  2  0
 23  2  1  0
 38 29  2  0
M  END
$$$$
