
     RDKit          3D

 38 40  0  0  0  0  0  0  0  0999 V2000
  -18.9738  -37.7149   -6.7619 C   0  0  0  0  0  0  0  0  0  0  0  0
  -19.7596  -39.0453   -6.7504 C   0  0  2  0  0  0  0  0  0  0  0  0
  -20.6587  -38.9621   -5.5796 C   0  0  0  0  0  0  0  0  0  0  0  0
  -21.3382  -40.2653   -5.1719 C   0  0  0  0  0  0  0  0  0  0  0  0
  -22.1646  -40.7821   -6.3111 C   0  0  0  0  0  0  0  0  0  0  0  0
  -23.3236  -41.3286   -6.4650 C   0  0  0  0  0  0  0  0  0  0  0  0
  -24.1298  -41.8395   -7.6186 C   0  0  0  0  0  0  0  0  0  0  0  0
  -24.3978  -43.3251   -7.3012 C   0  0  0  0  0  0  0  0  0  0  0  0
  -23.2949  -43.8353   -6.4591 C   0  0  0  0  0  0  0  0  0  0  0  0
  -22.3146  -44.6582   -7.1708 N   0  0  0  0  0  0  0  0  0  0  0  0
  -20.9504  -44.4058   -7.5078 C   0  0  0  0  0  0  0  0  0  0  0  0
  -20.3344  -43.3239   -8.1126 C   0  0  0  0  0  0  0  0  0  0  0  0
  -18.9628  -43.3511   -8.3026 C   0  0  0  0  0  0  0  0  0  0  0  0
  -18.2348  -44.4915   -7.8719 C   0  0  0  0  0  0  0  0  0  0  0  0
  -18.8043  -45.5812   -7.2722 C   0  0  0  0  0  0  0  0  0  0  0  0
  -17.9972  -46.7539   -6.8401 C   0  0  0  0  0  0  0  0  0  0  0  0
  -17.6983  -47.4775   -7.9816 O   0  0  0  0  0  0  0  0  0  0  0  0
  -20.1556  -45.5152   -7.1024 C   0  0  0  0  0  0  0  0  0  0  0  0
  -18.0303  -42.3855   -8.8945 C   0  0  0  0  0  0  0  0  0  0  0  0
  -17.0936  -42.8683   -9.7087 O   0  0  0  0  0  0  0  0  0  0  0  0
  -17.8839  -40.9801   -8.7954 N   0  0  0  0  0  0  0  0  0  0  0  0
  -17.7059  -40.1423   -7.6696 C   0  0  1  0  0  0  0  0  0  0  0  0
  -18.7941  -40.2011   -6.6189 C   0  0  0  0  0  0  0  0  0  0  0  0
  -16.3355  -40.2445   -7.0221 C   0  0  2  0  0  0  0  0  0  0  0  0
  -15.8944  -38.9468   -6.7612 O   0  0  0  0  0  0  0  0  0  0  0  0
  -15.3253  -40.9658   -7.8610 C   0  0  0  0  0  0  0  0  0  0  0  0
  -15.2110  -40.3012   -9.1347 N   0  0  0  0  0  0  0  0  0  0  0  0
  -13.9384  -40.3887   -9.7711 C   0  0  0  0  0  0  0  0  0  0  0  0
  -13.6542  -39.0365  -10.3754 C   0  0  0  0  0  0  0  0  0  0  0  0
  -13.9903  -38.5369  -11.6006 C   0  0  0  0  0  0  0  0  0  0  0  0
  -13.5056  -37.2508  -11.6729 C   0  0  0  0  0  0  0  0  0  0  0  0
  -13.6068  -36.2747  -12.7962 C   0  0  0  0  0  0  0  0  0  0  0  0
  -12.2434  -35.9644  -13.3720 C   0  0  0  0  0  0  0  0  0  0  0  0
  -12.3596  -34.9742  -14.5200 C   0  0  0  0  0  0  0  0  0  0  0  0
  -11.5319  -37.1911  -13.8459 C   0  0  0  0  0  0  0  0  0  0  0  0
  -11.4342  -35.2775  -12.2915 C   0  0  0  0  0  0  0  0  0  0  0  0
  -12.9093  -37.0151  -10.5291 O   0  0  0  0  0  0  0  0  0  0  0  0
  -12.9785  -38.0498   -9.7386 N   0  0  0  0  0  0  0  0  0  0  0  0
  2  1  1  1
  2  3  1  0
  3  4  1  0
  4  5  1  0
  5  6  2  0
  6  7  1  0
  7  8  1  0
  8  9  1  0
  9 10  1  0
 10 11  1  0
 11 12  1  0
 12 13  2  0
 13 14  1  0
 14 15  2  0
 15 16  1  0
 16 17  1  0
 15 18  1  0
 13 19  1  0
 19 20  2  0
 19 21  1  0
 21 22  1  0
 22 23  1  1
 22 24  1  0
 24 25  1  6
 24 26  1  0
 26 27  1  0
 27 28  1  0
 28 29  1  0
 29 30  1  0
 30 31  2  0
 31 32  1  0
 32 33  1  0
 33 34  1  0
 33 35  1  0
 33 36  1  0
 31 37  1  0
 37 38  1  0
 18 11  2  0
 23  2  1  0
 38 29  2  0
M  END
$$$$
