
     RDKit          3D

 38 40  0  0  0  0  0  0  0  0999 V2000
  -19.6786  -37.9482   -7.1880 C   0  0  0  0  0  0  0  0  0  0  0  0
  -19.9682  -39.4428   -6.9238 C   0  0  2  0  0  0  0  0  0  0  0  0
  -20.3533  -39.5240   -5.4986 C   0  0  0  0  0  0  0  0  0  0  0  0
  -20.4116  -40.9286   -4.9068 C   0  0  0  0  0  0  0  0  0  0  0  0
  -21.4040  -41.7563   -5.6669 C   0  0  0  0  0  0  0  0  0  0  0  0
  -22.3174  -42.6250   -5.3905 C   0  0  0  0  0  0  0  0  0  0  0  0
  -23.2992  -43.4427   -6.1713 C   0  0  0  0  0  0  0  0  0  0  0  0
  -22.9738  -44.9099   -5.8239 C   0  0  0  0  0  0  0  0  0  0  0  0
  -21.5402  -45.0069   -5.4757 C   0  0  0  0  0  0  0  0  0  0  0  0
  -20.6933  -45.5689   -6.5299 N   0  0  0  0  0  0  0  0  0  0  0  0
  -19.6919  -44.9628   -7.3476 C   0  0  0  0  0  0  0  0  0  0  0  0
  -19.6961  -43.8044   -8.1050 C   0  0  0  0  0  0  0  0  0  0  0  0
  -18.5505  -43.4504   -8.7982 C   0  0  0  0  0  0  0  0  0  0  0  0
  -17.4099  -44.2915   -8.7098 C   0  0  0  0  0  0  0  0  0  0  0  0
  -17.3644  -45.4443   -7.9749 C   0  0  0  0  0  0  0  0  0  0  0  0
  -16.1441  -46.2932   -7.9161 C   0  0  0  0  0  0  0  0  0  0  0  0
  -15.5146  -46.0079   -6.7168 O   0  0  0  0  0  0  0  0  0  0  0  0
  -18.5112  -45.7572   -7.3068 C   0  0  0  0  0  0  0  0  0  0  0  0
  -18.2364  -42.3105   -9.6666 C   0  0  0  0  0  0  0  0  0  0  0  0
  -17.5673  -42.5693  -10.7884 O   0  0  0  0  0  0  0  0  0  0  0  0
  -18.4914  -40.9195   -9.5851 N   0  0  0  0  0  0  0  0  0  0  0  0
  -18.1707  -39.9740   -8.5831 C   0  0  1  0  0  0  0  0  0  0  0  0
  -18.7241  -40.2552   -7.2024 C   0  0  0  0  0  0  0  0  0  0  0  0
  -16.6954  -39.6210   -8.5028 C   0  0  2  0  0  0  0  0  0  0  0  0
  -16.4938  -38.9181   -7.3146 O   0  0  0  0  0  0  0  0  0  0  0  0
  -16.2064  -38.8090   -9.6629 C   0  0  0  0  0  0  0  0  0  0  0  0
  -17.2612  -38.7005  -10.6390 N   0  0  0  0  0  0  0  0  0  0  0  0
  -16.9089  -39.0414  -11.9776 C   0  0  0  0  0  0  0  0  0  0  0  0
  -15.4262  -38.8032  -12.1172 C   0  0  0  0  0  0  0  0  0  0  0  0
  -14.7422  -38.0527  -13.0296 C   0  0  0  0  0  0  0  0  0  0  0  0
  -13.4027  -38.1520  -12.7297 C   0  0  0  0  0  0  0  0  0  0  0  0
  -12.2402  -37.5221  -13.4201 C   0  0  0  0  0  0  0  0  0  0  0  0
  -11.9216  -36.1689  -12.8250 C   0  0  0  0  0  0  0  0  0  0  0  0
  -13.1642  -35.5512  -12.2035 C   0  0  0  0  0  0  0  0  0  0  0  0
  -11.3491  -35.2236  -13.8320 C   0  0  0  0  0  0  0  0  0  0  0  0
  -10.9371  -36.3849  -11.6944 C   0  0  0  0  0  0  0  0  0  0  0  0
  -13.3152  -38.9334  -11.6802 O   0  0  0  0  0  0  0  0  0  0  0  0
  -14.4931  -39.3361  -11.2921 N   0  0  0  0  0  0  0  0  0  0  0  0
  2  1  1  1
  2  3  1  0
  3  4  1  0
  4  5  1  0
  5  6  2  0
  6  7  1  0
  7  8  1  0
  8  9  1  0
  9 10  1  0
 10 11  1  0
 11 12  1  0
 12 13  2  0
 13 14  1  0
 14 15  2  0
 15 16  1  0
 16 17  1  0
 15 18  1  0
 13 19  1  0
 19 20  2  0
 19 21  1  0
 21 22  1  0
 22 23  1  1
 22 24  1  0
 24 25  1  1
 24 26  1  0
 26 27  1  0
 27 28  1  0
 28 29  1  0
 29 30  1  0
 30 31  2  0
 31 32  1  0
 32 33  1  0
 33 34  1  0
 33 35  1  0
 33 36  1  0
 31 37  1  0
 37 38  1  0
 18 11  2  0
 23  2  1  0
 38 29  2  0
M  END
$$$$
