
     RDKit          3D

 38 40  0  0  0  0  0  0  0  0999 V2000
  -19.2524  -37.1983   -9.4922 C   0  0  0  0  0  0  0  0  0  0  0  0
  -20.1556  -38.2283   -8.7773 C   0  0  2  0  0  0  0  0  0  0  0  0
  -21.3282  -37.4626   -8.3033 C   0  0  0  0  0  0  0  0  0  0  0  0
  -22.2366  -38.1862   -7.3145 C   0  0  0  0  0  0  0  0  0  0  0  0
  -22.7681  -39.4403   -7.9411 C   0  0  0  0  0  0  0  0  0  0  0  0
  -23.8930  -40.0713   -7.9829 C   0  0  0  0  0  0  0  0  0  0  0  0
  -24.4007  -41.3289   -8.6175 C   0  0  0  0  0  0  0  0  0  0  0  0
  -24.9117  -42.1964   -7.4490 C   0  0  0  0  0  0  0  0  0  0  0  0
  -24.1500  -41.8461   -6.2313 C   0  0  0  0  0  0  0  0  0  0  0  0
  -23.1103  -42.8099   -5.8640 N   0  0  0  0  0  0  0  0  0  0  0  0
  -21.6867  -42.7043   -5.8882 C   0  0  0  0  0  0  0  0  0  0  0  0
  -20.8095  -42.2823   -6.8720 C   0  0  0  0  0  0  0  0  0  0  0  0
  -19.4510  -42.2726   -6.6023 C   0  0  0  0  0  0  0  0  0  0  0  0
  -19.0042  -42.6997   -5.3240 C   0  0  0  0  0  0  0  0  0  0  0  0
  -19.8365  -43.1253   -4.3254 C   0  0  0  0  0  0  0  0  0  0  0  0
  -19.3182  -43.5650   -3.0020 C   0  0  0  0  0  0  0  0  0  0  0  0
  -17.9555  -43.7582   -3.1491 O   0  0  0  0  0  0  0  0  0  0  0  0
  -21.1656  -43.1189   -4.6298 C   0  0  0  0  0  0  0  0  0  0  0  0
  -18.2884  -41.8873   -7.4098 C   0  0  0  0  0  0  0  0  0  0  0  0
  -17.2236  -42.6853   -7.3588 O   0  0  0  0  0  0  0  0  0  0  0  0
  -18.0177  -40.8022   -8.2791 N   0  0  0  0  0  0  0  0  0  0  0  0
  -18.0650  -39.4051   -8.0626 C   0  0  1  0  0  0  0  0  0  0  0  0
  -19.4009  -38.8458   -7.6220 C   0  0  0  0  0  0  0  0  0  0  0  0
  -16.9481  -38.8682   -7.1840 C   0  0  2  0  0  0  0  0  0  0  0  0
  -16.7719  -37.5211   -7.5015 O   0  0  0  0  0  0  0  0  0  0  0  0
  -15.6514  -39.6016   -7.3429 C   0  0  0  0  0  0  0  0  0  0  0  0
  -15.5759  -40.1396   -8.6779 N   0  0  0  0  0  0  0  0  0  0  0  0
  -14.3766  -40.8395   -9.0006 C   0  0  0  0  0  0  0  0  0  0  0  0
  -13.4844  -39.8696   -9.7339 C   0  0  0  0  0  0  0  0  0  0  0  0
  -13.5043  -39.4788  -11.0418 C   0  0  0  0  0  0  0  0  0  0  0  0
  -12.4865  -38.5697  -11.2201 C   0  0  0  0  0  0  0  0  0  0  0  0
  -12.0857  -37.8456  -12.4610 C   0  0  0  0  0  0  0  0  0  0  0  0
  -12.3423  -36.3609  -12.3317 C   0  0  0  0  0  0  0  0  0  0  0  0
  -11.3708  -35.7334  -11.3446 C   0  0  0  0  0  0  0  0  0  0  0  0
  -13.7438  -36.0594  -11.9070 C   0  0  0  0  0  0  0  0  0  0  0  0
  -12.0579  -35.7269  -13.6775 C   0  0  0  0  0  0  0  0  0  0  0  0
  -11.8981  -38.4397  -10.0555 O   0  0  0  0  0  0  0  0  0  0  0  0
  -12.4629  -39.1941   -9.1544 N   0  0  0  0  0  0  0  0  0  0  0  0
  2  1  1  1
  2  3  1  0
  3  4  1  0
  4  5  1  0
  5  6  2  0
  6  7  1  0
  7  8  1  0
  8  9  1  0
  9 10  1  0
 10 11  1  0
 11 12  1  0
 12 13  2  0
 13 14  1  0
 14 15  2  0
 15 16  1  0
 16 17  1  0
 15 18  1  0
 13 19  1  0
 19 20  2  0
 19 21  1  0
 21 22  1  0
 22 23  1  1
 22 24  1  0
 24 25  1  6
 24 26  1  0
 26 27  1  0
 27 28  1  0
 28 29  1  0
 29 30  1  0
 30 31  2  0
 31 32  1  0
 32 33  1  0
 33 34  1  0
 33 35  1  0
 33 36  1  0
 31 37  1  0
 37 38  1  0
 18 11  2  0
 23  2  1  0
 38 29  2  0
M  END
$$$$
