
     RDKit          3D

 38 40  0  0  0  0  0  0  0  0999 V2000
  -13.9323  -37.0222   -8.1637 C   0  0  0  0  0  0  0  0  0  0  0  0
  -13.5384  -37.8933   -9.3776 C   0  0  2  0  0  0  0  0  0  0  0  0
  -13.0326  -36.9467  -10.3946 C   0  0  0  0  0  0  0  0  0  0  0  0
  -12.8467  -37.5174  -11.7968 C   0  0  0  0  0  0  0  0  0  0  0  0
  -11.8757  -38.6590  -11.7530 C   0  0  0  0  0  0  0  0  0  0  0  0
  -10.8953  -39.0925  -12.4715 C   0  0  0  0  0  0  0  0  0  0  0  0
   -9.9372  -40.2414  -12.4072 C   0  0  0  0  0  0  0  0  0  0  0  0
  -10.1498  -41.0222  -13.7204 C   0  0  0  0  0  0  0  0  0  0  0  0
  -11.5419  -40.8157  -14.1734 C   0  0  0  0  0  0  0  0  0  0  0  0
  -12.4404  -41.9433  -13.9165 N   0  0  0  0  0  0  0  0  0  0  0  0
  -13.5385  -42.0771  -13.0138 C   0  0  0  0  0  0  0  0  0  0  0  0
  -13.6622  -41.7985  -11.6637 C   0  0  0  0  0  0  0  0  0  0  0  0
  -14.8793  -42.0188  -11.0407 C   0  0  0  0  0  0  0  0  0  0  0  0
  -15.9597  -42.5266  -11.8096 C   0  0  0  0  0  0  0  0  0  0  0  0
  -15.8793  -42.8164  -13.1440 C   0  0  0  0  0  0  0  0  0  0  0  0
  -17.0409  -43.3490  -13.9056 C   0  0  0  0  0  0  0  0  0  0  0  0
  -17.0789  -44.7136  -13.6768 O   0  0  0  0  0  0  0  0  0  0  0  0
  -14.6653  -42.5848  -13.7204 C   0  0  0  0  0  0  0  0  0  0  0  0
  -15.3278  -41.8258   -9.6572 C   0  0  0  0  0  0  0  0  0  0  0  0
  -16.0720  -42.7911   -9.1210 O   0  0  0  0  0  0  0  0  0  0  0  0
  -15.1454  -40.7931   -8.7051 N   0  0  0  0  0  0  0  0  0  0  0  0
  -15.4345  -39.4099   -8.7687 C   0  0  1  0  0  0  0  0  0  0  0  0
  -14.7538  -38.6392   -9.8796 C   0  0  0  0  0  0  0  0  0  0  0  0
  -16.9156  -39.0758   -8.7201 C   0  0  2  0  0  0  0  0  0  0  0  0
  -17.1155  -38.1987   -7.6536 O   0  0  0  0  0  0  0  0  0  0  0  0
  -17.7989  -40.2757   -8.5637 C   0  0  0  0  0  0  0  0  0  0  0  0
  -17.5320  -40.8933   -7.2892 N   0  0  0  0  0  0  0  0  0  0  0  0
  -17.9854  -42.2367   -7.1407 C   0  0  0  0  0  0  0  0  0  0  0  0
  -19.4849  -42.1814   -6.9895 C   0  0  0  0  0  0  0  0  0  0  0  0
  -20.2454  -41.9746   -5.8748 C   0  0  0  0  0  0  0  0  0  0  0  0
  -21.5662  -42.0093   -6.2598 C   0  0  0  0  0  0  0  0  0  0  0  0
  -22.7893  -41.8380   -5.4234 C   0  0  0  0  0  0  0  0  0  0  0  0
  -23.2561  -40.3996   -5.4302 C   0  0  0  0  0  0  0  0  0  0  0  0
  -24.4827  -40.2305   -4.5476 C   0  0  0  0  0  0  0  0  0  0  0  0
  -23.5652  -39.9070   -6.8076 C   0  0  0  0  0  0  0  0  0  0  0  0
  -22.1602  -39.5583   -4.8097 C   0  0  0  0  0  0  0  0  0  0  0  0
  -21.5693  -42.2291   -7.5526 O   0  0  0  0  0  0  0  0  0  0  0  0
  -20.3553  -42.3359   -8.0161 N   0  0  0  0  0  0  0  0  0  0  0  0
  2  1  1  1
  2  3  1  0
  3  4  1  0
  4  5  1  0
  5  6  2  0
  6  7  1  0
  7  8  1  0
  8  9  1  0
  9 10  1  0
 10 11  1  0
 11 12  1  0
 12 13  2  0
 13 14  1  0
 14 15  2  0
 15 16  1  0
 16 17  1  0
 15 18  1  0
 13 19  1  0
 19 20  2  0
 19 21  1  0
 21 22  1  0
 22 23  1  6
 22 24  1  0
 24 25  1  1
 24 26  1  0
 26 27  1  0
 27 28  1  0
 28 29  1  0
 29 30  1  0
 30 31  2  0
 31 32  1  0
 32 33  1  0
 33 34  1  0
 33 35  1  0
 33 36  1  0
 31 37  1  0
 37 38  1  0
 18 11  2  0
 23  2  1  0
 38 29  2  0
M  END
$$$$
