
     RDKit          3D

 38 40  0  0  0  0  0  0  0  0999 V2000
  -19.2494  -37.8249   -7.2547 C   0  0  0  0  0  0  0  0  0  0  0  0
  -19.9538  -39.1941   -7.1257 C   0  0  2  0  0  0  0  0  0  0  0  0
  -20.7423  -39.1158   -5.8774 C   0  0  0  0  0  0  0  0  0  0  0  0
  -21.3054  -40.4376   -5.3653 C   0  0  0  0  0  0  0  0  0  0  0  0
  -22.2042  -41.0399   -6.4032 C   0  0  0  0  0  0  0  0  0  0  0  0
  -23.3395  -41.6531   -6.4280 C   0  0  0  0  0  0  0  0  0  0  0  0
  -24.2200  -42.2490   -7.4823 C   0  0  0  0  0  0  0  0  0  0  0  0
  -24.3720  -43.7340   -7.0935 C   0  0  0  0  0  0  0  0  0  0  0  0
  -23.1677  -44.1527   -6.3449 C   0  0  0  0  0  0  0  0  0  0  0  0
  -22.2133  -44.9477   -7.1205 N   0  0  0  0  0  0  0  0  0  0  0  0
  -20.9032  -44.6352   -7.5944 C   0  0  0  0  0  0  0  0  0  0  0  0
  -20.4093  -43.5450   -8.2895 C   0  0  0  0  0  0  0  0  0  0  0  0
  -19.0622  -43.5056   -8.6089 C   0  0  0  0  0  0  0  0  0  0  0  0
  -18.2333  -44.5886   -8.2137 C   0  0  0  0  0  0  0  0  0  0  0  0
  -18.6811  -45.6842   -7.5279 C   0  0  0  0  0  0  0  0  0  0  0  0
  -17.7717  -46.7951   -7.1378 C   0  0  0  0  0  0  0  0  0  0  0  0
  -17.5990  -46.7094   -5.7671 O   0  0  0  0  0  0  0  0  0  0  0  0
  -20.0121  -45.6845   -7.2317 C   0  0  0  0  0  0  0  0  0  0  0  0
  -18.2458  -42.5141   -9.3178 C   0  0  0  0  0  0  0  0  0  0  0  0
  -17.3636  -42.9758  -10.2020 O   0  0  0  0  0  0  0  0  0  0  0  0
  -18.1710  -41.1002   -9.2780 N   0  0  0  0  0  0  0  0  0  0  0  0
  -17.9362  -40.2128   -8.2017 C   0  0  1  0  0  0  0  0  0  0  0  0
  -18.9159  -40.2908   -7.0503 C   0  0  0  0  0  0  0  0  0  0  0  0
  -16.5076  -40.2172   -7.6853 C   0  0  2  0  0  0  0  0  0  0  0  0
  -16.4899  -39.5028   -6.4870 O   0  0  0  0  0  0  0  0  0  0  0  0
  -15.5189  -39.6267   -8.6437 C   0  0  0  0  0  0  0  0  0  0  0  0
  -14.2690  -40.3343   -8.5255 N   0  0  0  0  0  0  0  0  0  0  0  0
  -13.6901  -40.7848   -9.7480 C   0  0  0  0  0  0  0  0  0  0  0  0
  -13.6176  -39.5914  -10.6672 C   0  0  0  0  0  0  0  0  0  0  0  0
  -12.5728  -38.7543  -10.9345 C   0  0  0  0  0  0  0  0  0  0  0  0
  -13.0097  -37.8219  -11.8476 C   0  0  0  0  0  0  0  0  0  0  0  0
  -12.2566  -36.6911  -12.4631 C   0  0  0  0  0  0  0  0  0  0  0  0
  -12.7112  -35.3636  -11.8993 C   0  0  0  0  0  0  0  0  0  0  0  0
  -12.3250  -35.2438  -10.4335 C   0  0  0  0  0  0  0  0  0  0  0  0
  -14.1854  -35.1585  -12.0416 C   0  0  0  0  0  0  0  0  0  0  0  0
  -11.9601  -34.2718  -12.6327 C   0  0  0  0  0  0  0  0  0  0  0  0
  -14.2640  -38.1096  -12.0993 O   0  0  0  0  0  0  0  0  0  0  0  0
  -14.6554  -39.1503  -11.4181 N   0  0  0  0  0  0  0  0  0  0  0  0
  2  1  1  1
  2  3  1  0
  3  4  1  0
  4  5  1  0
  5  6  2  0
  6  7  1  0
  7  8  1  0
  8  9  1  0
  9 10  1  0
 10 11  1  0
 11 12  1  0
 12 13  2  0
 13 14  1  0
 14 15  2  0
 15 16  1  0
 16 17  1  0
 15 18  1  0
 13 19  1  0
 19 20  2  0
 19 21  1  0
 21 22  1  0
 22 23  1  1
 22 24  1  0
 24 25  1  1
 24 26  1  0
 26 27  1  0
 27 28  1  0
 28 29  1  0
 29 30  1  0
 30 31  2  0
 31 32  1  0
 32 33  1  0
 33 34  1  0
 33 35  1  0
 33 36  1  0
 31 37  1  0
 37 38  1  0
 18 11  2  0
 23  2  1  0
 38 29  2  0
M  END
$$$$
