
     RDKit          3D

 38 40  0  0  0  0  0  0  0  0999 V2000
  -19.8618  -37.5263   -7.0551 C   0  0  0  0  0  0  0  0  0  0  0  0
  -20.2297  -39.0163   -7.2341 C   0  0  2  0  0  0  0  0  0  0  0  0
  -21.1783  -39.3223   -6.1420 C   0  0  0  0  0  0  0  0  0  0  0  0
  -21.4745  -40.8013   -5.9164 C   0  0  0  0  0  0  0  0  0  0  0  0
  -22.0518  -41.3973   -7.1652 C   0  0  0  0  0  0  0  0  0  0  0  0
  -22.9932  -42.2264   -7.4679 C   0  0  0  0  0  0  0  0  0  0  0  0
  -23.5521  -42.8095   -8.7287 C   0  0  0  0  0  0  0  0  0  0  0  0
  -23.3972  -44.3364   -8.5741 C   0  0  0  0  0  0  0  0  0  0  0  0
  -22.2428  -44.6079   -7.6912 C   0  0  0  0  0  0  0  0  0  0  0  0
  -21.0286  -45.0360   -8.3893 N   0  0  0  0  0  0  0  0  0  0  0  0
  -19.7787  -44.3738   -8.5833 C   0  0  0  0  0  0  0  0  0  0  0  0
  -19.4684  -43.1013   -9.0303 C   0  0  0  0  0  0  0  0  0  0  0  0
  -18.1389  -42.7201   -9.1036 C   0  0  0  0  0  0  0  0  0  0  0  0
  -17.1380  -43.6510   -8.7193 C   0  0  0  0  0  0  0  0  0  0  0  0
  -17.4013  -44.9173   -8.2741 C   0  0  0  0  0  0  0  0  0  0  0  0
  -16.3156  -45.8569   -7.8846 C   0  0  0  0  0  0  0  0  0  0  0  0
  -16.1871  -46.7709   -8.9161 O   0  0  0  0  0  0  0  0  0  0  0  0
  -18.7215  -45.2536   -8.2154 C   0  0  0  0  0  0  0  0  0  0  0  0
  -17.4932  -41.4708   -9.5215 C   0  0  0  0  0  0  0  0  0  0  0  0
  -16.4132  -41.5754  -10.2935 O   0  0  0  0  0  0  0  0  0  0  0  0
  -17.7644  -40.1016   -9.2807 N   0  0  0  0  0  0  0  0  0  0  0  0
  -17.8988  -39.3805   -8.0712 C   0  0  1  0  0  0  0  0  0  0  0  0
  -18.9805  -39.8612   -7.1276 C   0  0  0  0  0  0  0  0  0  0  0  0
  -16.5956  -39.1659   -7.3207 C   0  0  2  0  0  0  0  0  0  0  0  0
  -16.7732  -39.6432   -6.0218 O   0  0  0  0  0  0  0  0  0  0  0  0
  -16.1525  -37.7353   -7.2803 C   0  0  0  0  0  0  0  0  0  0  0  0
  -15.0294  -37.5656   -8.1675 N   0  0  0  0  0  0  0  0  0  0  0  0
  -14.8254  -38.6062   -9.1204 C   0  0  0  0  0  0  0  0  0  0  0  0
  -14.4153  -37.9459  -10.4127 C   0  0  0  0  0  0  0  0  0  0  0  0
  -13.5286  -38.3599  -11.3646 C   0  0  0  0  0  0  0  0  0  0  0  0
  -13.5098  -37.4077  -12.3581 C   0  0  0  0  0  0  0  0  0  0  0  0
  -12.7111  -37.3856  -13.6176 C   0  0  0  0  0  0  0  0  0  0  0  0
  -11.4743  -36.5292  -13.4628 C   0  0  0  0  0  0  0  0  0  0  0  0
  -10.5972  -37.0537  -12.3370 C   0  0  0  0  0  0  0  0  0  0  0  0
  -11.8035  -35.0934  -13.2066 C   0  0  0  0  0  0  0  0  0  0  0  0
  -10.6638  -36.6588  -14.7357 C   0  0  0  0  0  0  0  0  0  0  0  0
  -14.3561  -36.4750  -11.9931 O   0  0  0  0  0  0  0  0  0  0  0  0
  -14.9092  -36.7616  -10.8476 N   0  0  0  0  0  0  0  0  0  0  0  0
  2  1  1  1
  2  3  1  0
  3  4  1  0
  4  5  1  0
  5  6  2  0
  6  7  1  0
  7  8  1  0
  8  9  1  0
  9 10  1  0
 10 11  1  0
 11 12  1  0
 12 13  2  0
 13 14  1  0
 14 15  2  0
 15 16  1  0
 16 17  1  0
 15 18  1  0
 13 19  1  0
 19 20  2  0
 19 21  1  0
 21 22  1  0
 22 23  1  1
 22 24  1  0
 24 25  1  1
 24 26  1  0
 26 27  1  0
 27 28  1  0
 28 29  1  0
 29 30  1  0
 30 31  2  0
 31 32  1  0
 32 33  1  0
 33 34  1  0
 33 35  1  0
 33 36  1  0
 31 37  1  0
 37 38  1  0
 18 11  2  0
 23  2  1  0
 38 29  2  0
M  END
$$$$
