
     RDKit          3D

 38 40  0  0  0  0  0  0  0  0999 V2000
  -13.6969  -38.8932  -10.6055 C   0  0  0  0  0  0  0  0  0  0  0  0
  -15.1176  -38.4328  -11.0017 C   0  0  2  0  0  0  0  0  0  0  0  0
  -14.9429  -37.0994  -11.6163 C   0  0  0  0  0  0  0  0  0  0  0  0
  -16.2218  -36.2972  -11.8336 C   0  0  0  0  0  0  0  0  0  0  0  0
  -17.1525  -37.0620  -12.7262 C   0  0  0  0  0  0  0  0  0  0  0  0
  -17.9444  -36.8000  -13.7108 C   0  0  0  0  0  0  0  0  0  0  0  0
  -18.8690  -37.5848  -14.5890 C   0  0  0  0  0  0  0  0  0  0  0  0
  -20.2585  -36.9450  -14.3913 C   0  0  0  0  0  0  0  0  0  0  0  0
  -20.3174  -36.3500  -13.0391 C   0  0  0  0  0  0  0  0  0  0  0  0
  -21.0685  -37.1370  -12.0588 N   0  0  0  0  0  0  0  0  0  0  0  0
  -20.6309  -37.8656  -10.9115 C   0  0  0  0  0  0  0  0  0  0  0  0
  -19.6222  -38.7976  -10.7400 C   0  0  0  0  0  0  0  0  0  0  0  0
  -19.4135  -39.3385   -9.4822 C   0  0  0  0  0  0  0  0  0  0  0  0
  -20.2453  -38.9194   -8.4105 C   0  0  0  0  0  0  0  0  0  0  0  0
  -21.2531  -38.0033   -8.5374 C   0  0  0  0  0  0  0  0  0  0  0  0
  -22.0991  -37.5981   -7.3826 C   0  0  0  0  0  0  0  0  0  0  0  0
  -22.2913  -38.7301   -6.6096 O   0  0  0  0  0  0  0  0  0  0  0  0
  -21.4256  -37.4938   -9.7904 C   0  0  0  0  0  0  0  0  0  0  0  0
  -18.4476  -40.3219   -8.9799 C   0  0  0  0  0  0  0  0  0  0  0  0
  -18.9089  -41.2555   -8.1501 O   0  0  0  0  0  0  0  0  0  0  0  0
  -17.0596  -40.5205   -9.1813 N   0  0  0  0  0  0  0  0  0  0  0  0
  -15.9595  -39.6532   -8.9848 C   0  0  1  0  0  0  0  0  0  0  0  0
  -15.9868  -38.3575   -9.7671 C   0  0  0  0  0  0  0  0  0  0  0  0
  -15.6227  -39.3874   -7.5276 C   0  0  2  0  0  0  0  0  0  0  0  0
  -14.4953  -38.5661   -7.4981 O   0  0  0  0  0  0  0  0  0  0  0  0
  -15.3666  -40.6309   -6.7321 C   0  0  0  0  0  0  0  0  0  0  0  0
  -16.6281  -41.2355   -6.3853 N   0  0  0  0  0  0  0  0  0  0  0  0
  -17.2510  -40.7419   -5.2018 C   0  0  0  0  0  0  0  0  0  0  0  0
  -18.6383  -41.3316   -5.1555 C   0  0  0  0  0  0  0  0  0  0  0  0
  -19.8053  -40.7895   -4.6994 C   0  0  0  0  0  0  0  0  0  0  0  0
  -20.7976  -41.7260   -4.8795 C   0  0  0  0  0  0  0  0  0  0  0  0
  -22.2484  -41.6274   -4.5474 C   0  0  0  0  0  0  0  0  0  0  0  0
  -23.0415  -41.1032   -5.7234 C   0  0  0  0  0  0  0  0  0  0  0  0
  -22.5655  -41.7428   -7.0182 C   0  0  0  0  0  0  0  0  0  0  0  0
  -22.9617  -39.6154   -5.8472 C   0  0  0  0  0  0  0  0  0  0  0  0
  -24.4813  -41.5339   -5.5347 C   0  0  0  0  0  0  0  0  0  0  0  0
  -20.2240  -42.7737   -5.4206 O   0  0  0  0  0  0  0  0  0  0  0  0
  -18.9477  -42.5743   -5.5976 N   0  0  0  0  0  0  0  0  0  0  0  0
  2  1  1  1
  2  3  1  0
  3  4  1  0
  4  5  1  0
  5  6  2  0
  6  7  1  0
  7  8  1  0
  8  9  1  0
  9 10  1  0
 10 11  1  0
 11 12  1  0
 12 13  2  0
 13 14  1  0
 14 15  2  0
 15 16  1  0
 16 17  1  0
 15 18  1  0
 13 19  1  0
 19 20  2  0
 19 21  1  0
 21 22  1  0
 22 23  1  6
 22 24  1  0
 24 25  1  6
 24 26  1  0
 26 27  1  0
 27 28  1  0
 28 29  1  0
 29 30  1  0
 30 31  2  0
 31 32  1  0
 32 33  1  0
 33 34  1  0
 33 35  1  0
 33 36  1  0
 31 37  1  0
 37 38  1  0
 18 11  2  0
 23  2  1  0
 38 29  2  0
M  END
$$$$
