
     RDKit          3D

 38 41  0  0  0  0  0  0  0  0999 V2000
  -17.4638  -45.8050   -5.9111 C   0  0  0  0  0  0  0  0  0  0  0  0
  -18.5066  -44.9642   -6.5631 C   0  0  0  0  0  0  0  0  0  0  0  0
  -18.2368  -44.2340   -7.7021 C   0  0  0  0  0  0  0  0  0  0  0  0
  -19.1973  -43.4224   -8.3478 C   0  0  0  0  0  0  0  0  0  0  0  0
  -20.4741  -43.3420   -7.8335 C   0  0  0  0  0  0  0  0  0  0  0  0
  -20.7351  -44.0708   -6.7005 C   0  0  0  0  0  0  0  0  0  0  0  0
  -21.9124  -44.2402   -5.8928 N   0  0  0  0  0  0  0  0  0  0  0  0
  -22.7413  -43.2934   -5.2202 C   0  0  0  0  0  0  0  0  0  0  0  0
  -22.5163  -41.9280   -5.8799 C   0  0  0  0  0  0  0  0  0  0  0  0
  -23.5676  -41.6478   -6.8987 C   0  0  0  0  0  0  0  0  0  0  0  0
  -23.4536  -40.2737   -7.5263 C   0  0  0  0  0  0  0  0  0  0  0  0
  -22.0667  -39.7229   -7.5417 C   0  0  0  0  0  0  0  0  0  0  0  0
  -21.8548  -38.9104   -6.4002 C   0  0  0  0  0  0  0  0  0  0  0  0
  -20.6970  -38.2339   -6.1489 C   0  0  0  0  0  0  0  0  0  0  0  0
  -19.7283  -38.3997   -7.1046 C   0  0  0  0  0  0  0  0  0  0  0  0
  -19.8738  -39.1962   -8.2650 C   0  0  0  0  0  0  0  0  0  0  0  0
  -18.6561  -39.1213   -9.1092 C   0  0  0  0  0  0  0  0  0  0  0  0
  -17.8244  -40.3400   -9.3061 C   0  0  2  0  0  0  0  0  0  0  0  0
  -18.5641  -41.4196   -9.9281 N   0  0  0  0  0  0  0  0  0  0  0  0
  -18.5898  -42.7853   -9.5305 C   0  0  0  0  0  0  0  0  0  0  0  0
  -17.9491  -43.5603  -10.3976 O   0  0  0  0  0  0  0  0  0  0  0  0
  -17.1169  -40.7063   -8.0509 C   0  0  2  0  0  0  0  0  0  0  0  0
  -16.9799  -39.6704   -7.1688 O   0  0  0  0  0  0  0  0  0  0  0  0
  -15.9721  -41.6520   -8.1808 C   0  0  0  0  0  0  0  0  0  0  0  0
  -14.7268  -40.9859   -8.3160 N   0  0  0  0  0  0  0  0  0  0  0  0
  -14.3447  -40.9196   -9.7281 C   0  0  0  0  0  0  0  0  0  0  0  0
  -15.4035  -40.2552  -10.5329 C   0  0  0  0  0  0  0  0  0  0  0  0
  -15.5824  -38.9020  -10.3494 C   0  0  0  0  0  0  0  0  0  0  0  0
  -16.5484  -38.2273  -11.0639 C   0  0  0  0  0  0  0  0  0  0  0  0
  -17.3128  -38.9241  -11.9476 C   0  0  0  0  0  0  0  0  0  0  0  0
  -17.1033  -40.2806  -12.1053 C   0  0  0  0  0  0  0  0  0  0  0  0
  -16.1625  -40.9243  -11.4042 N   0  0  0  0  0  0  0  0  0  0  0  0
  -16.7349  -36.7813  -10.8509 C   0  0  0  0  0  0  0  0  0  0  0  0
  -17.8907  -36.5167   -9.8909 C   0  0  0  0  0  0  0  0  0  0  0  0
  -17.1245  -36.0857  -12.1503 C   0  0  0  0  0  0  0  0  0  0  0  0
  -15.4472  -36.1862  -10.3685 C   0  0  0  0  0  0  0  0  0  0  0  0
  -21.0589  -39.8577   -8.4679 C   0  0  0  0  0  0  0  0  0  0  0  0
  -19.7386  -44.8469   -6.1197 N   0  0  0  0  0  0  0  0  0  0  0  0
  1  2  1  0
  2  3  2  0
  3  4  1  0
  4  5  2  0
  5  6  1  0
  6  7  1  0
  7  8  1  0
  8  9  1  0
  9 10  1  0
 10 11  1  0
 11 12  1  0
 12 13  1  0
 13 14  2  0
 14 15  1  0
 15 16  2  0
 16 17  1  0
 18 17  1  1
 18 19  1  0
 19 20  1  0
 20 21  2  0
 18 22  1  0
 22 23  1  6
 22 24  1  0
 24 25  1  0
 25 26  1  0
 26 27  1  0
 27 28  2  0
 28 29  1  0
 29 30  2  0
 30 31  1  0
 31 32  2  0
 29 33  1  0
 33 34  1  0
 33 35  1  0
 33 36  1  0
 16 37  1  0
  6 38  2  0
 20  4  1  0
 32 27  1  0
 37 12  2  0
 38  2  1  0
M  END
$$$$
