
     RDKit          3D

 38 41  0  0  0  0  0  0  0  0999 V2000
  -16.6737  -45.1638   -7.2127 C   0  0  0  0  0  0  0  0  0  0  0  0
  -17.8047  -44.3043   -7.6614 C   0  0  0  0  0  0  0  0  0  0  0  0
  -17.5999  -43.2069   -8.4721 C   0  0  0  0  0  0  0  0  0  0  0  0
  -18.6454  -42.3655   -8.9159 C   0  0  0  0  0  0  0  0  0  0  0  0
  -19.9425  -42.6358   -8.5345 C   0  0  0  0  0  0  0  0  0  0  0  0
  -20.1387  -43.7286   -7.7281 C   0  0  0  0  0  0  0  0  0  0  0  0
  -21.3121  -44.3160   -7.1407 N   0  0  0  0  0  0  0  0  0  0  0  0
  -22.3160  -43.7697   -6.2865 C   0  0  0  0  0  0  0  0  0  0  0  0
  -22.2821  -42.2454   -6.4463 C   0  0  0  0  0  0  0  0  0  0  0  0
  -23.3125  -41.7878   -7.4213 C   0  0  0  0  0  0  0  0  0  0  0  0
  -23.3910  -40.2812   -7.5592 C   0  0  0  0  0  0  0  0  0  0  0  0
  -22.1126  -39.5732   -7.2570 C   0  0  0  0  0  0  0  0  0  0  0  0
  -22.0925  -39.1664   -5.8998 C   0  0  0  0  0  0  0  0  0  0  0  0
  -21.0736  -38.4612   -5.3291 C   0  0  0  0  0  0  0  0  0  0  0  0
  -20.0440  -38.1656   -6.1848 C   0  0  0  0  0  0  0  0  0  0  0  0
  -20.0003  -38.5421   -7.5480 C   0  0  0  0  0  0  0  0  0  0  0  0
  -18.7700  -38.0252   -8.1962 C   0  0  0  0  0  0  0  0  0  0  0  0
  -17.7432  -38.9833   -8.6894 C   0  0  2  0  0  0  0  0  0  0  0  0
  -18.2662  -39.8843   -9.6966 N   0  0  0  0  0  0  0  0  0  0  0  0
  -18.0904  -41.2944   -9.7637 C   0  0  0  0  0  0  0  0  0  0  0  0
  -17.2901  -41.6414  -10.7646 O   0  0  0  0  0  0  0  0  0  0  0  0
  -17.0496  -39.6467   -7.5541 C   0  0  2  0  0  0  0  0  0  0  0  0
  -17.5392  -39.2991   -6.3254 O   0  0  0  0  0  0  0  0  0  0  0  0
  -15.5743  -39.8182   -7.6805 C   0  0  0  0  0  0  0  0  0  0  0  0
  -14.8549  -38.6596   -7.2893 N   0  0  0  0  0  0  0  0  0  0  0  0
  -14.9986  -37.6141   -8.3045 C   0  0  0  0  0  0  0  0  0  0  0  0
  -14.8996  -38.1868   -9.6728 C   0  0  0  0  0  0  0  0  0  0  0  0
  -14.6220  -37.3174  -10.7042 C   0  0  0  0  0  0  0  0  0  0  0  0
  -14.5186  -37.7850  -11.9963 C   0  0  0  0  0  0  0  0  0  0  0  0
  -14.6946  -39.1144  -12.2255 C   0  0  0  0  0  0  0  0  0  0  0  0
  -14.9707  -39.9560  -11.1651 C   0  0  0  0  0  0  0  0  0  0  0  0
  -15.0697  -39.4888   -9.9150 N   0  0  0  0  0  0  0  0  0  0  0  0
  -14.2302  -36.8422  -13.0912 C   0  0  0  0  0  0  0  0  0  0  0  0
  -12.7340  -36.7886  -13.3842 C   0  0  0  0  0  0  0  0  0  0  0  0
  -14.6143  -35.4197  -12.6997 C   0  0  0  0  0  0  0  0  0  0  0  0
  -15.0323  -37.2293  -14.2962 C   0  0  0  0  0  0  0  0  0  0  0  0
  -21.0510  -39.2533   -8.0710 C   0  0  0  0  0  0  0  0  0  0  0  0
  -19.0601  -44.5103   -7.3303 N   0  0  0  0  0  0  0  0  0  0  0  0
  1  2  1  0
  2  3  2  0
  3  4  1  0
  4  5  2  0
  5  6  1  0
  6  7  1  0
  7  8  1  0
  8  9  1  0
  9 10  1  0
 10 11  1  0
 11 12  1  0
 12 13  1  0
 13 14  2  0
 14 15  1  0
 15 16  2  0
 16 17  1  0
 18 17  1  1
 18 19  1  0
 19 20  1  0
 20 21  2  0
 18 22  1  0
 22 23  1  1
 22 24  1  0
 24 25  1  0
 25 26  1  0
 26 27  1  0
 27 28  2  0
 28 29  1  0
 29 30  2  0
 30 31  1  0
 31 32  2  0
 29 33  1  0
 33 34  1  0
 33 35  1  0
 33 36  1  0
 16 37  1  0
  6 38  2  0
 20  4  1  0
 32 27  1  0
 37 12  2  0
 38  2  1  0
M  END
$$$$
