
     RDKit          3D

 38 41  0  0  0  0  0  0  0  0999 V2000
  -16.8078  -45.5050   -7.4434 C   0  0  0  0  0  0  0  0  0  0  0  0
  -17.9614  -44.5971   -7.6971 C   0  0  0  0  0  0  0  0  0  0  0  0
  -17.8764  -43.5567   -8.5992 C   0  0  0  0  0  0  0  0  0  0  0  0
  -18.9465  -42.6723   -8.8650 C   0  0  0  0  0  0  0  0  0  0  0  0
  -20.1449  -42.8387   -8.2037 C   0  0  0  0  0  0  0  0  0  0  0  0
  -20.2221  -43.8753   -7.3079 C   0  0  0  0  0  0  0  0  0  0  0  0
  -21.2727  -44.3557   -6.4519 N   0  0  0  0  0  0  0  0  0  0  0  0
  -22.0410  -43.7038   -5.4416 C   0  0  0  0  0  0  0  0  0  0  0  0
  -21.9613  -42.1947   -5.6992 C   0  0  0  0  0  0  0  0  0  0  0  0
  -23.1502  -41.7201   -6.4627 C   0  0  0  0  0  0  0  0  0  0  0  0
  -23.1766  -40.2202   -6.6742 C   0  0  0  0  0  0  0  0  0  0  0  0
  -21.8275  -39.5825   -6.6916 C   0  0  0  0  0  0  0  0  0  0  0  0
  -21.4969  -39.1113   -5.3967 C   0  0  0  0  0  0  0  0  0  0  0  0
  -20.3439  -38.4463   -5.0976 C   0  0  0  0  0  0  0  0  0  0  0  0
  -19.5064  -38.2607   -6.1670 C   0  0  0  0  0  0  0  0  0  0  0  0
  -19.7743  -38.7061   -7.4829 C   0  0  0  0  0  0  0  0  0  0  0  0
  -18.6850  -38.3027   -8.4057 C   0  0  0  0  0  0  0  0  0  0  0  0
  -17.8391  -39.3487   -9.0432 C   0  0  2  0  0  0  0  0  0  0  0  0
  -18.6118  -40.2625   -9.8602 N   0  0  0  0  0  0  0  0  0  0  0  0
  -18.5292  -41.6826   -9.8751 C   0  0  0  0  0  0  0  0  0  0  0  0
  -17.9803  -42.1298  -10.9982 O   0  0  0  0  0  0  0  0  0  0  0  0
  -16.9555  -39.9987   -8.0398 C   0  0  2  0  0  0  0  0  0  0  0  0
  -17.3245  -39.7680   -6.7434 O   0  0  0  0  0  0  0  0  0  0  0  0
  -15.4965  -40.0144   -8.3447 C   0  0  0  0  0  0  0  0  0  0  0  0
  -15.2145  -40.5317   -9.6353 N   0  0  0  0  0  0  0  0  0  0  0  0
  -14.1014  -39.7954  -10.2381 C   0  0  0  0  0  0  0  0  0  0  0  0
  -14.5883  -38.5747  -10.9331 C   0  0  0  0  0  0  0  0  0  0  0  0
  -13.6434  -37.7561  -11.5110 C   0  0  0  0  0  0  0  0  0  0  0  0
  -14.0294  -36.6086  -12.1689 C   0  0  0  0  0  0  0  0  0  0  0  0
  -15.3546  -36.3077  -12.2341 C   0  0  0  0  0  0  0  0  0  0  0  0
  -16.2732  -37.1538  -11.6432 C   0  0  0  0  0  0  0  0  0  0  0  0
  -15.8850  -38.2647  -11.0061 N   0  0  0  0  0  0  0  0  0  0  0  0
  -13.0070  -35.7373  -12.7746 C   0  0  0  0  0  0  0  0  0  0  0  0
  -12.5733  -34.6470  -11.7996 C   0  0  0  0  0  0  0  0  0  0  0  0
  -13.5699  -34.9960  -13.9820 C   0  0  0  0  0  0  0  0  0  0  0  0
  -11.8562  -36.5785  -13.2359 C   0  0  0  0  0  0  0  0  0  0  0  0
  -20.9485  -39.3727   -7.7285 C   0  0  0  0  0  0  0  0  0  0  0  0
  -19.1264  -44.7047   -7.0977 N   0  0  0  0  0  0  0  0  0  0  0  0
  1  2  1  0
  2  3  2  0
  3  4  1  0
  4  5  2  0
  5  6  1  0
  6  7  1  0
  7  8  1  0
  8  9  1  0
  9 10  1  0
 10 11  1  0
 11 12  1  0
 12 13  1  0
 13 14  2  0
 14 15  1  0
 15 16  2  0
 16 17  1  0
 18 17  1  1
 18 19  1  0
 19 20  1  0
 20 21  2  0
 18 22  1  0
 22 23  1  1
 22 24  1  0
 24 25  1  0
 25 26  1  0
 26 27  1  0
 27 28  2  0
 28 29  1  0
 29 30  2  0
 30 31  1  0
 31 32  2  0
 29 33  1  0
 33 34  1  0
 33 35  1  0
 33 36  1  0
 16 37  1  0
  6 38  2  0
 20  4  1  0
 32 27  1  0
 37 12  2  0
 38  2  1  0
M  END
$$$$
