
     RDKit          3D

 38 41  0  0  0  0  0  0  0  0999 V2000
  -15.5592  -44.6531   -6.8904 C   0  0  0  0  0  0  0  0  0  0  0  0
  -16.7144  -43.9979   -7.5654 C   0  0  0  0  0  0  0  0  0  0  0  0
  -16.5340  -42.9798   -8.4789 C   0  0  0  0  0  0  0  0  0  0  0  0
  -17.6035  -42.3312   -9.1374 C   0  0  0  0  0  0  0  0  0  0  0  0
  -18.8996  -42.7190   -8.8714 C   0  0  0  0  0  0  0  0  0  0  0  0
  -19.0714  -43.7320   -7.9619 C   0  0  0  0  0  0  0  0  0  0  0  0
  -20.2358  -44.3942   -7.4396 N   0  0  0  0  0  0  0  0  0  0  0  0
  -21.3935  -43.8877   -6.7769 C   0  0  0  0  0  0  0  0  0  0  0  0
  -21.5109  -42.3984   -7.1207 C   0  0  0  0  0  0  0  0  0  0  0  0
  -22.4559  -42.1850   -8.2534 C   0  0  0  0  0  0  0  0  0  0  0  0
  -22.6850  -40.7248   -8.5860 C   0  0  0  0  0  0  0  0  0  0  0  0
  -21.5418  -39.8323   -8.2345 C   0  0  0  0  0  0  0  0  0  0  0  0
  -21.7374  -39.2787   -6.9447 C   0  0  0  0  0  0  0  0  0  0  0  0
  -20.8833  -38.3919   -6.3570 C   0  0  0  0  0  0  0  0  0  0  0  0
  -19.7945  -38.0653   -7.1233 C   0  0  0  0  0  0  0  0  0  0  0  0
  -19.5387  -38.5815   -8.4156 C   0  0  0  0  0  0  0  0  0  0  0  0
  -18.3027  -37.9884   -8.9827 C   0  0  0  0  0  0  0  0  0  0  0  0
  -17.1214  -38.8581   -9.2357 C   0  0  2  0  0  0  0  0  0  0  0  0
  -17.4101  -39.9235  -10.1744 N   0  0  0  0  0  0  0  0  0  0  0  0
  -17.0704  -41.2989  -10.0452 C   0  0  0  0  0  0  0  0  0  0  0  0
  -16.1174  -41.6507  -10.9001 O   0  0  0  0  0  0  0  0  0  0  0  0
  -16.5053  -39.2991   -7.9566 C   0  0  2  0  0  0  0  0  0  0  0  0
  -17.3217  -39.1551   -6.8690 O   0  0  0  0  0  0  0  0  0  0  0  0
  -15.0578  -38.9950   -7.7723 C   0  0  0  0  0  0  0  0  0  0  0  0
  -14.6708  -37.7830   -8.3999 N   0  0  0  0  0  0  0  0  0  0  0  0
  -14.8472  -37.8909   -9.8496 C   0  0  0  0  0  0  0  0  0  0  0  0
  -14.0693  -39.0346  -10.3945 C   0  0  0  0  0  0  0  0  0  0  0  0
  -14.5564  -39.6491  -11.5267 C   0  0  0  0  0  0  0  0  0  0  0  0
  -13.8828  -40.7160  -12.0807 C   0  0  0  0  0  0  0  0  0  0  0  0
  -12.7350  -41.1425  -11.4878 C   0  0  0  0  0  0  0  0  0  0  0  0
  -12.2769  -40.5001  -10.3536 C   0  0  0  0  0  0  0  0  0  0  0  0
  -12.9412  -39.4657   -9.8249 N   0  0  0  0  0  0  0  0  0  0  0  0
  -14.4203  -41.3698  -13.2869 C   0  0  0  0  0  0  0  0  0  0  0  0
  -15.9014  -41.6935  -13.1170 C   0  0  0  0  0  0  0  0  0  0  0  0
  -13.7403  -42.7130  -13.5265 C   0  0  0  0  0  0  0  0  0  0  0  0
  -14.1619  -40.4950  -14.4756 C   0  0  0  0  0  0  0  0  0  0  0  0
  -20.4294  -39.4729   -8.9591 C   0  0  0  0  0  0  0  0  0  0  0  0
  -17.9703  -44.3227   -7.3525 N   0  0  0  0  0  0  0  0  0  0  0  0
  1  2  1  0
  2  3  2  0
  3  4  1  0
  4  5  2  0
  5  6  1  0
  6  7  1  0
  7  8  1  0
  8  9  1  0
  9 10  1  0
 10 11  1  0
 11 12  1  0
 12 13  1  0
 13 14  2  0
 14 15  1  0
 15 16  2  0
 16 17  1  0
 18 17  1  1
 18 19  1  0
 19 20  1  0
 20 21  2  0
 18 22  1  0
 22 23  1  1
 22 24  1  0
 24 25  1  0
 25 26  1  0
 26 27  1  0
 27 28  2  0
 28 29  1  0
 29 30  2  0
 30 31  1  0
 31 32  2  0
 29 33  1  0
 33 34  1  0
 33 35  1  0
 33 36  1  0
 16 37  1  0
  6 38  2  0
 20  4  1  0
 32 27  1  0
 37 12  2  0
 38  2  1  0
M  END
$$$$
