
     RDKit          3D

 38 41  0  0  0  0  0  0  0  0999 V2000
  -17.4508  -45.4854   -6.0453 C   0  0  0  0  0  0  0  0  0  0  0  0
  -18.3937  -44.5437   -6.7113 C   0  0  0  0  0  0  0  0  0  0  0  0
  -17.9876  -43.7277   -7.7470 C   0  0  0  0  0  0  0  0  0  0  0  0
  -18.8504  -42.8194   -8.4017 C   0  0  0  0  0  0  0  0  0  0  0  0
  -20.1675  -42.7277   -8.0045 C   0  0  0  0  0  0  0  0  0  0  0  0
  -20.5642  -43.5422   -6.9738 C   0  0  0  0  0  0  0  0  0  0  0  0
  -21.8202  -43.7297   -6.2997 N   0  0  0  0  0  0  0  0  0  0  0  0
  -22.6760  -42.8104   -5.6227 C   0  0  0  0  0  0  0  0  0  0  0  0
  -22.3382  -41.4031   -6.1284 C   0  0  0  0  0  0  0  0  0  0  0  0
  -23.2741  -40.9860   -7.2109 C   0  0  0  0  0  0  0  0  0  0  0  0
  -23.0496  -39.5680   -7.6944 C   0  0  0  0  0  0  0  0  0  0  0  0
  -21.6488  -39.0810   -7.5280 C   0  0  0  0  0  0  0  0  0  0  0  0
  -21.5201  -38.3839   -6.3010 C   0  0  0  0  0  0  0  0  0  0  0  0
  -20.3687  -37.7854   -5.8800 C   0  0  0  0  0  0  0  0  0  0  0  0
  -19.3179  -37.9087   -6.7518 C   0  0  0  0  0  0  0  0  0  0  0  0
  -19.3780  -38.5912   -7.9898 C   0  0  0  0  0  0  0  0  0  0  0  0
  -18.0818  -38.4962   -8.7052 C   0  0  0  0  0  0  0  0  0  0  0  0
  -17.2795  -39.7287   -8.9356 C   0  0  2  0  0  0  0  0  0  0  0  0
  -17.9936  -40.7142   -9.7222 N   0  0  0  0  0  0  0  0  0  0  0  0
  -18.1075  -42.1073   -9.4576 C   0  0  0  0  0  0  0  0  0  0  0  0
  -17.4137  -42.8299  -10.3290 O   0  0  0  0  0  0  0  0  0  0  0  0
  -16.7118  -40.2370   -7.6591 C   0  0  2  0  0  0  0  0  0  0  0  0
  -16.6796  -39.3070   -6.6570 O   0  0  0  0  0  0  0  0  0  0  0  0
  -15.5533  -41.1686   -7.7670 C   0  0  0  0  0  0  0  0  0  0  0  0
  -14.9523  -41.1452   -9.0520 N   0  0  0  0  0  0  0  0  0  0  0  0
  -14.1963  -39.9036   -9.2290 C   0  0  0  0  0  0  0  0  0  0  0  0
  -14.6213  -39.1962  -10.4656 C   0  0  0  0  0  0  0  0  0  0  0  0
  -14.7802  -37.8302  -10.3904 C   0  0  0  0  0  0  0  0  0  0  0  0
  -15.1739  -37.1158  -11.5010 C   0  0  0  0  0  0  0  0  0  0  0  0
  -15.3983  -37.7868  -12.6630 C   0  0  0  0  0  0  0  0  0  0  0  0
  -15.2274  -39.1573  -12.7002 C   0  0  0  0  0  0  0  0  0  0  0  0
  -14.8459  -39.8394  -11.6139 N   0  0  0  0  0  0  0  0  0  0  0  0
  -15.3487  -35.6560  -11.4037 C   0  0  0  0  0  0  0  0  0  0  0  0
  -14.0703  -34.9859  -10.9097 C   0  0  0  0  0  0  0  0  0  0  0  0
  -16.4126  -35.3031  -10.3704 C   0  0  0  0  0  0  0  0  0  0  0  0
  -15.7921  -35.1252  -12.7329 C   0  0  0  0  0  0  0  0  0  0  0  0
  -20.5609  -39.1780   -8.3639 C   0  0  0  0  0  0  0  0  0  0  0  0
  -19.6580  -44.4110   -6.3767 N   0  0  0  0  0  0  0  0  0  0  0  0
  1  2  1  0
  2  3  2  0
  3  4  1  0
  4  5  2  0
  5  6  1  0
  6  7  1  0
  7  8  1  0
  8  9  1  0
  9 10  1  0
 10 11  1  0
 11 12  1  0
 12 13  1  0
 13 14  2  0
 14 15  1  0
 15 16  2  0
 16 17  1  0
 18 17  1  1
 18 19  1  0
 19 20  1  0
 20 21  2  0
 18 22  1  0
 22 23  1  1
 22 24  1  0
 24 25  1  0
 25 26  1  0
 26 27  1  0
 27 28  2  0
 28 29  1  0
 29 30  2  0
 30 31  1  0
 31 32  2  0
 29 33  1  0
 33 34  1  0
 33 35  1  0
 33 36  1  0
 16 37  1  0
  6 38  2  0
 20  4  1  0
 32 27  1  0
 37 12  2  0
 38  2  1  0
M  END
$$$$
