
     RDKit          3D

 38 41  0  0  0  0  0  0  0  0999 V2000
  -15.2666  -43.2689   -6.0295 C   0  0  0  0  0  0  0  0  0  0  0  0
  -16.6266  -42.9599   -6.5533 C   0  0  0  0  0  0  0  0  0  0  0  0
  -16.8061  -42.3178   -7.7611 C   0  0  0  0  0  0  0  0  0  0  0  0
  -18.0788  -42.0042   -8.2902 C   0  0  0  0  0  0  0  0  0  0  0  0
  -19.2115  -42.3486   -7.5835 C   0  0  0  0  0  0  0  0  0  0  0  0
  -19.0253  -42.9869   -6.3831 C   0  0  0  0  0  0  0  0  0  0  0  0
  -19.9335  -43.4904   -5.3887 N   0  0  0  0  0  0  0  0  0  0  0  0
  -20.9723  -42.8519   -4.6477 C   0  0  0  0  0  0  0  0  0  0  0  0
  -21.3781  -41.5869   -5.4127 C   0  0  0  0  0  0  0  0  0  0  0  0
  -22.5752  -41.8391   -6.2643 C   0  0  0  0  0  0  0  0  0  0  0  0
  -23.0818  -40.6039   -6.9803 C   0  0  0  0  0  0  0  0  0  0  0  0
  -22.0299  -39.5801   -7.2496 C   0  0  0  0  0  0  0  0  0  0  0  0
  -22.0070  -38.6221   -6.2057 C   0  0  0  0  0  0  0  0  0  0  0  0
  -21.1795  -37.5376   -6.1827 C   0  0  0  0  0  0  0  0  0  0  0  0
  -20.3507  -37.4377   -7.2702 C   0  0  0  0  0  0  0  0  0  0  0  0
  -20.3216  -38.3582   -8.3443 C   0  0  0  0  0  0  0  0  0  0  0  0
  -19.3446  -37.9308   -9.3757 C   0  0  0  0  0  0  0  0  0  0  0  0
  -18.1381  -38.7639   -9.6326 C   0  0  2  0  0  0  0  0  0  0  0  0
  -18.4743  -40.1056  -10.0647 N   0  0  0  0  0  0  0  0  0  0  0  0
  -17.9193  -41.3264   -9.5899 C   0  0  0  0  0  0  0  0  0  0  0  0
  -17.1435  -41.8995  -10.5022 O   0  0  0  0  0  0  0  0  0  0  0  0
  -17.1920  -38.6924   -8.4881 C   0  0  2  0  0  0  0  0  0  0  0  0
  -17.7806  -38.3493   -7.3024 O   0  0  0  0  0  0  0  0  0  0  0  0
  -15.8417  -38.1283   -8.7715 C   0  0  0  0  0  0  0  0  0  0  0  0
  -14.9547  -39.0876   -9.3244 N   0  0  0  0  0  0  0  0  0  0  0  0
  -14.2444  -38.5124  -10.4685 C   0  0  0  0  0  0  0  0  0  0  0  0
  -14.2938  -39.4288  -11.6382 C   0  0  0  0  0  0  0  0  0  0  0  0
  -13.1981  -40.2337  -11.8582 C   0  0  0  0  0  0  0  0  0  0  0  0
  -13.1807  -41.1042  -12.9263 C   0  0  0  0  0  0  0  0  0  0  0  0
  -14.2629  -41.1493  -13.7495 C   0  0  0  0  0  0  0  0  0  0  0  0
  -15.3441  -40.3272  -13.4961 C   0  0  0  0  0  0  0  0  0  0  0  0
  -15.3478  -39.4853  -12.4559 N   0  0  0  0  0  0  0  0  0  0  0  0
  -11.9981  -41.9529  -13.1550 C   0  0  0  0  0  0  0  0  0  0  0  0
  -12.0115  -42.5377  -14.5639 C   0  0  0  0  0  0  0  0  0  0  0  0
  -12.0036  -43.1570  -12.2200 C   0  0  0  0  0  0  0  0  0  0  0  0
  -10.7604  -41.1536  -12.8826 C   0  0  0  0  0  0  0  0  0  0  0  0
  -21.1738  -39.4336   -8.3161 C   0  0  0  0  0  0  0  0  0  0  0  0
  -17.7416  -43.2618   -5.9257 N   0  0  0  0  0  0  0  0  0  0  0  0
  1  2  1  0
  2  3  2  0
  3  4  1  0
  4  5  2  0
  5  6  1  0
  6  7  1  0
  7  8  1  0
  8  9  1  0
  9 10  1  0
 10 11  1  0
 11 12  1  0
 12 13  1  0
 13 14  2  0
 14 15  1  0
 15 16  2  0
 16 17  1  0
 18 17  1  1
 18 19  1  0
 19 20  1  0
 20 21  2  0
 18 22  1  0
 22 23  1  1
 22 24  1  0
 24 25  1  0
 25 26  1  0
 26 27  1  0
 27 28  2  0
 28 29  1  0
 29 30  2  0
 30 31  1  0
 31 32  2  0
 29 33  1  0
 33 34  1  0
 33 35  1  0
 33 36  1  0
 16 37  1  0
  6 38  2  0
 20  4  1  0
 32 27  1  0
 37 12  2  0
 38  2  1  0
M  END
$$$$
