
     RDKit          3D

 38 41  0  0  0  0  0  0  0  0999 V2000
  -16.1796  -45.0479   -6.6338 C   0  0  0  0  0  0  0  0  0  0  0  0
  -17.3025  -44.3265   -7.2958 C   0  0  0  0  0  0  0  0  0  0  0  0
  -17.0897  -43.4982   -8.3784 C   0  0  0  0  0  0  0  0  0  0  0  0
  -18.1273  -42.7943   -9.0311 C   0  0  0  0  0  0  0  0  0  0  0  0
  -19.4244  -42.9277   -8.5830 C   0  0  0  0  0  0  0  0  0  0  0  0
  -19.6284  -43.7531   -7.5059 C   0  0  0  0  0  0  0  0  0  0  0  0
  -20.8045  -44.1367   -6.7731 N   0  0  0  0  0  0  0  0  0  0  0  0
  -21.7921  -43.3599   -6.0971 C   0  0  0  0  0  0  0  0  0  0  0  0
  -21.7378  -41.9392   -6.6705 C   0  0  0  0  0  0  0  0  0  0  0  0
  -22.7709  -41.7508   -7.7283 C   0  0  0  0  0  0  0  0  0  0  0  0
  -22.8291  -40.3392   -8.2753 C   0  0  0  0  0  0  0  0  0  0  0  0
  -21.5377  -39.5966   -8.1865 C   0  0  0  0  0  0  0  0  0  0  0  0
  -21.4987  -38.8323   -6.9939 C   0  0  0  0  0  0  0  0  0  0  0  0
  -20.4642  -38.0141   -6.6449 C   0  0  0  0  0  0  0  0  0  0  0  0
  -19.4389  -37.9825   -7.5544 C   0  0  0  0  0  0  0  0  0  0  0  0
  -19.4138  -38.7202   -8.7614 C   0  0  0  0  0  0  0  0  0  0  0  0
  -18.1825  -38.4220   -9.5335 C   0  0  0  0  0  0  0  0  0  0  0  0
  -17.1744  -39.4957   -9.7494 C   0  0  2  0  0  0  0  0  0  0  0  0
  -17.7201  -40.6304  -10.4667 N   0  0  0  0  0  0  0  0  0  0  0  0
  -17.5652  -42.0072  -10.1439 C   0  0  0  0  0  0  0  0  0  0  0  0
  -16.7797  -42.6294  -11.0149 O   0  0  0  0  0  0  0  0  0  0  0  0
  -16.4795  -39.8324   -8.4790 C   0  0  2  0  0  0  0  0  0  0  0  0
  -16.9408  -39.1396   -7.3939 O   0  0  0  0  0  0  0  0  0  0  0  0
  -15.0111  -40.0740   -8.5643 C   0  0  0  0  0  0  0  0  0  0  0  0
  -14.6252  -40.6593   -9.7977 N   0  0  0  0  0  0  0  0  0  0  0  0
  -13.4342  -39.9867  -10.3206 C   0  0  0  0  0  0  0  0  0  0  0  0
  -13.7945  -39.0423  -11.4107 C   0  0  0  0  0  0  0  0  0  0  0  0
  -13.6881  -37.6957  -11.1423 C   0  0  0  0  0  0  0  0  0  0  0  0
  -14.0086  -36.7684  -12.1099 C   0  0  0  0  0  0  0  0  0  0  0  0
  -14.4275  -37.2120  -13.3259 C   0  0  0  0  0  0  0  0  0  0  0  0
  -14.5206  -38.5707  -13.5584 C   0  0  0  0  0  0  0  0  0  0  0  0
  -14.2074  -39.4609  -12.6095 N   0  0  0  0  0  0  0  0  0  0  0  0
  -13.8988  -35.3308  -11.8060 C   0  0  0  0  0  0  0  0  0  0  0  0
  -14.0579  -34.4928  -13.0708 C   0  0  0  0  0  0  0  0  0  0  0  0
  -12.5119  -34.9921  -11.2712 C   0  0  0  0  0  0  0  0  0  0  0  0
  -14.9062  -34.9729  -10.7561 C   0  0  0  0  0  0  0  0  0  0  0  0
  -20.4797  -39.5305   -9.0628 C   0  0  0  0  0  0  0  0  0  0  0  0
  -18.5574  -44.4128   -6.9140 N   0  0  0  0  0  0  0  0  0  0  0  0
  1  2  1  0
  2  3  2  0
  3  4  1  0
  4  5  2  0
  5  6  1  0
  6  7  1  0
  7  8  1  0
  8  9  1  0
  9 10  1  0
 10 11  1  0
 11 12  1  0
 12 13  1  0
 13 14  2  0
 14 15  1  0
 15 16  2  0
 16 17  1  0
 18 17  1  1
 18 19  1  0
 19 20  1  0
 20 21  2  0
 18 22  1  0
 22 23  1  1
 22 24  1  0
 24 25  1  0
 25 26  1  0
 26 27  1  0
 27 28  2  0
 28 29  1  0
 29 30  2  0
 30 31  1  0
 31 32  2  0
 29 33  1  0
 33 34  1  0
 33 35  1  0
 33 36  1  0
 16 37  1  0
  6 38  2  0
 20  4  1  0
 32 27  1  0
 37 12  2  0
 38  2  1  0
M  END
$$$$
