
     RDKit          3D

 38 41  0  0  0  0  0  0  0  0999 V2000
  -15.9685  -44.2870   -7.2950 C   0  0  0  0  0  0  0  0  0  0  0  0
  -17.3788  -43.8348   -7.4563 C   0  0  0  0  0  0  0  0  0  0  0  0
  -17.7766  -43.0860   -8.5446 C   0  0  0  0  0  0  0  0  0  0  0  0
  -19.1032  -42.6354   -8.7318 C   0  0  0  0  0  0  0  0  0  0  0  0
  -20.0651  -42.9487   -7.7949 C   0  0  0  0  0  0  0  0  0  0  0  0
  -19.6622  -43.6936   -6.7152 C   0  0  0  0  0  0  0  0  0  0  0  0
  -20.3542  -44.2051   -5.5634 N   0  0  0  0  0  0  0  0  0  0  0  0
  -21.1260  -43.5514   -4.5571 C   0  0  0  0  0  0  0  0  0  0  0  0
  -21.5810  -42.2019   -5.1246 C   0  0  0  0  0  0  0  0  0  0  0  0
  -22.9627  -42.2934   -5.6762 C   0  0  0  0  0  0  0  0  0  0  0  0
  -23.5065  -40.9699   -6.1738 C   0  0  0  0  0  0  0  0  0  0  0  0
  -22.4571  -40.0104   -6.6267 C   0  0  0  0  0  0  0  0  0  0  0  0
  -22.1009  -39.1438   -5.5636 C   0  0  0  0  0  0  0  0  0  0  0  0
  -21.1942  -38.1306   -5.6756 C   0  0  0  0  0  0  0  0  0  0  0  0
  -20.6385  -38.0066   -6.9227 C   0  0  0  0  0  0  0  0  0  0  0  0
  -20.9479  -38.8375   -8.0254 C   0  0  0  0  0  0  0  0  0  0  0  0
  -20.2052  -38.4039   -9.2342 C   0  0  0  0  0  0  0  0  0  0  0  0
  -19.1754  -39.3026   -9.8237 C   0  0  2  0  0  0  0  0  0  0  0  0
  -19.7266  -40.5759  -10.2416 N   0  0  0  0  0  0  0  0  0  0  0  0
  -19.1913  -41.8694   -9.9885 C   0  0  0  0  0  0  0  0  0  0  0  0
  -18.7080  -42.4245  -11.0935 O   0  0  0  0  0  0  0  0  0  0  0  0
  -17.9845  -39.3951   -8.9386 C   0  0  2  0  0  0  0  0  0  0  0  0
  -17.9896  -38.4984   -7.9062 O   0  0  0  0  0  0  0  0  0  0  0  0
  -16.6782  -39.6688   -9.6023 C   0  0  0  0  0  0  0  0  0  0  0  0
  -16.7848  -40.6288  -10.6415 N   0  0  0  0  0  0  0  0  0  0  0  0
  -17.4834  -40.0484  -11.7901 C   0  0  0  0  0  0  0  0  0  0  0  0
  -17.5391  -38.5667  -11.6831 C   0  0  0  0  0  0  0  0  0  0  0  0
  -16.3581  -37.9058  -11.4277 C   0  0  0  0  0  0  0  0  0  0  0  0
  -16.3424  -36.5325  -11.3154 C   0  0  0  0  0  0  0  0  0  0  0  0
  -17.5111  -35.8520  -11.4630 C   0  0  0  0  0  0  0  0  0  0  0  0
  -18.6758  -36.5496  -11.7196 C   0  0  0  0  0  0  0  0  0  0  0  0
  -18.6776  -37.8836  -11.8251 N   0  0  0  0  0  0  0  0  0  0  0  0
  -15.0732  -35.8393  -11.0330 C   0  0  0  0  0  0  0  0  0  0  0  0
  -15.1599  -34.3657  -11.4181 C   0  0  0  0  0  0  0  0  0  0  0  0
  -13.9413  -36.4101  -11.8798 C   0  0  0  0  0  0  0  0  0  0  0  0
  -14.7206  -36.0301   -9.5893 C   0  0  0  0  0  0  0  0  0  0  0  0
  -21.8656  -39.8440   -7.8572 C   0  0  0  0  0  0  0  0  0  0  0  0
  -18.3382  -44.1008   -6.5979 N   0  0  0  0  0  0  0  0  0  0  0  0
  1  2  1  0
  2  3  2  0
  3  4  1  0
  4  5  2  0
  5  6  1  0
  6  7  1  0
  7  8  1  0
  8  9  1  0
  9 10  1  0
 10 11  1  0
 11 12  1  0
 12 13  1  0
 13 14  2  0
 14 15  1  0
 15 16  2  0
 16 17  1  0
 18 17  1  1
 18 19  1  0
 19 20  1  0
 20 21  2  0
 18 22  1  0
 22 23  1  6
 22 24  1  0
 24 25  1  0
 25 26  1  0
 26 27  1  0
 27 28  2  0
 28 29  1  0
 29 30  2  0
 30 31  1  0
 31 32  2  0
 29 33  1  0
 33 34  1  0
 33 35  1  0
 33 36  1  0
 16 37  1  0
  6 38  2  0
 20  4  1  0
 32 27  1  0
 37 12  2  0
 38  2  1  0
M  END
$$$$
