
     RDKit          3D

 38 41  0  0  0  0  0  0  0  0999 V2000
  -16.1937  -43.9594   -6.6425 C   0  0  0  0  0  0  0  0  0  0  0  0
  -17.5382  -43.5055   -7.0962 C   0  0  0  0  0  0  0  0  0  0  0  0
  -17.7222  -42.9135   -8.3287 C   0  0  0  0  0  0  0  0  0  0  0  0
  -18.9801  -42.4667   -8.7936 C   0  0  0  0  0  0  0  0  0  0  0  0
  -20.0930  -42.6210   -7.9945 C   0  0  0  0  0  0  0  0  0  0  0  0
  -19.9025  -43.2105   -6.7700 C   0  0  0  0  0  0  0  0  0  0  0  0
  -20.7927  -43.5355   -5.6888 N   0  0  0  0  0  0  0  0  0  0  0  0
  -21.6864  -42.7271   -4.9249 C   0  0  0  0  0  0  0  0  0  0  0  0
  -21.9837  -41.4645   -5.7418 C   0  0  0  0  0  0  0  0  0  0  0  0
  -23.2614  -41.6055   -6.4963 C   0  0  0  0  0  0  0  0  0  0  0  0
  -23.6587  -40.3565   -7.2561 C   0  0  0  0  0  0  0  0  0  0  0  0
  -22.5084  -39.4949   -7.6580 C   0  0  0  0  0  0  0  0  0  0  0  0
  -22.2895  -38.4916   -6.6816 C   0  0  0  0  0  0  0  0  0  0  0  0
  -21.3324  -37.5245   -6.7818 C   0  0  0  0  0  0  0  0  0  0  0  0
  -20.5785  -37.5938   -7.9247 C   0  0  0  0  0  0  0  0  0  0  0  0
  -20.7434  -38.5685   -8.9371 C   0  0  0  0  0  0  0  0  0  0  0  0
  -19.7974  -38.3298  -10.0547 C   0  0  0  0  0  0  0  0  0  0  0  0
  -18.7273  -39.3258  -10.3349 C   0  0  2  0  0  0  0  0  0  0  0  0
  -19.2604  -40.6341  -10.6572 N   0  0  0  0  0  0  0  0  0  0  0  0
  -18.8308  -41.8886  -10.1417 C   0  0  0  0  0  0  0  0  0  0  0  0
  -18.2014  -42.6076  -11.0635 O   0  0  0  0  0  0  0  0  0  0  0  0
  -17.6995  -39.3147   -9.2609 C   0  0  2  0  0  0  0  0  0  0  0  0
  -18.0717  -38.6186   -8.1441 O   0  0  0  0  0  0  0  0  0  0  0  0
  -16.2786  -39.2021   -9.6968 C   0  0  0  0  0  0  0  0  0  0  0  0
  -15.6345  -40.4629   -9.7885 N   0  0  0  0  0  0  0  0  0  0  0  0
  -14.7920  -40.5093  -10.9853 C   0  0  0  0  0  0  0  0  0  0  0  0
  -14.6152  -39.1505  -11.5619 C   0  0  0  0  0  0  0  0  0  0  0  0
  -13.5941  -38.3766  -11.0569 C   0  0  0  0  0  0  0  0  0  0  0  0
  -13.3784  -37.1072  -11.5476 C   0  0  0  0  0  0  0  0  0  0  0  0
  -14.1906  -36.6421  -12.5349 C   0  0  0  0  0  0  0  0  0  0  0  0
  -15.2040  -37.4481  -13.0170 C   0  0  0  0  0  0  0  0  0  0  0  0
  -15.4036  -38.6788  -12.5309 N   0  0  0  0  0  0  0  0  0  0  0  0
  -12.2879  -36.2869  -10.9916 C   0  0  0  0  0  0  0  0  0  0  0  0
  -12.3702  -34.8521  -11.5032 C   0  0  0  0  0  0  0  0  0  0  0  0
  -10.9295  -36.8014  -11.4547 C   0  0  0  0  0  0  0  0  0  0  0  0
  -12.3319  -36.3608   -9.4957 C   0  0  0  0  0  0  0  0  0  0  0  0
  -21.7200  -39.5205   -8.7847 C   0  0  0  0  0  0  0  0  0  0  0  0
  -18.6340  -43.6244   -6.3798 N   0  0  0  0  0  0  0  0  0  0  0  0
  1  2  1  0
  2  3  2  0
  3  4  1  0
  4  5  2  0
  5  6  1  0
  6  7  1  0
  7  8  1  0
  8  9  1  0
  9 10  1  0
 10 11  1  0
 11 12  1  0
 12 13  1  0
 13 14  2  0
 14 15  1  0
 15 16  2  0
 16 17  1  0
 18 17  1  1
 18 19  1  0
 19 20  1  0
 20 21  2  0
 18 22  1  0
 22 23  1  1
 22 24  1  0
 24 25  1  0
 25 26  1  0
 26 27  1  0
 27 28  2  0
 28 29  1  0
 29 30  2  0
 30 31  1  0
 31 32  2  0
 29 33  1  0
 33 34  1  0
 33 35  1  0
 33 36  1  0
 16 37  1  0
  6 38  2  0
 20  4  1  0
 32 27  1  0
 37 12  2  0
 38  2  1  0
M  END
$$$$
