
     RDKit          3D

 38 41  0  0  0  0  0  0  0  0999 V2000
  -14.6961  -43.6935   -7.7614 C   0  0  0  0  0  0  0  0  0  0  0  0
  -16.0807  -43.2832   -8.1274 C   0  0  0  0  0  0  0  0  0  0  0  0
  -16.3371  -42.5376   -9.2595 C   0  0  0  0  0  0  0  0  0  0  0  0
  -17.6351  -42.1261   -9.6387 C   0  0  0  0  0  0  0  0  0  0  0  0
  -18.7143  -42.4767   -8.8554 C   0  0  0  0  0  0  0  0  0  0  0  0
  -18.4517  -43.2181   -7.7310 C   0  0  0  0  0  0  0  0  0  0  0  0
  -19.2895  -43.7603   -6.6960 N   0  0  0  0  0  0  0  0  0  0  0  0
  -20.2215  -43.1390   -5.8121 C   0  0  0  0  0  0  0  0  0  0  0  0
  -20.6301  -41.7992   -6.4352 C   0  0  0  0  0  0  0  0  0  0  0  0
  -21.9118  -41.9282   -7.1852 C   0  0  0  0  0  0  0  0  0  0  0  0
  -22.4176  -40.6177   -7.7524 C   0  0  0  0  0  0  0  0  0  0  0  0
  -21.3436  -39.6228   -8.0416 C   0  0  0  0  0  0  0  0  0  0  0  0
  -21.1754  -38.7548   -6.9341 C   0  0  0  0  0  0  0  0  0  0  0  0
  -20.2945  -37.7135   -6.9071 C   0  0  0  0  0  0  0  0  0  0  0  0
  -19.5651  -37.5620   -8.0580 C   0  0  0  0  0  0  0  0  0  0  0  0
  -19.6823  -38.3924   -9.1975 C   0  0  0  0  0  0  0  0  0  0  0  0
  -18.7834  -37.9261  -10.2817 C   0  0  0  0  0  0  0  0  0  0  0  0
  -17.6502  -38.7879  -10.7162 C   0  0  2  0  0  0  0  0  0  0  0  0
  -18.0935  -40.0738  -11.2160 N   0  0  0  0  0  0  0  0  0  0  0  0
  -17.5609  -41.3525  -10.8917 C   0  0  0  0  0  0  0  0  0  0  0  0
  -16.9028  -41.8832  -11.9154 O   0  0  0  0  0  0  0  0  0  0  0  0
  -16.6006  -38.8516   -9.6654 C   0  0  2  0  0  0  0  0  0  0  0  0
  -16.9379  -38.2116   -8.5049 O   0  0  0  0  0  0  0  0  0  0  0  0
  -15.1872  -38.7380  -10.1249 C   0  0  0  0  0  0  0  0  0  0  0  0
  -14.5213  -39.9904  -10.1561 N   0  0  0  0  0  0  0  0  0  0  0  0
  -13.7318  -40.1076  -11.3839 C   0  0  0  0  0  0  0  0  0  0  0  0
  -13.1495  -38.7945  -11.7669 C   0  0  0  0  0  0  0  0  0  0  0  0
  -13.8738  -37.6656  -11.4543 C   0  0  0  0  0  0  0  0  0  0  0  0
  -13.3899  -36.4181  -11.7835 C   0  0  0  0  0  0  0  0  0  0  0  0
  -12.1896  -36.3300  -12.4178 C   0  0  0  0  0  0  0  0  0  0  0  0
  -11.4912  -37.4847  -12.7140 C   0  0  0  0  0  0  0  0  0  0  0  0
  -11.9730  -38.6904  -12.3898 N   0  0  0  0  0  0  0  0  0  0  0  0
  -14.1797  -35.2195  -11.4511 C   0  0  0  0  0  0  0  0  0  0  0  0
  -15.6401  -35.4004  -11.8536 C   0  0  0  0  0  0  0  0  0  0  0  0
  -13.6921  -34.0102  -12.2411 C   0  0  0  0  0  0  0  0  0  0  0  0
  -14.0251  -34.9190   -9.9914 C   0  0  0  0  0  0  0  0  0  0  0  0
  -20.5826  -39.4279   -9.1706 C   0  0  0  0  0  0  0  0  0  0  0  0
  -17.1474  -43.5857   -7.4211 N   0  0  0  0  0  0  0  0  0  0  0  0
  1  2  1  0
  2  3  2  0
  3  4  1  0
  4  5  2  0
  5  6  1  0
  6  7  1  0
  7  8  1  0
  8  9  1  0
  9 10  1  0
 10 11  1  0
 11 12  1  0
 12 13  1  0
 13 14  2  0
 14 15  1  0
 15 16  2  0
 16 17  1  0
 18 17  1  1
 18 19  1  0
 19 20  1  0
 20 21  2  0
 18 22  1  0
 22 23  1  1
 22 24  1  0
 24 25  1  0
 25 26  1  0
 26 27  1  0
 27 28  2  0
 28 29  1  0
 29 30  2  0
 30 31  1  0
 31 32  2  0
 29 33  1  0
 33 34  1  0
 33 35  1  0
 33 36  1  0
 16 37  1  0
  6 38  2  0
 20  4  1  0
 32 27  1  0
 37 12  2  0
 38  2  1  0
M  END
$$$$
