
     RDKit          3D

 38 41  0  0  0  0  0  0  0  0999 V2000
  -19.6790  -39.5314   -3.2628 C   0  0  0  0  0  0  0  0  0  0  0  0
  -20.0797  -40.3398   -4.4483 C   0  0  0  0  0  0  0  0  0  0  0  0
  -19.1420  -40.9432   -5.2607 C   0  0  0  0  0  0  0  0  0  0  0  0
  -19.4816  -41.7146   -6.3955 C   0  0  0  0  0  0  0  0  0  0  0  0
  -20.8089  -41.8883   -6.7257 C   0  0  0  0  0  0  0  0  0  0  0  0
  -21.7359  -41.2852   -5.9133 C   0  0  0  0  0  0  0  0  0  0  0  0
  -23.1728  -41.2388   -5.9307 N   0  0  0  0  0  0  0  0  0  0  0  0
  -24.0927  -40.8184   -6.9372 C   0  0  0  0  0  0  0  0  0  0  0  0
  -23.3618  -40.8677   -8.2838 C   0  0  0  0  0  0  0  0  0  0  0  0
  -23.6501  -42.1420   -9.0013 C   0  0  0  0  0  0  0  0  0  0  0  0
  -23.0276  -42.2163  -10.3804 C   0  0  0  0  0  0  0  0  0  0  0  0
  -21.7893  -41.3981  -10.5360 C   0  0  0  0  0  0  0  0  0  0  0  0
  -22.1139  -40.1217  -11.0589 C   0  0  0  0  0  0  0  0  0  0  0  0
  -21.1921  -39.1589  -11.3501 C   0  0  0  0  0  0  0  0  0  0  0  0
  -19.8956  -39.5242  -11.0950 C   0  0  0  0  0  0  0  0  0  0  0  0
  -19.5034  -40.7794  -10.5729 C   0  0  0  0  0  0  0  0  0  0  0  0
  -18.0264  -40.8632  -10.4612 C   0  0  0  0  0  0  0  0  0  0  0  0
  -17.3975  -40.9660   -9.1159 C   0  0  2  0  0  0  0  0  0  0  0  0
  -17.8281  -42.1456   -8.3930 N   0  0  0  0  0  0  0  0  0  0  0  0
  -18.2523  -42.2160   -7.0369 C   0  0  0  0  0  0  0  0  0  0  0  0
  -17.3608  -42.8401   -6.2763 O   0  0  0  0  0  0  0  0  0  0  0  0
  -17.5342  -39.6880   -8.3688 C   0  0  2  0  0  0  0  0  0  0  0  0
  -18.5398  -38.8824   -8.8270 O   0  0  0  0  0  0  0  0  0  0  0  0
  -16.2695  -39.0275   -7.9375 C   0  0  0  0  0  0  0  0  0  0  0  0
  -15.3319  -39.9448   -7.3967 N   0  0  0  0  0  0  0  0  0  0  0  0
  -14.3722  -40.3464   -8.4273 C   0  0  0  0  0  0  0  0  0  0  0  0
  -14.6521  -39.6518   -9.7116 C   0  0  0  0  0  0  0  0  0  0  0  0
  -14.6189  -38.2750   -9.7068 C   0  0  0  0  0  0  0  0  0  0  0  0
  -14.8709  -37.5714  -10.8645 C   0  0  0  0  0  0  0  0  0  0  0  0
  -15.1494  -38.2639  -12.0018 C   0  0  0  0  0  0  0  0  0  0  0  0
  -15.1727  -39.6450  -11.9679 C   0  0  0  0  0  0  0  0  0  0  0  0
  -14.9273  -40.3163  -10.8366 N   0  0  0  0  0  0  0  0  0  0  0  0
  -14.8410  -36.0984  -10.8427 C   0  0  0  0  0  0  0  0  0  0  0  0
  -16.2246  -35.5211  -11.1254 C   0  0  0  0  0  0  0  0  0  0  0  0
  -13.9451  -35.5559  -11.9505 C   0  0  0  0  0  0  0  0  0  0  0  0
  -14.2906  -35.6381   -9.5273 C   0  0  0  0  0  0  0  0  0  0  0  0
  -20.4719  -41.7112  -10.2950 C   0  0  0  0  0  0  0  0  0  0  0  0
  -21.3265  -40.5399   -4.8135 N   0  0  0  0  0  0  0  0  0  0  0  0
  1  2  1  0
  2  3  2  0
  3  4  1  0
  4  5  2  0
  5  6  1  0
  6  7  1  0
  7  8  1  0
  8  9  1  0
  9 10  1  0
 10 11  1  0
 11 12  1  0
 12 13  1  0
 13 14  2  0
 14 15  1  0
 15 16  2  0
 16 17  1  0
 18 17  1  6
 18 19  1  0
 19 20  1  0
 20 21  2  0
 18 22  1  0
 22 23  1  6
 22 24  1  0
 24 25  1  0
 25 26  1  0
 26 27  1  0
 27 28  2  0
 28 29  1  0
 29 30  2  0
 30 31  1  0
 31 32  2  0
 29 33  1  0
 33 34  1  0
 33 35  1  0
 33 36  1  0
 16 37  1  0
  6 38  2  0
 20  4  1  0
 32 27  1  0
 37 12  2  0
 38  2  1  0
M  END
$$$$
