
     RDKit          3D

 38 41  0  0  0  0  0  0  0  0999 V2000
  -14.6352  -43.7129  -11.7941 C   0  0  0  0  0  0  0  0  0  0  0  0
  -14.1651  -42.3411  -11.4526 C   0  0  0  0  0  0  0  0  0  0  0  0
  -14.4643  -41.7568  -10.2391 C   0  0  0  0  0  0  0  0  0  0  0  0
  -14.0401  -40.4574   -9.8794 C   0  0  0  0  0  0  0  0  0  0  0  0
  -13.2875  -39.7187  -10.7676 C   0  0  0  0  0  0  0  0  0  0  0  0
  -12.9939  -40.3062  -11.9725 C   0  0  0  0  0  0  0  0  0  0  0  0
  -12.2534  -39.8660  -13.1236 N   0  0  0  0  0  0  0  0  0  0  0  0
  -12.3984  -38.7178  -13.9582 C   0  0  0  0  0  0  0  0  0  0  0  0
  -13.1848  -37.6657  -13.1679 C   0  0  0  0  0  0  0  0  0  0  0  0
  -12.2656  -36.6865  -12.5214 C   0  0  0  0  0  0  0  0  0  0  0  0
  -12.9839  -35.5670  -11.7963 C   0  0  0  0  0  0  0  0  0  0  0  0
  -14.3426  -35.9342  -11.3004 C   0  0  0  0  0  0  0  0  0  0  0  0
  -15.3232  -35.5661  -12.2549 C   0  0  0  0  0  0  0  0  0  0  0  0
  -16.6649  -35.7358  -12.0755 C   0  0  0  0  0  0  0  0  0  0  0  0
  -17.0060  -36.3018  -10.8743 C   0  0  0  0  0  0  0  0  0  0  0  0
  -16.0790  -36.6932   -9.8796 C   0  0  0  0  0  0  0  0  0  0  0  0
  -16.7823  -37.2274   -8.6876 C   0  0  0  0  0  0  0  0  0  0  0  0
  -16.6183  -38.6607   -8.3206 C   0  0  2  0  0  0  0  0  0  0  0  0
  -15.2385  -39.0062   -8.0442 N   0  0  0  0  0  0  0  0  0  0  0  0
  -14.5230  -40.1387   -8.5232 C   0  0  0  0  0  0  0  0  0  0  0  0
  -14.2824  -41.0126   -7.5531 O   0  0  0  0  0  0  0  0  0  0  0  0
  -17.2997  -39.5407   -9.3063 C   0  0  2  0  0  0  0  0  0  0  0  0
  -17.9808  -38.8616  -10.2784 O   0  0  0  0  0  0  0  0  0  0  0  0
  -17.9253  -40.7836   -8.7720 C   0  0  0  0  0  0  0  0  0  0  0  0
  -17.9450  -40.8183   -7.3537 N   0  0  0  0  0  0  0  0  0  0  0  0
  -18.5154  -39.5754   -6.8300 C   0  0  0  0  0  0  0  0  0  0  0  0
  -19.9918  -39.5556   -7.0035 C   0  0  0  0  0  0  0  0  0  0  0  0
  -20.7606  -39.4235   -5.8686 C   0  0  0  0  0  0  0  0  0  0  0  0
  -22.1353  -39.3996   -5.9613 C   0  0  0  0  0  0  0  0  0  0  0  0
  -22.7087  -39.5075   -7.1903 C   0  0  0  0  0  0  0  0  0  0  0  0
  -21.9045  -39.6375   -8.3062 C   0  0  0  0  0  0  0  0  0  0  0  0
  -20.5705  -39.6605   -8.2022 N   0  0  0  0  0  0  0  0  0  0  0  0
  -22.9457  -39.2669   -4.7379 C   0  0  0  0  0  0  0  0  0  0  0  0
  -22.4315  -38.1265   -3.8648 C   0  0  0  0  0  0  0  0  0  0  0  0
  -22.8337  -40.5173   -3.8728 C   0  0  0  0  0  0  0  0  0  0  0  0
  -24.3837  -39.0878   -5.1188 C   0  0  0  0  0  0  0  0  0  0  0  0
  -14.7401  -36.5022  -10.1125 C   0  0  0  0  0  0  0  0  0  0  0  0
  -13.4469  -41.5893  -12.2570 N   0  0  0  0  0  0  0  0  0  0  0  0
  1  2  1  0
  2  3  2  0
  3  4  1  0
  4  5  2  0
  5  6  1  0
  6  7  1  0
  7  8  1  0
  8  9  1  0
  9 10  1  0
 10 11  1  0
 11 12  1  0
 12 13  1  0
 13 14  2  0
 14 15  1  0
 15 16  2  0
 16 17  1  0
 18 17  1  6
 18 19  1  0
 19 20  1  0
 20 21  2  0
 18 22  1  0
 22 23  1  1
 22 24  1  0
 24 25  1  0
 25 26  1  0
 26 27  1  0
 27 28  2  0
 28 29  1  0
 29 30  2  0
 30 31  1  0
 31 32  2  0
 29 33  1  0
 33 34  1  0
 33 35  1  0
 33 36  1  0
 16 37  1  0
  6 38  2  0
 20  4  1  0
 32 27  1  0
 37 12  2  0
 38  2  1  0
M  END
$$$$
