
     RDKit          3D

 38 41  0  0  0  0  0  0  0  0999 V2000
  -16.0690  -44.7983   -6.6441 C   0  0  0  0  0  0  0  0  0  0  0  0
  -17.2799  -44.1749   -7.2479 C   0  0  0  0  0  0  0  0  0  0  0  0
  -17.1966  -43.3718   -8.3666 C   0  0  0  0  0  0  0  0  0  0  0  0
  -18.3207  -42.7600   -8.9666 C   0  0  0  0  0  0  0  0  0  0  0  0
  -19.5729  -42.9624   -8.4261 C   0  0  0  0  0  0  0  0  0  0  0  0
  -19.6481  -43.7621   -7.3135 C   0  0  0  0  0  0  0  0  0  0  0  0
  -20.7438  -44.1965   -6.4901 N   0  0  0  0  0  0  0  0  0  0  0  0
  -21.7340  -43.4632   -5.7707 C   0  0  0  0  0  0  0  0  0  0  0  0
  -21.8143  -42.0624   -6.3883 C   0  0  0  0  0  0  0  0  0  0  0  0
  -22.9264  -41.9781   -7.3773 C   0  0  0  0  0  0  0  0  0  0  0  0
  -23.1163  -40.5928   -7.9604 C   0  0  0  0  0  0  0  0  0  0  0  0
  -21.8749  -39.7648   -7.9832 C   0  0  0  0  0  0  0  0  0  0  0  0
  -21.8077  -38.9593   -6.8193 C   0  0  0  0  0  0  0  0  0  0  0  0
  -20.8097  -38.0639   -6.5671 C   0  0  0  0  0  0  0  0  0  0  0  0
  -19.8522  -37.9964   -7.5458 C   0  0  0  0  0  0  0  0  0  0  0  0
  -19.8583  -38.7718   -8.7294 C   0  0  0  0  0  0  0  0  0  0  0  0
  -18.7045  -38.4203   -9.5932 C   0  0  0  0  0  0  0  0  0  0  0  0
  -17.6429  -39.4326   -9.8464 C   0  0  2  0  0  0  0  0  0  0  0  0
  -18.1577  -40.6243  -10.4904 N   0  0  0  0  0  0  0  0  0  0  0  0
  -17.8890  -41.9762  -10.1385 C   0  0  0  0  0  0  0  0  0  0  0  0
  -17.1234  -42.5752  -11.0429 O   0  0  0  0  0  0  0  0  0  0  0  0
  -16.8433  -39.6796   -8.6177 C   0  0  2  0  0  0  0  0  0  0  0  0
  -17.3372  -39.0635   -7.5012 O   0  0  0  0  0  0  0  0  0  0  0  0
  -15.3622  -39.7178   -8.7808 C   0  0  0  0  0  0  0  0  0  0  0  0
  -14.9350  -40.7603   -9.6433 N   0  0  0  0  0  0  0  0  0  0  0  0
  -14.9723  -40.3062  -11.0349 C   0  0  0  0  0  0  0  0  0  0  0  0
  -15.0030  -38.8215  -11.1072 C   0  0  0  0  0  0  0  0  0  0  0  0
  -13.8346  -38.1806  -11.4549 C   0  0  0  0  0  0  0  0  0  0  0  0
  -13.7965  -36.8057  -11.5381 C   0  0  0  0  0  0  0  0  0  0  0  0
  -14.9311  -36.1037  -11.2721 C   0  0  0  0  0  0  0  0  0  0  0  0
  -16.0845  -36.7819  -10.9276 C   0  0  0  0  0  0  0  0  0  0  0  0
  -16.1078  -38.1176  -10.8491 N   0  0  0  0  0  0  0  0  0  0  0  0
  -12.5373  -36.1327  -11.9023 C   0  0  0  0  0  0  0  0  0  0  0  0
  -12.8110  -34.7845  -12.5617 C   0  0  0  0  0  0  0  0  0  0  0  0
  -11.7698  -36.9405  -12.9429 C   0  0  0  0  0  0  0  0  0  0  0  0
  -11.6782  -36.0048  -10.6814 C   0  0  0  0  0  0  0  0  0  0  0  0
  -20.8848  -39.6597   -8.9321 C   0  0  0  0  0  0  0  0  0  0  0  0
  -18.4978  -44.3298   -6.7779 N   0  0  0  0  0  0  0  0  0  0  0  0
  1  2  1  0
  2  3  2  0
  3  4  1  0
  4  5  2  0
  5  6  1  0
  6  7  1  0
  7  8  1  0
  8  9  1  0
  9 10  1  0
 10 11  1  0
 11 12  1  0
 12 13  1  0
 13 14  2  0
 14 15  1  0
 15 16  2  0
 16 17  1  0
 18 17  1  1
 18 19  1  0
 19 20  1  0
 20 21  2  0
 18 22  1  0
 22 23  1  1
 22 24  1  0
 24 25  1  0
 25 26  1  0
 26 27  1  0
 27 28  2  0
 28 29  1  0
 29 30  2  0
 30 31  1  0
 31 32  2  0
 29 33  1  0
 33 34  1  0
 33 35  1  0
 33 36  1  0
 16 37  1  0
  6 38  2  0
 20  4  1  0
 32 27  1  0
 37 12  2  0
 38  2  1  0
M  END
$$$$
