
     RDKit          3D

 38 41  0  0  0  0  0  0  0  0999 V2000
  -17.0415  -45.2879   -6.6980 C   0  0  0  0  0  0  0  0  0  0  0  0
  -18.1338  -44.3403   -7.0566 C   0  0  0  0  0  0  0  0  0  0  0  0
  -17.9495  -43.3498   -7.9991 C   0  0  0  0  0  0  0  0  0  0  0  0
  -18.9590  -42.4302   -8.3641 C   0  0  0  0  0  0  0  0  0  0  0  0
  -20.1977  -42.5082   -7.7635 C   0  0  0  0  0  0  0  0  0  0  0  0
  -20.3736  -43.4956   -6.8271 C   0  0  0  0  0  0  0  0  0  0  0  0
  -21.4908  -43.8845   -6.0098 N   0  0  0  0  0  0  0  0  0  0  0  0
  -22.2788  -43.1494   -5.0747 C   0  0  0  0  0  0  0  0  0  0  0  0
  -22.1111  -41.6598   -5.3959 C   0  0  0  0  0  0  0  0  0  0  0  0
  -23.2328  -41.1675   -6.2452 C   0  0  0  0  0  0  0  0  0  0  0  0
  -23.1737  -39.6800   -6.5261 C   0  0  0  0  0  0  0  0  0  0  0  0
  -21.7958  -39.1077   -6.4975 C   0  0  0  0  0  0  0  0  0  0  0  0
  -21.5119  -38.5905   -5.2091 C   0  0  0  0  0  0  0  0  0  0  0  0
  -20.3451  -37.9665   -4.8770 C   0  0  0  0  0  0  0  0  0  0  0  0
  -19.4436  -37.8722   -5.9055 C   0  0  0  0  0  0  0  0  0  0  0  0
  -19.6626  -38.3675   -7.2126 C   0  0  0  0  0  0  0  0  0  0  0  0
  -18.5070  -38.0605   -8.0908 C   0  0  0  0  0  0  0  0  0  0  0  0
  -17.6810  -39.1744   -8.6319 C   0  0  2  0  0  0  0  0  0  0  0  0
  -18.4532  -40.0895   -9.4481 N   0  0  0  0  0  0  0  0  0  0  0  0
  -18.4401  -41.5110   -9.3935 C   0  0  0  0  0  0  0  0  0  0  0  0
  -17.8548  -42.0370  -10.4628 O   0  0  0  0  0  0  0  0  0  0  0  0
  -16.8853  -39.8159   -7.5523 C   0  0  2  0  0  0  0  0  0  0  0  0
  -17.0916  -39.2736   -6.3140 O   0  0  0  0  0  0  0  0  0  0  0  0
  -15.4939  -40.2226   -7.8993 C   0  0  0  0  0  0  0  0  0  0  0  0
  -15.4342  -41.0151   -9.0745 N   0  0  0  0  0  0  0  0  0  0  0  0
  -14.1694  -40.7794   -9.7740 C   0  0  0  0  0  0  0  0  0  0  0  0
  -14.0692  -39.3668  -10.2262 C   0  0  0  0  0  0  0  0  0  0  0  0
  -15.2147  -38.7742  -10.7095 C   0  0  0  0  0  0  0  0  0  0  0  0
  -15.1882  -37.4674  -11.1458 C   0  0  0  0  0  0  0  0  0  0  0  0
  -14.0138  -36.7831  -11.0867 C   0  0  0  0  0  0  0  0  0  0  0  0
  -12.8857  -37.4109  -10.5946 C   0  0  0  0  0  0  0  0  0  0  0  0
  -12.9247  -38.6810  -10.1751 N   0  0  0  0  0  0  0  0  0  0  0  0
  -16.4190  -36.8490  -11.6689 C   0  0  0  0  0  0  0  0  0  0  0  0
  -17.3216  -37.8949  -12.3163 C   0  0  0  0  0  0  0  0  0  0  0  0
  -16.0987  -35.8530  -12.7777 C   0  0  0  0  0  0  0  0  0  0  0  0
  -17.1070  -36.1116  -10.5608 C   0  0  0  0  0  0  0  0  0  0  0  0
  -20.8535  -38.9894   -7.4925 C   0  0  0  0  0  0  0  0  0  0  0  0
  -19.3330  -44.3643   -6.5187 N   0  0  0  0  0  0  0  0  0  0  0  0
  1  2  1  0
  2  3  2  0
  3  4  1  0
  4  5  2  0
  5  6  1  0
  6  7  1  0
  7  8  1  0
  8  9  1  0
  9 10  1  0
 10 11  1  0
 11 12  1  0
 12 13  1  0
 13 14  2  0
 14 15  1  0
 15 16  2  0
 16 17  1  0
 18 17  1  1
 18 19  1  0
 19 20  1  0
 20 21  2  0
 18 22  1  0
 22 23  1  1
 22 24  1  0
 24 25  1  0
 25 26  1  0
 26 27  1  0
 27 28  2  0
 28 29  1  0
 29 30  2  0
 30 31  1  0
 31 32  2  0
 29 33  1  0
 33 34  1  0
 33 35  1  0
 33 36  1  0
 16 37  1  0
  6 38  2  0
 20  4  1  0
 32 27  1  0
 37 12  2  0
 38  2  1  0
M  END
$$$$
