
     RDKit          3D

 38 41  0  0  0  0  0  0  0  0999 V2000
  -17.0365  -44.9912   -6.3697 C   0  0  0  0  0  0  0  0  0  0  0  0
  -18.0575  -44.1217   -7.0185 C   0  0  0  0  0  0  0  0  0  0  0  0
  -17.7503  -43.3420   -8.1144 C   0  0  0  0  0  0  0  0  0  0  0  0
  -18.6893  -42.5020   -8.7553 C   0  0  0  0  0  0  0  0  0  0  0  0
  -19.9827  -42.4437   -8.2811 C   0  0  0  0  0  0  0  0  0  0  0  0
  -20.2809  -43.2217   -7.1909 C   0  0  0  0  0  0  0  0  0  0  0  0
  -21.4846  -43.4260   -6.4315 N   0  0  0  0  0  0  0  0  0  0  0  0
  -22.3364  -42.5095   -5.7458 C   0  0  0  0  0  0  0  0  0  0  0  0
  -22.0905  -41.1164   -6.3365 C   0  0  0  0  0  0  0  0  0  0  0  0
  -23.1073  -40.7906   -7.3765 C   0  0  0  0  0  0  0  0  0  0  0  0
  -22.9736  -39.3901   -7.9385 C   0  0  0  0  0  0  0  0  0  0  0  0
  -21.5874  -38.8400   -7.8829 C   0  0  0  0  0  0  0  0  0  0  0  0
  -21.4146  -38.0790   -6.7001 C   0  0  0  0  0  0  0  0  0  0  0  0
  -20.2665  -37.4150   -6.3804 C   0  0  0  0  0  0  0  0  0  0  0  0
  -19.2661  -37.5389   -7.3095 C   0  0  0  0  0  0  0  0  0  0  0  0
  -19.3719  -38.2831   -8.5082 C   0  0  0  0  0  0  0  0  0  0  0  0
  -18.1267  -38.1717   -9.3070 C   0  0  0  0  0  0  0  0  0  0  0  0
  -17.2877  -39.3810   -9.5296 C   0  0  2  0  0  0  0  0  0  0  0  0
  -18.0052  -40.4315  -10.2233 N   0  0  0  0  0  0  0  0  0  0  0  0
  -18.0430  -41.8135   -9.8876 C   0  0  0  0  0  0  0  0  0  0  0  0
  -17.3729  -42.5497  -10.7662 O   0  0  0  0  0  0  0  0  0  0  0  0
  -16.6224  -39.8029   -8.2689 C   0  0  2  0  0  0  0  0  0  0  0  0
  -17.2162  -39.3146   -7.1379 O   0  0  0  0  0  0  0  0  0  0  0  0
  -15.1334  -39.8671   -8.2882 C   0  0  0  0  0  0  0  0  0  0  0  0
  -14.6472  -41.1314   -8.7100 N   0  0  0  0  0  0  0  0  0  0  0  0
  -13.5180  -40.9540   -9.6253 C   0  0  0  0  0  0  0  0  0  0  0  0
  -13.8896  -40.0682  -10.7599 C   0  0  0  0  0  0  0  0  0  0  0  0
  -13.5341  -38.7408  -10.6692 C   0  0  0  0  0  0  0  0  0  0  0  0
  -13.8507  -37.8672  -11.6868 C   0  0  0  0  0  0  0  0  0  0  0  0
  -14.5158  -38.3442  -12.7735 C   0  0  0  0  0  0  0  0  0  0  0  0
  -14.8547  -39.6824  -12.8292 C   0  0  0  0  0  0  0  0  0  0  0  0
  -14.5423  -40.5202  -11.8335 N   0  0  0  0  0  0  0  0  0  0  0  0
  -13.4722  -36.4478  -11.5723 C   0  0  0  0  0  0  0  0  0  0  0  0
  -14.2968  -35.7491  -10.4956 C   0  0  0  0  0  0  0  0  0  0  0  0
  -13.7784  -35.6971  -12.8634 C   0  0  0  0  0  0  0  0  0  0  0  0
  -11.9996  -36.3520  -11.3126 C   0  0  0  0  0  0  0  0  0  0  0  0
  -20.5490  -38.9343   -8.7799 C   0  0  0  0  0  0  0  0  0  0  0  0
  -19.3038  -44.0234   -6.6119 N   0  0  0  0  0  0  0  0  0  0  0  0
  1  2  1  0
  2  3  2  0
  3  4  1  0
  4  5  2  0
  5  6  1  0
  6  7  1  0
  7  8  1  0
  8  9  1  0
  9 10  1  0
 10 11  1  0
 11 12  1  0
 12 13  1  0
 13 14  2  0
 14 15  1  0
 15 16  2  0
 16 17  1  0
 18 17  1  1
 18 19  1  0
 19 20  1  0
 20 21  2  0
 18 22  1  0
 22 23  1  1
 22 24  1  0
 24 25  1  0
 25 26  1  0
 26 27  1  0
 27 28  2  0
 28 29  1  0
 29 30  2  0
 30 31  1  0
 31 32  2  0
 29 33  1  0
 33 34  1  0
 33 35  1  0
 33 36  1  0
 16 37  1  0
  6 38  2  0
 20  4  1  0
 32 27  1  0
 37 12  2  0
 38  2  1  0
M  END
$$$$
