
     RDKit          3D

 43 47  0  0  0  0  0  0  0  0999 V2000
  -13.4515  -43.0684   -9.7207 C   0  0  0  0  0  0  0  0  0  0  0  0
  -14.8663  -43.3343   -9.2586 C   0  0  2  0  0  0  0  0  0  0  0  0
  -15.1491  -44.7955   -9.6286 C   0  0  0  0  0  0  0  0  0  0  0  0
  -15.1221  -45.6538   -8.3861 C   0  0  0  0  0  0  0  0  0  0  0  0
  -16.2671  -46.6564   -8.3720 C   0  0  0  0  0  0  0  0  0  0  0  0
  -17.5056  -45.8493   -8.0570 C   0  0  0  0  0  0  0  0  0  0  0  0
  -18.7258  -46.7056   -8.0016 C   0  0  0  0  0  0  0  0  0  0  0  0
  -20.0024  -45.8954   -7.9619 C   0  0  0  0  0  0  0  0  0  0  0  0
  -20.3856  -45.5056   -6.5530 C   0  0  0  0  0  0  0  0  0  0  0  0
  -20.7442  -44.1054   -6.4343 N   0  0  0  0  0  0  0  0  0  0  0  0
  -20.5602  -42.9862   -7.3006 C   0  0  0  0  0  0  0  0  0  0  0  0
  -21.7591  -42.2231   -7.3199 C   0  0  0  0  0  0  0  0  0  0  0  0
  -21.9225  -41.0782   -8.0474 C   0  0  0  0  0  0  0  0  0  0  0  0
  -20.8325  -40.6998   -8.7753 C   0  0  0  0  0  0  0  0  0  0  0  0
  -19.5966  -41.4088   -8.8077 C   0  0  0  0  0  0  0  0  0  0  0  0
  -19.4847  -42.5623   -8.0533 C   0  0  0  0  0  0  0  0  0  0  0  0
  -18.6592  -40.7228   -9.6959 C   0  0  0  0  0  0  0  0  0  0  0  0
  -19.1384  -40.2098  -10.8264 O   0  0  0  0  0  0  0  0  0  0  0  0
  -17.2756  -40.4400   -9.6621 N   0  0  0  0  0  0  0  0  0  0  0  0
  -16.2399  -41.2683   -9.0519 C   0  0  1  0  0  0  0  0  0  0  0  0
  -15.8802  -42.4202   -9.9151 C   0  0  0  0  0  0  0  0  0  0  0  0
  -15.1500  -40.4268   -8.5089 C   0  0  2  0  0  0  0  0  0  0  0  0
  -15.4779  -40.2781   -7.1103 O   0  0  0  0  0  0  0  0  0  0  0  0
  -14.9943  -39.0389   -8.9895 C   0  0  0  0  0  0  0  0  0  0  0  0
  -15.5328  -38.6987  -10.2608 N   0  0  0  0  0  0  0  0  0  0  0  0
  -15.1742  -37.3087  -10.6267 C   0  0  0  0  0  0  0  0  0  0  0  0
  -13.7848  -37.1409  -11.2741 C   0  0  0  0  0  0  0  0  0  0  0  0
  -14.0597  -36.6564   -9.8983 C   0  0  0  0  0  0  0  0  0  0  0  0
  -16.2561  -36.4123  -11.1015 C   0  0  0  0  0  0  0  0  0  0  0  0
  -17.5214  -36.8345  -11.4488 C   0  0  0  0  0  0  0  0  0  0  0  0
  -18.4894  -35.9403  -11.8825 C   0  0  0  0  0  0  0  0  0  0  0  0
  -18.1860  -34.5927  -11.9709 C   0  0  0  0  0  0  0  0  0  0  0  0
  -16.9153  -34.2062  -11.6169 C   0  0  0  0  0  0  0  0  0  0  0  0
  -15.9972  -35.0962  -11.1999 N   0  0  0  0  0  0  0  0  0  0  0  0
  -19.8260  -36.4143  -12.2511 C   0  0  0  0  0  0  0  0  0  0  0  0
  -20.8937  -35.5776  -11.6106 C   0  0  0  0  0  0  0  0  0  0  0  0
  -20.0255  -36.2791  -13.7608 C   0  0  0  0  0  0  0  0  0  0  0  0
  -20.0609  -37.8667  -11.9206 C   0  0  0  0  0  0  0  0  0  0  0  0
  -23.1644  -40.3215   -8.0459 C   0  0  0  0  0  0  0  0  0  0  0  0
  -24.0662  -40.3615   -7.0546 N   0  0  0  0  0  0  0  0  0  0  0  0
  -25.1069  -39.5351   -7.3761 C   0  0  0  0  0  0  0  0  0  0  0  0
  -24.7686  -39.0112   -8.6029 C   0  0  0  0  0  0  0  0  0  0  0  0
  -23.6267  -39.5071   -8.9400 O   0  0  0  0  0  0  0  0  0  0  0  0
  2  1  1  6
  2  3  1  0
  3  4  1  0
  4  5  1  0
  5  6  1  0
  6  7  1  0
  7  8  1  0
  8  9  1  0
  9 10  1  0
 10 11  1  0
 11 12  1  0
 12 13  2  0
 13 14  1  0
 14 15  2  0
 15 16  1  0
 15 17  1  0
 17 18  2  0
 17 19  1  0
 19 20  1  0
 20 21  1  6
 20 22  1  0
 22 23  1  1
 22 24  1  0
 24 25  1  0
 25 26  1  0
 26 27  1  0
 27 28  1  0
 26 29  1  0
 29 30  2  0
 30 31  1  0
 31 32  2  0
 32 33  1  0
 33 34  2  0
 31 35  1  0
 35 36  1  0
 35 37  1  0
 35 38  1  0
 13 39  1  0
 39 40  2  0
 40 41  1  0
 41 42  2  0
 42 43  1  0
 16 11  2  0
 21  2  1  0
 28 26  1  0
 34 29  1  0
 43 39  1  0
M  END
$$$$
