
     RDKit          3D

 43 47  0  0  0  0  0  0  0  0999 V2000
  -14.8908  -40.8200  -10.6963 C   0  0  0  0  0  0  0  0  0  0  0  0
  -15.8769  -41.6378   -9.8933 C   0  0  2  0  0  0  0  0  0  0  0  0
  -16.0893  -42.9264  -10.6975 C   0  0  0  0  0  0  0  0  0  0  0  0
  -15.3687  -44.0731  -10.0289 C   0  0  0  0  0  0  0  0  0  0  0  0
  -16.2223  -45.3329  -10.0027 C   0  0  0  0  0  0  0  0  0  0  0  0
  -17.2738  -45.0853   -8.9455 C   0  0  0  0  0  0  0  0  0  0  0  0
  -18.1948  -46.2494   -8.7966 C   0  0  0  0  0  0  0  0  0  0  0  0
  -19.4076  -45.9260   -7.9528 C   0  0  0  0  0  0  0  0  0  0  0  0
  -19.1451  -46.1270   -6.4782 C   0  0  0  0  0  0  0  0  0  0  0  0
  -19.6015  -45.0138   -5.6684 N   0  0  0  0  0  0  0  0  0  0  0  0
  -20.0000  -43.6830   -5.9957 C   0  0  0  0  0  0  0  0  0  0  0  0
  -21.1657  -43.3599   -5.2493 C   0  0  0  0  0  0  0  0  0  0  0  0
  -21.8073  -42.1558   -5.3209 C   0  0  0  0  0  0  0  0  0  0  0  0
  -21.2445  -41.2550   -6.1770 C   0  0  0  0  0  0  0  0  0  0  0  0
  -20.0782  -41.5021   -6.9579 C   0  0  0  0  0  0  0  0  0  0  0  0
  -19.4677  -42.7381   -6.8482 C   0  0  0  0  0  0  0  0  0  0  0  0
  -19.7665  -40.3222   -7.7634 C   0  0  0  0  0  0  0  0  0  0  0  0
  -20.7820  -39.6602   -8.3123 O   0  0  0  0  0  0  0  0  0  0  0  0
  -18.5804  -39.6514   -8.1356 N   0  0  0  0  0  0  0  0  0  0  0  0
  -17.2745  -40.2655   -8.3568 C   0  0  1  0  0  0  0  0  0  0  0  0
  -17.1971  -40.9255   -9.6834 C   0  0  0  0  0  0  0  0  0  0  0  0
  -16.1883  -39.3391   -7.9660 C   0  0  2  0  0  0  0  0  0  0  0  0
  -16.1692  -39.4013   -6.5232 O   0  0  0  0  0  0  0  0  0  0  0  0
  -16.3204  -37.8978   -8.2603 C   0  0  0  0  0  0  0  0  0  0  0  0
  -17.6002  -37.2938   -8.1234 N   0  0  0  0  0  0  0  0  0  0  0  0
  -17.7883  -36.2292   -9.1362 C   0  0  0  0  0  0  0  0  0  0  0  0
  -17.5198  -34.7957   -8.6355 C   0  0  0  0  0  0  0  0  0  0  0  0
  -18.8953  -35.2624   -8.9411 C   0  0  0  0  0  0  0  0  0  0  0  0
  -17.4294  -36.5346  -10.5425 C   0  0  0  0  0  0  0  0  0  0  0  0
  -16.1738  -36.3563  -11.0824 C   0  0  0  0  0  0  0  0  0  0  0  0
  -15.9049  -36.6666  -12.4075 C   0  0  0  0  0  0  0  0  0  0  0  0
  -16.9141  -37.1668  -13.2120 C   0  0  0  0  0  0  0  0  0  0  0  0
  -18.1538  -37.3320  -12.6417 C   0  0  0  0  0  0  0  0  0  0  0  0
  -18.3851  -37.0222  -11.3535 N   0  0  0  0  0  0  0  0  0  0  0  0
  -14.5629  -36.4634  -12.9599 C   0  0  0  0  0  0  0  0  0  0  0  0
  -14.6195  -36.1826  -14.4323 C   0  0  0  0  0  0  0  0  0  0  0  0
  -13.9178  -35.2363  -12.3154 C   0  0  0  0  0  0  0  0  0  0  0  0
  -13.6269  -37.6178  -12.7048 C   0  0  0  0  0  0  0  0  0  0  0  0
  -23.0000  -41.8581   -4.5438 C   0  0  0  0  0  0  0  0  0  0  0  0
  -23.1779  -42.2333   -3.2691 N   0  0  0  0  0  0  0  0  0  0  0  0
  -24.4017  -41.7909   -2.8493 C   0  0  0  0  0  0  0  0  0  0  0  0
  -24.9290  -41.1396   -3.9411 C   0  0  0  0  0  0  0  0  0  0  0  0
  -24.0657  -41.2129   -4.8964 O   0  0  0  0  0  0  0  0  0  0  0  0
  2  1  1  6
  2  3  1  0
  3  4  1  0
  4  5  1  0
  5  6  1  0
  6  7  1  0
  7  8  1  0
  8  9  1  0
  9 10  1  0
 10 11  1  0
 11 12  1  0
 12 13  2  0
 13 14  1  0
 14 15  2  0
 15 16  1  0
 15 17  1  0
 17 18  2  0
 17 19  1  0
 19 20  1  0
 20 21  1  6
 20 22  1  0
 22 23  1  1
 22 24  1  0
 24 25  1  0
 25 26  1  0
 26 27  1  0
 27 28  1  0
 26 29  1  0
 29 30  2  0
 30 31  1  0
 31 32  2  0
 32 33  1  0
 33 34  2  0
 31 35  1  0
 35 36  1  0
 35 37  1  0
 35 38  1  0
 13 39  1  0
 39 40  2  0
 40 41  1  0
 41 42  2  0
 42 43  1  0
 16 11  2  0
 21  2  1  0
 28 26  1  0
 34 29  1  0
 43 39  1  0
M  END
$$$$
