
     RDKit          3D

 43 47  0  0  0  0  0  0  0  0999 V2000
  -18.5055  -38.0903  -11.5703 C   0  0  0  0  0  0  0  0  0  0  0  0
  -19.4588  -38.5419  -10.4872 C   0  0  2  0  0  0  0  0  0  0  0  0
  -20.7185  -37.6862  -10.6690 C   0  0  0  0  0  0  0  0  0  0  0  0
  -21.8204  -38.5187  -11.2805 C   0  0  0  0  0  0  0  0  0  0  0  0
  -23.1591  -38.2613  -10.6037 C   0  0  0  0  0  0  0  0  0  0  0  0
  -23.0737  -38.9562   -9.2641 C   0  0  0  0  0  0  0  0  0  0  0  0
  -24.3305  -38.7972   -8.4763 C   0  0  0  0  0  0  0  0  0  0  0  0
  -24.1748  -39.2415   -7.0389 C   0  0  0  0  0  0  0  0  0  0  0  0
  -24.4250  -40.7222   -6.8705 C   0  0  0  0  0  0  0  0  0  0  0  0
  -23.4070  -41.3779   -6.0725 N   0  0  0  0  0  0  0  0  0  0  0  0
  -22.1076  -40.9715   -5.6441 C   0  0  0  0  0  0  0  0  0  0  0  0
  -21.9424  -41.3371   -4.2805 C   0  0  0  0  0  0  0  0  0  0  0  0
  -20.8066  -41.0985   -3.5595 C   0  0  0  0  0  0  0  0  0  0  0  0
  -19.8105  -40.4701   -4.2480 C   0  0  0  0  0  0  0  0  0  0  0  0
  -19.8984  -40.0734   -5.6140 C   0  0  0  0  0  0  0  0  0  0  0  0
  -21.0709  -40.3382   -6.2976 C   0  0  0  0  0  0  0  0  0  0  0  0
  -18.6528  -39.4228   -6.0183 C   0  0  0  0  0  0  0  0  0  0  0  0
  -18.0683  -38.6058   -5.1455 O   0  0  0  0  0  0  0  0  0  0  0  0
  -17.8479  -39.4393   -7.1790 N   0  0  0  0  0  0  0  0  0  0  0  0
  -18.3155  -39.6109   -8.5513 C   0  0  1  0  0  0  0  0  0  0  0  0
  -18.8945  -38.3571   -9.0937 C   0  0  0  0  0  0  0  0  0  0  0  0
  -17.3064  -40.3296   -9.3613 C   0  0  2  0  0  0  0  0  0  0  0  0
  -16.9438  -41.4681   -8.5501 O   0  0  0  0  0  0  0  0  0  0  0  0
  -16.0154  -39.6776   -9.6607 C   0  0  0  0  0  0  0  0  0  0  0  0
  -15.0895  -39.4906   -8.5981 N   0  0  0  0  0  0  0  0  0  0  0  0
  -13.6967  -39.5663   -9.0973 C   0  0  0  0  0  0  0  0  0  0  0  0
  -13.0387  -40.9568   -8.9904 C   0  0  0  0  0  0  0  0  0  0  0  0
  -12.6142  -39.8321   -8.1197 C   0  0  0  0  0  0  0  0  0  0  0  0
  -13.3293  -38.7304  -10.2659 C   0  0  0  0  0  0  0  0  0  0  0  0
  -13.7735  -37.4420  -10.4726 C   0  0  0  0  0  0  0  0  0  0  0  0
  -13.3869  -36.7133  -11.5880 C   0  0  0  0  0  0  0  0  0  0  0  0
  -12.5365  -37.2851  -12.5185 C   0  0  0  0  0  0  0  0  0  0  0  0
  -12.1128  -38.5710  -12.2813 C   0  0  0  0  0  0  0  0  0  0  0  0
  -12.5045  -39.2534  -11.1906 N   0  0  0  0  0  0  0  0  0  0  0  0
  -13.8768  -35.3468  -11.7883 C   0  0  0  0  0  0  0  0  0  0  0  0
  -15.3749  -35.3127  -11.8576 C   0  0  0  0  0  0  0  0  0  0  0  0
  -13.4845  -34.4758  -10.5947 C   0  0  0  0  0  0  0  0  0  0  0  0
  -13.3025  -34.6755  -13.0102 C   0  0  0  0  0  0  0  0  0  0  0  0
  -20.6709  -41.4847   -2.1640 C   0  0  0  0  0  0  0  0  0  0  0  0
  -21.5300  -42.2885   -1.5211 N   0  0  0  0  0  0  0  0  0  0  0  0
  -21.1042  -42.4417   -0.2308 C   0  0  0  0  0  0  0  0  0  0  0  0
  -19.9552  -41.6882   -0.1523 C   0  0  0  0  0  0  0  0  0  0  0  0
  -19.7553  -41.1557   -1.3098 O   0  0  0  0  0  0  0  0  0  0  0  0
  2  1  1  6
  2  3  1  0
  3  4  1  0
  4  5  1  0
  5  6  1  0
  6  7  1  0
  7  8  1  0
  8  9  1  0
  9 10  1  0
 10 11  1  0
 11 12  1  0
 12 13  2  0
 13 14  1  0
 14 15  2  0
 15 16  1  0
 15 17  1  0
 17 18  2  0
 17 19  1  0
 19 20  1  0
 20 21  1  6
 20 22  1  0
 22 23  1  1
 22 24  1  0
 24 25  1  0
 25 26  1  0
 26 27  1  0
 27 28  1  0
 26 29  1  0
 29 30  2  0
 30 31  1  0
 31 32  2  0
 32 33  1  0
 33 34  2  0
 31 35  1  0
 35 36  1  0
 35 37  1  0
 35 38  1  0
 13 39  1  0
 39 40  2  0
 40 41  1  0
 41 42  2  0
 42 43  1  0
 16 11  2  0
 21  2  1  0
 28 26  1  0
 34 29  1  0
 43 39  1  0
M  END
$$$$
