
     RDKit          3D

 43 47  0  0  0  0  0  0  0  0999 V2000
  -18.8329  -36.1510   -8.3122 C   0  0  0  0  0  0  0  0  0  0  0  0
  -19.6932  -37.3693   -8.0645 C   0  0  2  0  0  0  0  0  0  0  0  0
  -20.9936  -36.8334   -7.4527 C   0  0  0  0  0  0  0  0  0  0  0  0
  -22.1022  -36.8860   -8.4770 C   0  0  0  0  0  0  0  0  0  0  0  0
  -23.4009  -37.3996   -7.8720 C   0  0  0  0  0  0  0  0  0  0  0  0
  -23.1992  -38.8862   -7.6873 C   0  0  0  0  0  0  0  0  0  0  0  0
  -24.4050  -39.5404   -7.1012 C   0  0  0  0  0  0  0  0  0  0  0  0
  -24.1360  -40.9603   -6.6551 C   0  0  0  0  0  0  0  0  0  0  0  0
  -24.3185  -41.9543   -7.7786 C   0  0  0  0  0  0  0  0  0  0  0  0
  -23.2251  -42.9020   -7.8749 N   0  0  0  0  0  0  0  0  0  0  0  0
  -21.9159  -42.9245   -7.3070 C   0  0  0  0  0  0  0  0  0  0  0  0
  -21.6454  -44.2386   -6.8379 C   0  0  0  0  0  0  0  0  0  0  0  0
  -20.4733  -44.6090   -6.2415 C   0  0  0  0  0  0  0  0  0  0  0  0
  -19.5502  -43.6118   -6.1204 C   0  0  0  0  0  0  0  0  0  0  0  0
  -19.7449  -42.2721   -6.5658 C   0  0  0  0  0  0  0  0  0  0  0  0
  -20.9502  -41.9501   -7.1624 C   0  0  0  0  0  0  0  0  0  0  0  0
  -18.5548  -41.4767   -6.2674 C   0  0  0  0  0  0  0  0  0  0  0  0
  -17.9437  -41.6875   -5.1041 O   0  0  0  0  0  0  0  0  0  0  0  0
  -17.8301  -40.4704   -6.9438 N   0  0  0  0  0  0  0  0  0  0  0  0
  -18.3826  -39.4757   -7.8585 C   0  0  1  0  0  0  0  0  0  0  0  0
  -19.0434  -38.3665   -7.1276 C   0  0  0  0  0  0  0  0  0  0  0  0
  -17.4042  -39.1384   -8.9168 C   0  0  2  0  0  0  0  0  0  0  0  0
  -18.1576  -39.2433  -10.1445 O   0  0  0  0  0  0  0  0  0  0  0  0
  -16.2379  -40.0176   -9.1363 C   0  0  0  0  0  0  0  0  0  0  0  0
  -15.0582  -39.7780   -8.3797 N   0  0  0  0  0  0  0  0  0  0  0  0
  -14.1295  -40.9279   -8.4790 C   0  0  0  0  0  0  0  0  0  0  0  0
  -13.5278  -41.3996   -7.1399 C   0  0  0  0  0  0  0  0  0  0  0  0
  -12.6995  -40.7051   -8.1571 C   0  0  0  0  0  0  0  0  0  0  0  0
  -14.4143  -41.9673   -9.4979 C   0  0  0  0  0  0  0  0  0  0  0  0
  -14.7455  -43.2733   -9.2071 C   0  0  0  0  0  0  0  0  0  0  0  0
  -15.0039  -44.1953  -10.2109 C   0  0  0  0  0  0  0  0  0  0  0  0
  -14.9299  -43.8032  -11.5363 C   0  0  0  0  0  0  0  0  0  0  0  0
  -14.5972  -42.4939  -11.7906 C   0  0  0  0  0  0  0  0  0  0  0  0
  -14.3518  -41.6221  -10.7962 N   0  0  0  0  0  0  0  0  0  0  0  0
  -15.3490  -45.5796   -9.8764 C   0  0  0  0  0  0  0  0  0  0  0  0
  -16.6490  -45.6493   -9.1311 C   0  0  0  0  0  0  0  0  0  0  0  0
  -15.5478  -46.3881  -11.1587 C   0  0  0  0  0  0  0  0  0  0  0  0
  -14.2794  -46.2917   -9.0875 C   0  0  0  0  0  0  0  0  0  0  0  0
  -20.2293  -45.9633   -5.7711 C   0  0  0  0  0  0  0  0  0  0  0  0
  -21.1980  -46.8510   -5.5046 N   0  0  0  0  0  0  0  0  0  0  0  0
  -20.6201  -48.0172   -5.0860 C   0  0  0  0  0  0  0  0  0  0  0  0
  -19.2672  -47.7668   -5.1210 C   0  0  0  0  0  0  0  0  0  0  0  0
  -19.1031  -46.5540   -5.5281 O   0  0  0  0  0  0  0  0  0  0  0  0
  2  1  1  1
  2  3  1  0
  3  4  1  0
  4  5  1  0
  5  6  1  0
  6  7  1  0
  7  8  1  0
  8  9  1  0
  9 10  1  0
 10 11  1  0
 11 12  1  0
 12 13  2  0
 13 14  1  0
 14 15  2  0
 15 16  1  0
 15 17  1  0
 17 18  2  0
 17 19  1  0
 19 20  1  0
 20 21  1  1
 20 22  1  0
 22 23  1  6
 22 24  1  0
 24 25  1  0
 25 26  1  0
 26 27  1  0
 27 28  1  0
 26 29  1  0
 29 30  2  0
 30 31  1  0
 31 32  2  0
 32 33  1  0
 33 34  2  0
 31 35  1  0
 35 36  1  0
 35 37  1  0
 35 38  1  0
 13 39  1  0
 39 40  2  0
 40 41  1  0
 41 42  2  0
 42 43  1  0
 16 11  2  0
 21  2  1  0
 28 26  1  0
 34 29  1  0
 43 39  1  0
M  END
$$$$
