
     RDKit          3D

 43 47  0  0  0  0  0  0  0  0999 V2000
  -15.9291  -38.9943   -4.6770 C   0  0  0  0  0  0  0  0  0  0  0  0
  -17.3536  -39.4815   -4.8160 C   0  0  2  0  0  0  0  0  0  0  0  0
  -17.5763  -40.4347   -3.6353 C   0  0  0  0  0  0  0  0  0  0  0  0
  -18.4426  -39.7674   -2.5935 C   0  0  0  0  0  0  0  0  0  0  0  0
  -19.4993  -40.7184   -2.0499 C   0  0  0  0  0  0  0  0  0  0  0  0
  -20.5306  -40.8450   -3.1477 C   0  0  0  0  0  0  0  0  0  0  0  0
  -21.6482  -41.7521   -2.7561 C   0  0  0  0  0  0  0  0  0  0  0  0
  -22.5415  -42.1099   -3.9230 C   0  0  0  0  0  0  0  0  0  0  0  0
  -23.6348  -41.0888   -4.1370 C   0  0  0  0  0  0  0  0  0  0  0  0
  -23.7690  -40.6904   -5.5249 N   0  0  0  0  0  0  0  0  0  0  0  0
  -22.9260  -40.8635   -6.6635 C   0  0  0  0  0  0  0  0  0  0  0  0
  -23.7303  -41.2424   -7.7724 C   0  0  0  0  0  0  0  0  0  0  0  0
  -23.2384  -41.4833   -9.0241 C   0  0  0  0  0  0  0  0  0  0  0  0
  -21.8883  -41.3330   -9.1494 C   0  0  0  0  0  0  0  0  0  0  0  0
  -21.0154  -40.9551   -8.0880 C   0  0  0  0  0  0  0  0  0  0  0  0
  -21.5651  -40.7237   -6.8404 C   0  0  0  0  0  0  0  0  0  0  0  0
  -19.6392  -40.9000   -8.5790 C   0  0  0  0  0  0  0  0  0  0  0  0
  -19.2469  -41.8429   -9.4323 O   0  0  0  0  0  0  0  0  0  0  0  0
  -18.5373  -40.0411   -8.3699 N   0  0  0  0  0  0  0  0  0  0  0  0
  -18.2290  -39.3164   -7.1406 C   0  0  1  0  0  0  0  0  0  0  0  0
  -17.6035  -40.1998   -6.1259 C   0  0  0  0  0  0  0  0  0  0  0  0
  -17.5784  -38.0224   -7.4459 C   0  0  2  0  0  0  0  0  0  0  0  0
  -18.5377  -37.0316   -7.0172 O   0  0  0  0  0  0  0  0  0  0  0  0
  -17.2965  -37.6635   -8.8506 C   0  0  0  0  0  0  0  0  0  0  0  0
  -16.1473  -38.2220   -9.4741 N   0  0  0  0  0  0  0  0  0  0  0  0
  -15.8594  -37.5344  -10.7543 C   0  0  0  0  0  0  0  0  0  0  0  0
  -14.5814  -38.0061  -11.4767 C   0  0  0  0  0  0  0  0  0  0  0  0
  -14.6566  -36.6711  -10.8324 C   0  0  0  0  0  0  0  0  0  0  0  0
  -17.0077  -37.1311  -11.6019 C   0  0  0  0  0  0  0  0  0  0  0  0
  -18.1169  -37.9154  -11.8356 C   0  0  0  0  0  0  0  0  0  0  0  0
  -19.1594  -37.4742  -12.6375 C   0  0  0  0  0  0  0  0  0  0  0  0
  -19.0922  -36.2201  -13.2194 C   0  0  0  0  0  0  0  0  0  0  0  0
  -17.9723  -35.4646  -12.9655 C   0  0  0  0  0  0  0  0  0  0  0  0
  -16.9768  -35.9189  -12.1835 N   0  0  0  0  0  0  0  0  0  0  0  0
  -20.3259  -38.3287  -12.8751 C   0  0  0  0  0  0  0  0  0  0  0  0
  -21.3440  -38.1717  -11.7847 C   0  0  0  0  0  0  0  0  0  0  0  0
  -21.0198  -37.9092  -14.1712 C   0  0  0  0  0  0  0  0  0  0  0  0
  -19.9799  -39.7879  -13.0323 C   0  0  0  0  0  0  0  0  0  0  0  0
  -24.0898  -41.8712  -10.1375 C   0  0  0  0  0  0  0  0  0  0  0  0
  -23.9555  -41.3984  -11.3849 N   0  0  0  0  0  0  0  0  0  0  0  0
  -24.9142  -41.9694  -12.1750 C   0  0  0  0  0  0  0  0  0  0  0  0
  -25.6143  -42.7981  -11.3280 C   0  0  0  0  0  0  0  0  0  0  0  0
  -25.0866  -42.6971  -10.1555 O   0  0  0  0  0  0  0  0  0  0  0  0
  2  1  1  6
  2  3  1  0
  3  4  1  0
  4  5  1  0
  5  6  1  0
  6  7  1  0
  7  8  1  0
  8  9  1  0
  9 10  1  0
 10 11  1  0
 11 12  1  0
 12 13  2  0
 13 14  1  0
 14 15  2  0
 15 16  1  0
 15 17  1  0
 17 18  2  0
 17 19  1  0
 19 20  1  0
 20 21  1  1
 20 22  1  0
 22 23  1  6
 22 24  1  0
 24 25  1  0
 25 26  1  0
 26 27  1  0
 27 28  1  0
 26 29  1  0
 29 30  2  0
 30 31  1  0
 31 32  2  0
 32 33  1  0
 33 34  2  0
 31 35  1  0
 35 36  1  0
 35 37  1  0
 35 38  1  0
 13 39  1  0
 39 40  2  0
 40 41  1  0
 41 42  2  0
 42 43  1  0
 16 11  2  0
 21  2  1  0
 28 26  1  0
 34 29  1  0
 43 39  1  0
M  END
$$$$
