
     RDKit          3D

 43 47  0  0  0  0  0  0  0  0999 V2000
  -16.2358  -38.6300  -10.2732 C   0  0  0  0  0  0  0  0  0  0  0  0
  -16.4437  -40.1269  -10.2330 C   0  0  2  0  0  0  0  0  0  0  0  0
  -16.2372  -40.6069  -11.6749 C   0  0  0  0  0  0  0  0  0  0  0  0
  -14.9039  -41.3058  -11.7970 C   0  0  0  0  0  0  0  0  0  0  0  0
  -15.0112  -42.5778  -12.6259 C   0  0  0  0  0  0  0  0  0  0  0  0
  -15.7070  -43.5816  -11.7355 C   0  0  0  0  0  0  0  0  0  0  0  0
  -15.8812  -44.8981  -12.4151 C   0  0  0  0  0  0  0  0  0  0  0  0
  -16.8077  -45.8239  -11.6587 C   0  0  0  0  0  0  0  0  0  0  0  0
  -16.0770  -46.6249  -10.6060 C   0  0  0  0  0  0  0  0  0  0  0  0
  -16.7566  -46.6230   -9.3249 N   0  0  0  0  0  0  0  0  0  0  0  0
  -17.8122  -45.8220   -8.7947 C   0  0  0  0  0  0  0  0  0  0  0  0
  -18.7268  -46.6682   -8.1108 C   0  0  0  0  0  0  0  0  0  0  0  0
  -19.8529  -46.2212   -7.4792 C   0  0  0  0  0  0  0  0  0  0  0  0
  -20.0523  -44.8733   -7.5460 C   0  0  0  0  0  0  0  0  0  0  0  0
  -19.1829  -43.9598   -8.2100 C   0  0  0  0  0  0  0  0  0  0  0  0
  -18.0570  -44.4650   -8.8340 C   0  0  0  0  0  0  0  0  0  0  0  0
  -19.7097  -42.6014   -8.0866 C   0  0  0  0  0  0  0  0  0  0  0  0
  -21.0256  -42.4344   -8.1948 O   0  0  0  0  0  0  0  0  0  0  0  0
  -19.1437  -41.3266   -7.8632 N   0  0  0  0  0  0  0  0  0  0  0  0
  -17.8260  -40.8782   -8.3035 C   0  0  1  0  0  0  0  0  0  0  0  0
  -17.8232  -40.5153   -9.7422 C   0  0  0  0  0  0  0  0  0  0  0  0
  -17.2488  -39.9203   -7.3338 C   0  0  2  0  0  0  0  0  0  0  0  0
  -16.6521  -40.7570   -6.3191 O   0  0  0  0  0  0  0  0  0  0  0  0
  -18.1448  -39.0231   -6.5764 C   0  0  0  0  0  0  0  0  0  0  0  0
  -18.8620  -38.0237   -7.2895 N   0  0  0  0  0  0  0  0  0  0  0  0
  -20.0467  -37.5789   -6.5193 C   0  0  0  0  0  0  0  0  0  0  0  0
  -20.6732  -36.2517   -6.9921 C   0  0  0  0  0  0  0  0  0  0  0  0
  -19.9332  -36.3427   -5.7086 C   0  0  0  0  0  0  0  0  0  0  0  0
  -20.9696  -38.6171   -5.9996 C   0  0  0  0  0  0  0  0  0  0  0  0
  -21.3588  -39.7364   -6.7035 C   0  0  0  0  0  0  0  0  0  0  0  0
  -22.2239  -40.6720   -6.1550 C   0  0  0  0  0  0  0  0  0  0  0  0
  -22.7113  -40.4850   -4.8731 C   0  0  0  0  0  0  0  0  0  0  0  0
  -22.3029  -39.3584   -4.1996 C   0  0  0  0  0  0  0  0  0  0  0  0
  -21.4630  -38.4682   -4.7574 N   0  0  0  0  0  0  0  0  0  0  0  0
  -22.6271  -41.8515   -6.9254 C   0  0  0  0  0  0  0  0  0  0  0  0
  -23.4054  -41.4611   -8.1469 C   0  0  0  0  0  0  0  0  0  0  0  0
  -21.3868  -42.5911   -7.4274 C   0  0  0  0  0  0  0  0  0  0  0  0
  -23.4211  -42.8510   -6.1227 C   0  0  0  0  0  0  0  0  0  0  0  0
  -20.7693  -47.1152   -6.7892 C   0  0  0  0  0  0  0  0  0  0  0  0
  -20.3807  -48.1697   -6.0582 N   0  0  0  0  0  0  0  0  0  0  0  0
  -21.4921  -48.7867   -5.5547 C   0  0  0  0  0  0  0  0  0  0  0  0
  -22.5479  -48.0410   -6.0276 C   0  0  0  0  0  0  0  0  0  0  0  0
  -22.0626  -47.0817   -6.7401 O   0  0  0  0  0  0  0  0  0  0  0  0
  2  1  1  6
  2  3  1  0
  3  4  1  0
  4  5  1  0
  5  6  1  0
  6  7  1  0
  7  8  1  0
  8  9  1  0
  9 10  1  0
 10 11  1  0
 11 12  1  0
 12 13  2  0
 13 14  1  0
 14 15  2  0
 15 16  1  0
 15 17  1  0
 17 18  2  0
 17 19  1  0
 19 20  1  0
 20 21  1  6
 20 22  1  0
 22 23  1  1
 22 24  1  0
 24 25  1  0
 25 26  1  0
 26 27  1  0
 27 28  1  0
 26 29  1  0
 29 30  2  0
 30 31  1  0
 31 32  2  0
 32 33  1  0
 33 34  2  0
 31 35  1  0
 35 36  1  0
 35 37  1  0
 35 38  1  0
 13 39  1  0
 39 40  2  0
 40 41  1  0
 41 42  2  0
 42 43  1  0
 16 11  2  0
 21  2  1  0
 28 26  1  0
 34 29  1  0
 43 39  1  0
M  END
$$$$
