
     RDKit          3D

 43 47  0  0  0  0  0  0  0  0999 V2000
  -20.3537  -38.9114  -11.9046 C   0  0  0  0  0  0  0  0  0  0  0  0
  -20.9104  -39.7184  -10.7537 C   0  0  2  0  0  0  0  0  0  0  0  0
  -22.4342  -39.5762  -10.8547 C   0  0  0  0  0  0  0  0  0  0  0  0
  -23.0353  -40.8581  -11.3804 C   0  0  0  0  0  0  0  0  0  0  0  0
  -24.2926  -41.2436  -10.6142 C   0  0  0  0  0  0  0  0  0  0  0  0
  -23.8084  -41.7577   -9.2778 C   0  0  0  0  0  0  0  0  0  0  0  0
  -24.9403  -42.1859   -8.4057 C   0  0  0  0  0  0  0  0  0  0  0  0
  -24.5091  -42.4424   -6.9788 C   0  0  0  0  0  0  0  0  0  0  0  0
  -24.0091  -43.8547   -6.7805 C   0  0  0  0  0  0  0  0  0  0  0  0
  -22.7578  -43.9113   -6.0497 N   0  0  0  0  0  0  0  0  0  0  0  0
  -21.7899  -42.9166   -5.7166 C   0  0  0  0  0  0  0  0  0  0  0  0
  -21.3923  -43.1026   -4.3648 C   0  0  0  0  0  0  0  0  0  0  0  0
  -20.4706  -42.3214   -3.7268 C   0  0  0  0  0  0  0  0  0  0  0  0
  -19.9385  -41.3225   -4.4886 C   0  0  0  0  0  0  0  0  0  0  0  0
  -20.2835  -41.0723   -5.8486 C   0  0  0  0  0  0  0  0  0  0  0  0
  -21.2227  -41.8926   -6.4464 C   0  0  0  0  0  0  0  0  0  0  0  0
  -19.5274  -39.9232   -6.3444 C   0  0  0  0  0  0  0  0  0  0  0  0
  -19.3571  -38.8912   -5.5217 O   0  0  0  0  0  0  0  0  0  0  0  0
  -18.8807  -39.6011   -7.5583 N   0  0  0  0  0  0  0  0  0  0  0  0
  -19.2864  -40.0313   -8.8930 C   0  0  1  0  0  0  0  0  0  0  0  0
  -20.4252  -39.2295   -9.4046 C   0  0  0  0  0  0  0  0  0  0  0  0
  -18.1044  -40.2135   -9.7652 C   0  0  2  0  0  0  0  0  0  0  0  0
  -17.9497  -41.6463   -9.8603 O   0  0  0  0  0  0  0  0  0  0  0  0
  -16.7825  -39.7404   -9.3071 C   0  0  0  0  0  0  0  0  0  0  0  0
  -16.6121  -38.3521   -9.0514 N   0  0  0  0  0  0  0  0  0  0  0  0
  -15.1744  -38.0122   -8.9414 C   0  0  0  0  0  0  0  0  0  0  0  0
  -14.2478  -39.1948   -8.5944 C   0  0  0  0  0  0  0  0  0  0  0  0
  -14.5278  -38.1185   -7.6114 C   0  0  0  0  0  0  0  0  0  0  0  0
  -14.6336  -36.9704   -9.8480 C   0  0  0  0  0  0  0  0  0  0  0  0
  -13.2995  -36.8292  -10.1645 C   0  0  0  0  0  0  0  0  0  0  0  0
  -12.8611  -35.8329  -11.0245 C   0  0  0  0  0  0  0  0  0  0  0  0
  -13.7770  -34.9573  -11.5816 C   0  0  0  0  0  0  0  0  0  0  0  0
  -15.0989  -35.1266  -11.2448 C   0  0  0  0  0  0  0  0  0  0  0  0
  -15.4947  -36.1021  -10.4076 N   0  0  0  0  0  0  0  0  0  0  0  0
  -11.4366  -35.6999  -11.3415 C   0  0  0  0  0  0  0  0  0  0  0  0
  -11.2158  -35.6248  -12.8234 C   0  0  0  0  0  0  0  0  0  0  0  0
  -10.8971  -34.3919  -10.7624 C   0  0  0  0  0  0  0  0  0  0  0  0
  -10.5866  -36.8027  -10.7627 C   0  0  0  0  0  0  0  0  0  0  0  0
  -20.0871  -42.5382   -2.3409 C   0  0  0  0  0  0  0  0  0  0  0  0
  -20.3390  -43.6656   -1.6603 N   0  0  0  0  0  0  0  0  0  0  0  0
  -19.8446  -43.5313   -0.3927 C   0  0  0  0  0  0  0  0  0  0  0  0
  -19.2922  -42.2710   -0.3667 C   0  0  0  0  0  0  0  0  0  0  0  0
  -19.4651  -41.7428   -1.5305 O   0  0  0  0  0  0  0  0  0  0  0  0
  2  1  1  6
  2  3  1  0
  3  4  1  0
  4  5  1  0
  5  6  1  0
  6  7  1  0
  7  8  1  0
  8  9  1  0
  9 10  1  0
 10 11  1  0
 11 12  1  0
 12 13  2  0
 13 14  1  0
 14 15  2  0
 15 16  1  0
 15 17  1  0
 17 18  2  0
 17 19  1  0
 19 20  1  0
 20 21  1  6
 20 22  1  0
 22 23  1  1
 22 24  1  0
 24 25  1  0
 25 26  1  0
 26 27  1  0
 27 28  1  0
 26 29  1  0
 29 30  2  0
 30 31  1  0
 31 32  2  0
 32 33  1  0
 33 34  2  0
 31 35  1  0
 35 36  1  0
 35 37  1  0
 35 38  1  0
 13 39  1  0
 39 40  2  0
 40 41  1  0
 41 42  2  0
 42 43  1  0
 16 11  2  0
 21  2  1  0
 28 26  1  0
 34 29  1  0
 43 39  1  0
M  END
$$$$
