
     RDKit          3D

 43 47  0  0  0  0  0  0  0  0999 V2000
  -19.2659  -37.0531   -6.0362 C   0  0  0  0  0  0  0  0  0  0  0  0
  -19.7912  -38.4318   -6.3667 C   0  0  2  0  0  0  0  0  0  0  0  0
  -21.0960  -38.5728   -5.5731 C   0  0  0  0  0  0  0  0  0  0  0  0
  -22.2787  -38.4530   -6.5048 C   0  0  0  0  0  0  0  0  0  0  0  0
  -23.3446  -39.4943   -6.1949 C   0  0  0  0  0  0  0  0  0  0  0  0
  -22.7901  -40.8036   -6.7077 C   0  0  0  0  0  0  0  0  0  0  0  0
  -23.7365  -41.9337   -6.4789 C   0  0  0  0  0  0  0  0  0  0  0  0
  -23.1007  -43.2831   -6.7288 C   0  0  0  0  0  0  0  0  0  0  0  0
  -23.1866  -43.6926   -8.1810 C   0  0  0  0  0  0  0  0  0  0  0  0
  -21.9263  -44.1856   -8.7022 N   0  0  0  0  0  0  0  0  0  0  0  0
  -20.5877  -44.1182   -8.2118 C   0  0  0  0  0  0  0  0  0  0  0  0
  -19.9717  -45.3862   -8.3931 C   0  0  0  0  0  0  0  0  0  0  0  0
  -18.6831  -45.6660   -8.0351 C   0  0  0  0  0  0  0  0  0  0  0  0
  -18.0028  -44.6235   -7.4771 C   0  0  0  0  0  0  0  0  0  0  0  0
  -18.5485  -43.3244   -7.2632 C   0  0  0  0  0  0  0  0  0  0  0  0
  -19.8581  -43.0948   -7.6433 C   0  0  0  0  0  0  0  0  0  0  0  0
  -17.5429  -42.4650   -6.6401 C   0  0  0  0  0  0  0  0  0  0  0  0
  -16.7647  -43.0002   -5.7026 O   0  0  0  0  0  0  0  0  0  0  0  0
  -17.1521  -41.1155   -6.7873 N   0  0  0  0  0  0  0  0  0  0  0  0
  -18.0217  -39.9994   -7.1470 C   0  0  1  0  0  0  0  0  0  0  0  0
  -18.8243  -39.5348   -5.9888 C   0  0  0  0  0  0  0  0  0  0  0  0
  -17.2799  -38.9932   -7.9396 C   0  0  2  0  0  0  0  0  0  0  0  0
  -18.2966  -38.3484   -8.7373 O   0  0  0  0  0  0  0  0  0  0  0  0
  -16.2788  -39.4407   -8.9291 C   0  0  0  0  0  0  0  0  0  0  0  0
  -15.0882  -40.0570   -8.4557 N   0  0  0  0  0  0  0  0  0  0  0  0
  -14.4255  -40.8183   -9.5400 C   0  0  0  0  0  0  0  0  0  0  0  0
  -14.6419  -42.3443   -9.4938 C   0  0  0  0  0  0  0  0  0  0  0  0
  -13.3232  -41.7411   -9.1773 C   0  0  0  0  0  0  0  0  0  0  0  0
  -14.3334  -40.1868  -10.8787 C   0  0  0  0  0  0  0  0  0  0  0  0
  -14.2402  -38.8286  -11.0947 C   0  0  0  0  0  0  0  0  0  0  0  0
  -14.1531  -38.3036  -12.3758 C   0  0  0  0  0  0  0  0  0  0  0  0
  -14.1590  -39.1556  -13.4667 C   0  0  0  0  0  0  0  0  0  0  0  0
  -14.2530  -40.5037  -13.2155 C   0  0  0  0  0  0  0  0  0  0  0  0
  -14.3363  -40.9839  -11.9619 N   0  0  0  0  0  0  0  0  0  0  0  0
  -14.0602  -36.8555  -12.5799 C   0  0  0  0  0  0  0  0  0  0  0  0
  -15.0561  -36.1233  -11.7301 C   0  0  0  0  0  0  0  0  0  0  0  0
  -12.6810  -36.3587  -12.1457 C   0  0  0  0  0  0  0  0  0  0  0  0
  -14.2270  -36.4396  -14.0196 C   0  0  0  0  0  0  0  0  0  0  0  0
  -18.0835  -46.9760   -8.2335 C   0  0  0  0  0  0  0  0  0  0  0  0
  -16.7671  -47.1842   -8.3792 N   0  0  0  0  0  0  0  0  0  0  0  0
  -16.5515  -48.5242   -8.5448 C   0  0  0  0  0  0  0  0  0  0  0  0
  -17.8060  -49.0875   -8.4888 C   0  0  0  0  0  0  0  0  0  0  0  0
  -18.6561  -48.1349   -8.3059 O   0  0  0  0  0  0  0  0  0  0  0  0
  2  1  1  1
  2  3  1  0
  3  4  1  0
  4  5  1  0
  5  6  1  0
  6  7  1  0
  7  8  1  0
  8  9  1  0
  9 10  1  0
 10 11  1  0
 11 12  1  0
 12 13  2  0
 13 14  1  0
 14 15  2  0
 15 16  1  0
 15 17  1  0
 17 18  2  0
 17 19  1  0
 19 20  1  0
 20 21  1  1
 20 22  1  0
 22 23  1  6
 22 24  1  0
 24 25  1  0
 25 26  1  0
 26 27  1  0
 27 28  1  0
 26 29  1  0
 29 30  2  0
 30 31  1  0
 31 32  2  0
 32 33  1  0
 33 34  2  0
 31 35  1  0
 35 36  1  0
 35 37  1  0
 35 38  1  0
 13 39  1  0
 39 40  2  0
 40 41  1  0
 41 42  2  0
 42 43  1  0
 16 11  2  0
 21  2  1  0
 28 26  1  0
 34 29  1  0
 43 39  1  0
M  END
$$$$
