
     RDKit          3D

 43 47  0  0  0  0  0  0  0  0999 V2000
  -19.1463  -36.9356   -6.3559 C   0  0  0  0  0  0  0  0  0  0  0  0
  -19.7694  -38.3074   -6.4807 C   0  0  2  0  0  0  0  0  0  0  0  0
  -20.8320  -38.3752   -5.3769 C   0  0  0  0  0  0  0  0  0  0  0  0
  -22.2099  -38.2512   -5.9829 C   0  0  0  0  0  0  0  0  0  0  0  0
  -23.1850  -39.2442   -5.3668 C   0  0  0  0  0  0  0  0  0  0  0  0
  -22.8092  -40.5894   -5.9444 C   0  0  0  0  0  0  0  0  0  0  0  0
  -23.6915  -41.6781   -5.4331 C   0  0  0  0  0  0  0  0  0  0  0  0
  -23.1710  -43.0563   -5.7756 C   0  0  0  0  0  0  0  0  0  0  0  0
  -23.6330  -43.5167   -7.1388 C   0  0  0  0  0  0  0  0  0  0  0  0
  -22.5584  -44.0705   -7.9399 N   0  0  0  0  0  0  0  0  0  0  0  0
  -21.1379  -44.0293   -7.8082 C   0  0  0  0  0  0  0  0  0  0  0  0
  -20.6172  -45.3229   -8.0831 C   0  0  0  0  0  0  0  0  0  0  0  0
  -19.2866  -45.6318   -8.0512 C   0  0  0  0  0  0  0  0  0  0  0  0
  -18.4632  -44.5924   -7.7308 C   0  0  0  0  0  0  0  0  0  0  0  0
  -18.9070  -43.2688   -7.4438 C   0  0  0  0  0  0  0  0  0  0  0  0
  -20.2646  -43.0101   -7.4894 C   0  0  0  0  0  0  0  0  0  0  0  0
  -17.7567  -42.4205   -7.1348 C   0  0  0  0  0  0  0  0  0  0  0  0
  -16.7778  -42.9458   -6.4022 O   0  0  0  0  0  0  0  0  0  0  0  0
  -17.3858  -41.0912   -7.4363 N   0  0  0  0  0  0  0  0  0  0  0  0
  -18.2928  -39.9611   -7.6133 C   0  0  1  0  0  0  0  0  0  0  0  0
  -18.7634  -39.4271   -6.3114 C   0  0  0  0  0  0  0  0  0  0  0  0
  -17.7547  -39.0104   -8.6121 C   0  0  2  0  0  0  0  0  0  0  0  0
  -18.4117  -39.3788   -9.8443 O   0  0  0  0  0  0  0  0  0  0  0  0
  -16.3170  -39.0452   -8.9487 C   0  0  0  0  0  0  0  0  0  0  0  0
  -15.6481  -40.2998   -8.9302 N   0  0  0  0  0  0  0  0  0  0  0  0
  -14.1933  -40.1210   -9.1457 C   0  0  0  0  0  0  0  0  0  0  0  0
  -13.3640  -41.4207   -9.1183 C   0  0  0  0  0  0  0  0  0  0  0  0
  -13.2749  -40.4240   -8.0220 C   0  0  0  0  0  0  0  0  0  0  0  0
  -13.7532  -39.0553  -10.0785 C   0  0  0  0  0  0  0  0  0  0  0  0
  -14.4231  -37.8669  -10.2755 C   0  0  0  0  0  0  0  0  0  0  0  0
  -13.9530  -36.9094  -11.1625 C   0  0  0  0  0  0  0  0  0  0  0  0
  -12.7862  -37.1447  -11.8690 C   0  0  0  0  0  0  0  0  0  0  0  0
  -12.1437  -38.3397  -11.6485 C   0  0  0  0  0  0  0  0  0  0  0  0
  -12.6235  -39.2496  -10.7819 N   0  0  0  0  0  0  0  0  0  0  0  0
  -14.6859  -35.6557  -11.3585 C   0  0  0  0  0  0  0  0  0  0  0  0
  -13.7675  -34.5538  -11.7973 C   0  0  0  0  0  0  0  0  0  0  0  0
  -15.7138  -35.8261  -12.4772 C   0  0  0  0  0  0  0  0  0  0  0  0
  -15.4551  -35.2124  -10.1396 C   0  0  0  0  0  0  0  0  0  0  0  0
  -18.7870  -46.9674   -8.3364 C   0  0  0  0  0  0  0  0  0  0  0  0
  -19.4109  -47.8478   -9.1322 N   0  0  0  0  0  0  0  0  0  0  0  0
  -18.6706  -48.9963   -9.1795 C   0  0  0  0  0  0  0  0  0  0  0  0
  -17.5847  -48.7433   -8.3727 C   0  0  0  0  0  0  0  0  0  0  0  0
  -17.7096  -47.5456   -7.9109 O   0  0  0  0  0  0  0  0  0  0  0  0
  2  1  1  1
  2  3  1  0
  3  4  1  0
  4  5  1  0
  5  6  1  0
  6  7  1  0
  7  8  1  0
  8  9  1  0
  9 10  1  0
 10 11  1  0
 11 12  1  0
 12 13  2  0
 13 14  1  0
 14 15  2  0
 15 16  1  0
 15 17  1  0
 17 18  2  0
 17 19  1  0
 19 20  1  0
 20 21  1  1
 20 22  1  0
 22 23  1  6
 22 24  1  0
 24 25  1  0
 25 26  1  0
 26 27  1  0
 27 28  1  0
 26 29  1  0
 29 30  2  0
 30 31  1  0
 31 32  2  0
 32 33  1  0
 33 34  2  0
 31 35  1  0
 35 36  1  0
 35 37  1  0
 35 38  1  0
 13 39  1  0
 39 40  2  0
 40 41  1  0
 41 42  2  0
 42 43  1  0
 16 11  2  0
 21  2  1  0
 28 26  1  0
 34 29  1  0
 43 39  1  0
M  END
$$$$
