
     RDKit          3D

 43 47  0  0  0  0  0  0  0  0999 V2000
  -18.9048  -37.3066   -5.4211 C   0  0  0  0  0  0  0  0  0  0  0  0
  -19.4500  -38.6013   -5.9798 C   0  0  2  0  0  0  0  0  0  0  0  0
  -20.6937  -38.9171   -5.1397 C   0  0  0  0  0  0  0  0  0  0  0  0
  -21.9409  -38.6351   -5.9434 C   0  0  0  0  0  0  0  0  0  0  0  0
  -22.9796  -39.7341   -5.7711 C   0  0  0  0  0  0  0  0  0  0  0  0
  -22.4613  -40.9074   -6.5707 C   0  0  0  0  0  0  0  0  0  0  0  0
  -23.3866  -42.0756   -6.5037 C   0  0  0  0  0  0  0  0  0  0  0  0
  -22.7681  -43.3388   -7.0599 C   0  0  0  0  0  0  0  0  0  0  0  0
  -22.9581  -43.4553   -8.5546 C   0  0  0  0  0  0  0  0  0  0  0  0
  -21.7380  -43.8154   -9.2508 N   0  0  0  0  0  0  0  0  0  0  0  0
  -20.3675  -43.8244   -8.8525 C   0  0  0  0  0  0  0  0  0  0  0  0
  -19.7639  -45.0217   -9.3242 C   0  0  0  0  0  0  0  0  0  0  0  0
  -18.4523  -45.3457   -9.1205 C   0  0  0  0  0  0  0  0  0  0  0  0
  -17.7352  -44.4229   -8.4167 C   0  0  0  0  0  0  0  0  0  0  0  0
  -18.2664  -43.2005   -7.9120 C   0  0  0  0  0  0  0  0  0  0  0  0
  -19.6005  -42.9215   -8.1457 C   0  0  0  0  0  0  0  0  0  0  0  0
  -17.2200  -42.4646   -7.2038 C   0  0  0  0  0  0  0  0  0  0  0  0
  -16.3749  -43.1616   -6.4481 O   0  0  0  0  0  0  0  0  0  0  0  0
  -16.8433  -41.1065   -7.1084 N   0  0  0  0  0  0  0  0  0  0  0  0
  -17.7388  -39.9556   -7.1778 C   0  0  1  0  0  0  0  0  0  0  0  0
  -18.4562  -39.7415   -5.8969 C   0  0  0  0  0  0  0  0  0  0  0  0
  -17.0582  -38.8010   -7.8061 C   0  0  2  0  0  0  0  0  0  0  0  0
  -17.9089  -38.4486   -8.9186 O   0  0  0  0  0  0  0  0  0  0  0  0
  -15.7268  -38.9863   -8.4182 C   0  0  0  0  0  0  0  0  0  0  0  0
  -14.9179  -40.0641   -7.9649 N   0  0  0  0  0  0  0  0  0  0  0  0
  -13.6598  -40.1386   -8.7435 C   0  0  0  0  0  0  0  0  0  0  0  0
  -12.4024  -40.4880   -7.9222 C   0  0  0  0  0  0  0  0  0  0  0  0
  -12.6089  -39.1271   -8.4777 C   0  0  0  0  0  0  0  0  0  0  0  0
  -13.7292  -40.6576  -10.1311 C   0  0  0  0  0  0  0  0  0  0  0  0
  -14.7478  -41.4492  -10.6168 C   0  0  0  0  0  0  0  0  0  0  0  0
  -14.7526  -41.8981  -11.9294 C   0  0  0  0  0  0  0  0  0  0  0  0
  -13.7156  -41.5478  -12.7767 C   0  0  0  0  0  0  0  0  0  0  0  0
  -12.7166  -40.7577  -12.2599 C   0  0  0  0  0  0  0  0  0  0  0  0
  -12.7386  -40.3374  -10.9825 N   0  0  0  0  0  0  0  0  0  0  0  0
  -15.8443  -42.7431  -12.4209 C   0  0  0  0  0  0  0  0  0  0  0  0
  -16.9766  -41.9129  -12.9491 C   0  0  0  0  0  0  0  0  0  0  0  0
  -15.3541  -43.5926  -13.5936 C   0  0  0  0  0  0  0  0  0  0  0  0
  -16.3689  -43.7083  -11.3880 C   0  0  0  0  0  0  0  0  0  0  0  0
  -17.8661  -46.5810   -9.6159 C   0  0  0  0  0  0  0  0  0  0  0  0
  -18.3775  -47.3029  -10.6233 N   0  0  0  0  0  0  0  0  0  0  0  0
  -17.5809  -48.3951  -10.8276 C   0  0  0  0  0  0  0  0  0  0  0  0
  -16.5800  -48.2754   -9.8905 C   0  0  0  0  0  0  0  0  0  0  0  0
  -16.8013  -47.1990   -9.2154 O   0  0  0  0  0  0  0  0  0  0  0  0
  2  1  1  1
  2  3  1  0
  3  4  1  0
  4  5  1  0
  5  6  1  0
  6  7  1  0
  7  8  1  0
  8  9  1  0
  9 10  1  0
 10 11  1  0
 11 12  1  0
 12 13  2  0
 13 14  1  0
 14 15  2  0
 15 16  1  0
 15 17  1  0
 17 18  2  0
 17 19  1  0
 19 20  1  0
 20 21  1  1
 20 22  1  0
 22 23  1  6
 22 24  1  0
 24 25  1  0
 25 26  1  0
 26 27  1  0
 27 28  1  0
 26 29  1  0
 29 30  2  0
 30 31  1  0
 31 32  2  0
 32 33  1  0
 33 34  2  0
 31 35  1  0
 35 36  1  0
 35 37  1  0
 35 38  1  0
 13 39  1  0
 39 40  2  0
 40 41  1  0
 41 42  2  0
 42 43  1  0
 16 11  2  0
 21  2  1  0
 28 26  1  0
 34 29  1  0
 43 39  1  0
M  END
$$$$
