
     RDKit          3D

 43 47  0  0  0  0  0  0  0  0999 V2000
  -16.4394  -40.1936   -4.1965 C   0  0  0  0  0  0  0  0  0  0  0  0
  -17.7705  -40.4573   -4.8632 C   0  0  2  0  0  0  0  0  0  0  0  0
  -18.4906  -41.4613   -3.9546 C   0  0  0  0  0  0  0  0  0  0  0  0
  -19.5877  -40.7630   -3.1865 C   0  0  0  0  0  0  0  0  0  0  0  0
  -20.8631  -41.5927   -3.1512 C   0  0  0  0  0  0  0  0  0  0  0  0
  -21.4561  -41.4795   -4.5369 C   0  0  0  0  0  0  0  0  0  0  0  0
  -22.7308  -42.2448   -4.6584 C   0  0  0  0  0  0  0  0  0  0  0  0
  -23.1961  -42.3739   -6.0918 C   0  0  0  0  0  0  0  0  0  0  0  0
  -24.0303  -41.1918   -6.5282 C   0  0  0  0  0  0  0  0  0  0  0  0
  -23.6303  -40.6667   -7.8194 N   0  0  0  0  0  0  0  0  0  0  0  0
  -22.4681  -40.8664   -8.6234 C   0  0  0  0  0  0  0  0  0  0  0  0
  -22.8729  -41.0339   -9.9756 C   0  0  0  0  0  0  0  0  0  0  0  0
  -22.0057  -41.2406  -11.0110 C   0  0  0  0  0  0  0  0  0  0  0  0
  -20.6884  -41.2768  -10.6583 C   0  0  0  0  0  0  0  0  0  0  0  0
  -20.2033  -41.1165   -9.3279 C   0  0  0  0  0  0  0  0  0  0  0  0
  -21.1239  -40.9104   -8.3168 C   0  0  0  0  0  0  0  0  0  0  0  0
  -18.7448  -41.2206   -9.3202 C   0  0  0  0  0  0  0  0  0  0  0  0
  -18.1845  -42.1376  -10.1050 O   0  0  0  0  0  0  0  0  0  0  0  0
  -17.6987  -40.5495   -8.6488 N   0  0  0  0  0  0  0  0  0  0  0  0
  -17.7606  -39.9792   -7.3063 C   0  0  1  0  0  0  0  0  0  0  0  0
  -17.6254  -41.0232   -6.2608 C   0  0  0  0  0  0  0  0  0  0  0  0
  -16.9092  -38.7721   -7.2115 C   0  0  2  0  0  0  0  0  0  0  0  0
  -17.8491  -37.6819   -7.0937 O   0  0  0  0  0  0  0  0  0  0  0  0
  -16.0591  -38.3897   -8.3571 C   0  0  0  0  0  0  0  0  0  0  0  0
  -15.4808  -39.4224   -9.1449 N   0  0  0  0  0  0  0  0  0  0  0  0
  -14.5802  -38.8538  -10.1747 C   0  0  0  0  0  0  0  0  0  0  0  0
  -13.6536  -39.8732  -10.8674 C   0  0  0  0  0  0  0  0  0  0  0  0
  -13.1205  -38.8670   -9.9152 C   0  0  0  0  0  0  0  0  0  0  0  0
  -15.0861  -37.7286  -10.9978 C   0  0  0  0  0  0  0  0  0  0  0  0
  -14.3624  -36.5938  -11.2949 C   0  0  0  0  0  0  0  0  0  0  0  0
  -14.8960  -35.5787  -12.0756 C   0  0  0  0  0  0  0  0  0  0  0  0
  -16.1827  -35.7004  -12.5712 C   0  0  0  0  0  0  0  0  0  0  0  0
  -16.8760  -36.8447  -12.2557 C   0  0  0  0  0  0  0  0  0  0  0  0
  -16.3325  -37.8124  -11.4961 N   0  0  0  0  0  0  0  0  0  0  0  0
  -14.1086  -34.3793  -12.3734 C   0  0  0  0  0  0  0  0  0  0  0  0
  -12.7965  -34.7358  -13.0073 C   0  0  0  0  0  0  0  0  0  0  0  0
  -14.8516  -33.5108  -13.3888 C   0  0  0  0  0  0  0  0  0  0  0  0
  -13.8631  -33.5070  -11.1682 C   0  0  0  0  0  0  0  0  0  0  0  0
  -22.4538  -41.4098  -12.3841 C   0  0  0  0  0  0  0  0  0  0  0  0
  -23.7329  -41.6004  -12.7379 N   0  0  0  0  0  0  0  0  0  0  0  0
  -23.7976  -41.7200  -14.0983 C   0  0  0  0  0  0  0  0  0  0  0  0
  -22.4943  -41.5901  -14.5211 C   0  0  0  0  0  0  0  0  0  0  0  0
  -21.7590  -41.4116  -13.4766 O   0  0  0  0  0  0  0  0  0  0  0  0
  2  1  1  1
  2  3  1  0
  3  4  1  0
  4  5  1  0
  5  6  1  0
  6  7  1  0
  7  8  1  0
  8  9  1  0
  9 10  1  0
 10 11  1  0
 11 12  1  0
 12 13  2  0
 13 14  1  0
 14 15  2  0
 15 16  1  0
 15 17  1  0
 17 18  2  0
 17 19  1  0
 19 20  1  0
 20 21  1  1
 20 22  1  0
 22 23  1  6
 22 24  1  0
 24 25  1  0
 25 26  1  0
 26 27  1  0
 27 28  1  0
 26 29  1  0
 29 30  2  0
 30 31  1  0
 31 32  2  0
 32 33  1  0
 33 34  2  0
 31 35  1  0
 35 36  1  0
 35 37  1  0
 35 38  1  0
 13 39  1  0
 39 40  2  0
 40 41  1  0
 41 42  2  0
 42 43  1  0
 16 11  2  0
 21  2  1  0
 28 26  1  0
 34 29  1  0
 43 39  1  0
M  END
$$$$
