
     RDKit          3D

 43 47  0  0  0  0  0  0  0  0999 V2000
  -14.9318  -37.9422  -10.5210 C   0  0  0  0  0  0  0  0  0  0  0  0
  -14.9414  -39.4541  -10.5289 C   0  0  2  0  0  0  0  0  0  0  0  0
  -14.2889  -39.8597  -11.8563 C   0  0  0  0  0  0  0  0  0  0  0  0
  -12.8918  -40.3753  -11.6048 C   0  0  0  0  0  0  0  0  0  0  0  0
  -12.5993  -41.6249  -12.4229 C   0  0  0  0  0  0  0  0  0  0  0  0
  -13.3705  -42.7370  -11.7496 C   0  0  0  0  0  0  0  0  0  0  0  0
  -13.1764  -44.0440  -12.4420 C   0  0  0  0  0  0  0  0  0  0  0  0
  -14.1415  -45.1047  -11.9613 C   0  0  0  0  0  0  0  0  0  0  0  0
  -13.6243  -45.8350  -10.7436 C   0  0  0  0  0  0  0  0  0  0  0  0
  -14.6202  -45.9599   -9.6969 N   0  0  0  0  0  0  0  0  0  0  0  0
  -15.8771  -45.3193   -9.4806 C   0  0  0  0  0  0  0  0  0  0  0  0
  -16.8217  -46.2974   -9.0668 C   0  0  0  0  0  0  0  0  0  0  0  0
  -18.1262  -46.0199   -8.7700 C   0  0  0  0  0  0  0  0  0  0  0  0
  -18.4778  -44.7079   -8.8978 C   0  0  0  0  0  0  0  0  0  0  0  0
  -17.5906  -43.6696   -9.3053 C   0  0  0  0  0  0  0  0  0  0  0  0
  -16.2807  -44.0051   -9.5946 C   0  0  0  0  0  0  0  0  0  0  0  0
  -18.3074  -42.3956   -9.3397 C   0  0  0  0  0  0  0  0  0  0  0  0
  -19.5544  -42.3980   -9.8043 O   0  0  0  0  0  0  0  0  0  0  0  0
  -17.9985  -41.0653   -8.9788 N   0  0  0  0  0  0  0  0  0  0  0  0
  -16.6827  -40.4362   -9.0455 C   0  0  1  0  0  0  0  0  0  0  0  0
  -16.3377  -40.0331  -10.4310 C   0  0  0  0  0  0  0  0  0  0  0  0
  -16.5237  -39.4409   -7.9614 C   0  0  2  0  0  0  0  0  0  0  0  0
  -15.7952  -40.1472   -6.9337 O   0  0  0  0  0  0  0  0  0  0  0  0
  -17.7201  -38.9278   -7.2637 C   0  0  0  0  0  0  0  0  0  0  0  0
  -18.3124  -37.7235   -7.7330 N   0  0  0  0  0  0  0  0  0  0  0  0
  -19.5407  -38.0115   -8.5096 C   0  0  0  0  0  0  0  0  0  0  0  0
  -19.3032  -38.4597   -9.9658 C   0  0  0  0  0  0  0  0  0  0  0  0
  -19.8732  -37.1258   -9.6511 C   0  0  0  0  0  0  0  0  0  0  0  0
  -20.6920  -38.6133   -7.7942 C   0  0  0  0  0  0  0  0  0  0  0  0
  -20.7493  -38.8016   -6.4299 C   0  0  0  0  0  0  0  0  0  0  0  0
  -21.8610  -39.3683   -5.8235 C   0  0  0  0  0  0  0  0  0  0  0  0
  -22.9406  -39.7557   -6.5982 C   0  0  0  0  0  0  0  0  0  0  0  0
  -22.8501  -39.5535   -7.9548 C   0  0  0  0  0  0  0  0  0  0  0  0
  -21.7589  -39.0016   -8.5150 N   0  0  0  0  0  0  0  0  0  0  0  0
  -21.8960  -39.5629   -4.3715 C   0  0  0  0  0  0  0  0  0  0  0  0
  -21.8911  -41.0211   -4.0198 C   0  0  0  0  0  0  0  0  0  0  0  0
  -20.6387  -38.9665   -3.7385 C   0  0  0  0  0  0  0  0  0  0  0  0
  -23.0679  -38.8894   -3.7031 C   0  0  0  0  0  0  0  0  0  0  0  0
  -19.0678  -47.0457   -8.3505 C   0  0  0  0  0  0  0  0  0  0  0  0
  -20.1371  -47.4208   -9.0670 N   0  0  0  0  0  0  0  0  0  0  0  0
  -20.8006  -48.4011   -8.3828 C   0  0  0  0  0  0  0  0  0  0  0  0
  -20.0666  -48.5795   -7.2323 C   0  0  0  0  0  0  0  0  0  0  0  0
  -19.0701  -47.7616   -7.2718 O   0  0  0  0  0  0  0  0  0  0  0  0
  2  1  1  6
  2  3  1  0
  3  4  1  0
  4  5  1  0
  5  6  1  0
  6  7  1  0
  7  8  1  0
  8  9  1  0
  9 10  1  0
 10 11  1  0
 11 12  1  0
 12 13  2  0
 13 14  1  0
 14 15  2  0
 15 16  1  0
 15 17  1  0
 17 18  2  0
 17 19  1  0
 19 20  1  0
 20 21  1  6
 20 22  1  0
 22 23  1  1
 22 24  1  0
 24 25  1  0
 25 26  1  0
 26 27  1  0
 27 28  1  0
 26 29  1  0
 29 30  2  0
 30 31  1  0
 31 32  2  0
 32 33  1  0
 33 34  2  0
 31 35  1  0
 35 36  1  0
 35 37  1  0
 35 38  1  0
 13 39  1  0
 39 40  2  0
 40 41  1  0
 41 42  2  0
 42 43  1  0
 16 11  2  0
 21  2  1  0
 28 26  1  0
 34 29  1  0
 43 39  1  0
M  END
$$$$
