
     RDKit          3D

 43 47  0  0  0  0  0  0  0  0999 V2000
  -18.6485  -36.7156   -5.9499 C   0  0  0  0  0  0  0  0  0  0  0  0
  -19.3570  -38.0130   -6.2672 C   0  0  2  0  0  0  0  0  0  0  0  0
  -20.6078  -38.0229   -5.3798 C   0  0  0  0  0  0  0  0  0  0  0  0
  -21.8327  -37.7383   -6.2165 C   0  0  0  0  0  0  0  0  0  0  0  0
  -22.9895  -38.6558   -5.8475 C   0  0  0  0  0  0  0  0  0  0  0  0
  -22.6339  -40.0057   -6.4272 C   0  0  0  0  0  0  0  0  0  0  0  0
  -23.6890  -41.0232   -6.1499 C   0  0  0  0  0  0  0  0  0  0  0  0
  -23.2385  -42.4301   -6.4746 C   0  0  0  0  0  0  0  0  0  0  0  0
  -23.4784  -42.7844   -7.9239 C   0  0  0  0  0  0  0  0  0  0  0  0
  -22.3273  -43.4065   -8.5492 N   0  0  0  0  0  0  0  0  0  0  0  0
  -20.9580  -43.5109   -8.1606 C   0  0  0  0  0  0  0  0  0  0  0  0
  -20.5123  -44.8366   -8.4137 C   0  0  0  0  0  0  0  0  0  0  0  0
  -19.2436  -45.2758   -8.1603 C   0  0  0  0  0  0  0  0  0  0  0  0
  -18.4050  -44.3370   -7.6346 C   0  0  0  0  0  0  0  0  0  0  0  0
  -18.7749  -42.9896   -7.3539 C   0  0  0  0  0  0  0  0  0  0  0  0
  -20.0721  -42.5970   -7.6287 C   0  0  0  0  0  0  0  0  0  0  0  0
  -17.6313  -42.2725   -6.7917 C   0  0  0  0  0  0  0  0  0  0  0  0
  -16.8561  -42.9222   -5.9270 O   0  0  0  0  0  0  0  0  0  0  0  0
  -17.0943  -40.9745   -6.9410 N   0  0  0  0  0  0  0  0  0  0  0  0
  -17.8486  -39.7541   -7.2111 C   0  0  1  0  0  0  0  0  0  0  0  0
  -18.5034  -39.2323   -5.9862 C   0  0  0  0  0  0  0  0  0  0  0  0
  -17.0521  -38.8194   -8.0373 C   0  0  2  0  0  0  0  0  0  0  0  0
  -17.9990  -38.2928   -8.9922 O   0  0  0  0  0  0  0  0  0  0  0  0
  -15.9536  -39.3432   -8.8741 C   0  0  0  0  0  0  0  0  0  0  0  0
  -15.3258  -40.5578   -8.4838 N   0  0  0  0  0  0  0  0  0  0  0  0
  -13.9803  -40.6715   -9.0931 C   0  0  0  0  0  0  0  0  0  0  0  0
  -13.2914  -42.0383   -8.9061 C   0  0  0  0  0  0  0  0  0  0  0  0
  -12.8129  -40.8279   -8.1926 C   0  0  0  0  0  0  0  0  0  0  0  0
  -13.7297  -39.9545  -10.3670 C   0  0  0  0  0  0  0  0  0  0  0  0
  -14.3612  -38.7880  -10.7417 C   0  0  0  0  0  0  0  0  0  0  0  0
  -14.0762  -38.1660  -11.9485 C   0  0  0  0  0  0  0  0  0  0  0  0
  -13.1382  -38.7225  -12.8009 C   0  0  0  0  0  0  0  0  0  0  0  0
  -12.5277  -39.8856  -12.3962 C   0  0  0  0  0  0  0  0  0  0  0  0
  -12.8245  -40.4663  -11.2199 N   0  0  0  0  0  0  0  0  0  0  0  0
  -14.7648  -36.9291  -12.3269 C   0  0  0  0  0  0  0  0  0  0  0  0
  -13.7895  -35.8098  -12.5419 C   0  0  0  0  0  0  0  0  0  0  0  0
  -15.4893  -37.1262  -13.6586 C   0  0  0  0  0  0  0  0  0  0  0  0
  -15.8135  -36.4970  -11.3333 C   0  0  0  0  0  0  0  0  0  0  0  0
  -18.8204  -46.6408   -8.4300 C   0  0  0  0  0  0  0  0  0  0  0  0
  -19.3711  -47.4258   -9.3670 N   0  0  0  0  0  0  0  0  0  0  0  0
  -18.7367  -48.6369   -9.3516 C   0  0  0  0  0  0  0  0  0  0  0  0
  -17.7894  -48.5204   -8.3600 C   0  0  0  0  0  0  0  0  0  0  0  0
  -17.8877  -47.3352   -7.8607 O   0  0  0  0  0  0  0  0  0  0  0  0
  2  1  1  1
  2  3  1  0
  3  4  1  0
  4  5  1  0
  5  6  1  0
  6  7  1  0
  7  8  1  0
  8  9  1  0
  9 10  1  0
 10 11  1  0
 11 12  1  0
 12 13  2  0
 13 14  1  0
 14 15  2  0
 15 16  1  0
 15 17  1  0
 17 18  2  0
 17 19  1  0
 19 20  1  0
 20 21  1  1
 20 22  1  0
 22 23  1  6
 22 24  1  0
 24 25  1  0
 25 26  1  0
 26 27  1  0
 27 28  1  0
 26 29  1  0
 29 30  2  0
 30 31  1  0
 31 32  2  0
 32 33  1  0
 33 34  2  0
 31 35  1  0
 35 36  1  0
 35 37  1  0
 35 38  1  0
 13 39  1  0
 39 40  2  0
 40 41  1  0
 41 42  2  0
 42 43  1  0
 16 11  2  0
 21  2  1  0
 28 26  1  0
 34 29  1  0
 43 39  1  0
M  END
$$$$
