
     RDKit          3D

 43 47  0  0  0  0  0  0  0  0999 V2000
  -19.2853  -36.3982   -7.0849 C   0  0  0  0  0  0  0  0  0  0  0  0
  -19.8255  -37.7895   -7.3266 C   0  0  2  0  0  0  0  0  0  0  0  0
  -21.2707  -37.7613   -6.8138 C   0  0  0  0  0  0  0  0  0  0  0  0
  -22.2288  -37.7357   -7.9811 C   0  0  0  0  0  0  0  0  0  0  0  0
  -23.4039  -38.6779   -7.7629 C   0  0  0  0  0  0  0  0  0  0  0  0
  -22.8477  -40.0690   -7.9632 C   0  0  0  0  0  0  0  0  0  0  0  0
  -23.8958  -41.1156   -7.7862 C   0  0  0  0  0  0  0  0  0  0  0  0
  -23.3162  -42.5105   -7.7095 C   0  0  0  0  0  0  0  0  0  0  0  0
  -23.1336  -43.1271   -9.0770 C   0  0  0  0  0  0  0  0  0  0  0  0
  -21.8304  -43.7398   -9.2487 N   0  0  0  0  0  0  0  0  0  0  0  0
  -20.6177  -43.6518   -8.5014 C   0  0  0  0  0  0  0  0  0  0  0  0
  -20.0657  -44.9554   -8.3735 C   0  0  0  0  0  0  0  0  0  0  0  0
  -18.8988  -45.2282   -7.7174 C   0  0  0  0  0  0  0  0  0  0  0  0
  -18.2762  -44.1414   -7.1767 C   0  0  0  0  0  0  0  0  0  0  0  0
  -18.7639  -42.8050   -7.2626 C   0  0  0  0  0  0  0  0  0  0  0  0
  -19.9504  -42.5842   -7.9376 C   0  0  0  0  0  0  0  0  0  0  0  0
  -17.8493  -41.9019   -6.5654 C   0  0  0  0  0  0  0  0  0  0  0  0
  -17.3159  -42.3217   -5.4208 O   0  0  0  0  0  0  0  0  0  0  0  0
  -17.3455  -40.6051   -6.8104 N   0  0  0  0  0  0  0  0  0  0  0  0
  -18.0458  -39.5221   -7.4945 C   0  0  1  0  0  0  0  0  0  0  0  0
  -19.0330  -38.8606   -6.6061 C   0  0  0  0  0  0  0  0  0  0  0  0
  -17.0917  -38.6736   -8.2434 C   0  0  2  0  0  0  0  0  0  0  0  0
  -17.9052  -38.0174   -9.2400 O   0  0  0  0  0  0  0  0  0  0  0  0
  -16.0115  -39.3091   -9.0249 C   0  0  0  0  0  0  0  0  0  0  0  0
  -15.5836  -40.6127   -8.6520 N   0  0  0  0  0  0  0  0  0  0  0  0
  -15.1085  -41.3667   -9.8354 C   0  0  0  0  0  0  0  0  0  0  0  0
  -15.9982  -42.5545  -10.2541 C   0  0  0  0  0  0  0  0  0  0  0  0
  -14.6625  -42.7675   -9.6426 C   0  0  0  0  0  0  0  0  0  0  0  0
  -14.4334  -40.6106  -10.9181 C   0  0  0  0  0  0  0  0  0  0  0  0
  -13.9524  -39.3254  -10.7878 C   0  0  0  0  0  0  0  0  0  0  0  0
  -13.3263  -38.6765  -11.8420 C   0  0  0  0  0  0  0  0  0  0  0  0
  -13.1771  -39.3269  -13.0548 C   0  0  0  0  0  0  0  0  0  0  0  0
  -13.6681  -40.6072  -13.1500 C   0  0  0  0  0  0  0  0  0  0  0  0
  -14.2710  -41.2112  -12.1104 N   0  0  0  0  0  0  0  0  0  0  0  0
  -12.8279  -37.3080  -11.6804 C   0  0  0  0  0  0  0  0  0  0  0  0
  -11.4755  -37.2967  -11.0316 C   0  0  0  0  0  0  0  0  0  0  0  0
  -12.6492  -36.6565  -13.0519 C   0  0  0  0  0  0  0  0  0  0  0  0
  -13.7638  -36.4152  -10.9054 C   0  0  0  0  0  0  0  0  0  0  0  0
  -18.3622  -46.5751   -7.6037 C   0  0  0  0  0  0  0  0  0  0  0  0
  -17.6777  -47.0228   -6.5414 N   0  0  0  0  0  0  0  0  0  0  0  0
  -17.3242  -48.3245   -6.7654 C   0  0  0  0  0  0  0  0  0  0  0  0
  -17.8356  -48.6143   -8.0099 C   0  0  0  0  0  0  0  0  0  0  0  0
  -18.4288  -47.5556   -8.4466 O   0  0  0  0  0  0  0  0  0  0  0  0
  2  1  1  1
  2  3  1  0
  3  4  1  0
  4  5  1  0
  5  6  1  0
  6  7  1  0
  7  8  1  0
  8  9  1  0
  9 10  1  0
 10 11  1  0
 11 12  1  0
 12 13  2  0
 13 14  1  0
 14 15  2  0
 15 16  1  0
 15 17  1  0
 17 18  2  0
 17 19  1  0
 19 20  1  0
 20 21  1  1
 20 22  1  0
 22 23  1  6
 22 24  1  0
 24 25  1  0
 25 26  1  0
 26 27  1  0
 27 28  1  0
 26 29  1  0
 29 30  2  0
 30 31  1  0
 31 32  2  0
 32 33  1  0
 33 34  2  0
 31 35  1  0
 35 36  1  0
 35 37  1  0
 35 38  1  0
 13 39  1  0
 39 40  2  0
 40 41  1  0
 41 42  2  0
 42 43  1  0
 16 11  2  0
 21  2  1  0
 28 26  1  0
 34 29  1  0
 43 39  1  0
M  END
$$$$
