
     RDKit          3D

 43 47  0  0  0  0  0  0  0  0999 V2000
  -19.0829  -37.2960   -5.2144 C   0  0  0  0  0  0  0  0  0  0  0  0
  -19.5768  -38.5263   -5.9412 C   0  0  2  0  0  0  0  0  0  0  0  0
  -20.9388  -38.8511   -5.3155 C   0  0  0  0  0  0  0  0  0  0  0  0
  -22.0459  -38.4652   -6.2677 C   0  0  0  0  0  0  0  0  0  0  0  0
  -23.1295  -39.5321   -6.3298 C   0  0  0  0  0  0  0  0  0  0  0  0
  -22.5330  -40.6662   -7.1315 C   0  0  0  0  0  0  0  0  0  0  0  0
  -23.4910  -41.7992   -7.2864 C   0  0  0  0  0  0  0  0  0  0  0  0
  -22.8337  -43.0437   -7.8402 C   0  0  0  0  0  0  0  0  0  0  0  0
  -22.8053  -43.0481   -9.3512 C   0  0  0  0  0  0  0  0  0  0  0  0
  -21.5069  -43.4062   -9.8887 N   0  0  0  0  0  0  0  0  0  0  0  0
  -20.2106  -43.4965   -9.2984 C   0  0  0  0  0  0  0  0  0  0  0  0
  -19.5786  -44.6806   -9.7660 C   0  0  0  0  0  0  0  0  0  0  0  0
  -18.3209  -45.0690   -9.3998 C   0  0  0  0  0  0  0  0  0  0  0  0
  -17.6890  -44.2263   -8.5328 C   0  0  0  0  0  0  0  0  0  0  0  0
  -18.2536  -43.0222   -8.0203 C   0  0  0  0  0  0  0  0  0  0  0  0
  -19.5304  -42.6758   -8.4228 C   0  0  0  0  0  0  0  0  0  0  0  0
  -17.3020  -42.3790   -7.1154 C   0  0  0  0  0  0  0  0  0  0  0  0
  -16.5974  -43.1595   -6.2997 O   0  0  0  0  0  0  0  0  0  0  0  0
  -16.9050  -41.0467   -6.8653 N   0  0  0  0  0  0  0  0  0  0  0  0
  -17.7474  -39.8596   -6.9772 C   0  0  1  0  0  0  0  0  0  0  0  0
  -18.6388  -39.7075   -5.8010 C   0  0  0  0  0  0  0  0  0  0  0  0
  -16.9492  -38.6915   -7.4126 C   0  0  2  0  0  0  0  0  0  0  0  0
  -17.7591  -38.0671   -8.4324 O   0  0  0  0  0  0  0  0  0  0  0  0
  -15.6455  -38.9064   -8.0725 C   0  0  0  0  0  0  0  0  0  0  0  0
  -14.9009  -40.0701   -7.7365 N   0  0  0  0  0  0  0  0  0  0  0  0
  -14.1516  -40.5703   -8.9125 C   0  0  0  0  0  0  0  0  0  0  0  0
  -13.8355  -42.0794   -8.8925 C   0  0  0  0  0  0  0  0  0  0  0  0
  -12.7690  -41.0641   -8.7057 C   0  0  0  0  0  0  0  0  0  0  0  0
  -14.4334  -39.9540  -10.2316 C   0  0  0  0  0  0  0  0  0  0  0  0
  -15.0346  -38.7258  -10.4052 C   0  0  0  0  0  0  0  0  0  0  0  0
  -15.2658  -38.2054  -11.6702 C   0  0  0  0  0  0  0  0  0  0  0  0
  -14.8874  -38.9289  -12.7879 C   0  0  0  0  0  0  0  0  0  0  0  0
  -14.2907  -40.1494  -12.5787 C   0  0  0  0  0  0  0  0  0  0  0  0
  -14.0794  -40.6287  -11.3399 N   0  0  0  0  0  0  0  0  0  0  0  0
  -15.9113  -36.8994  -11.8290 C   0  0  0  0  0  0  0  0  0  0  0  0
  -16.9086  -36.6512  -10.7363 C   0  0  0  0  0  0  0  0  0  0  0  0
  -14.8673  -35.7884  -11.7150 C   0  0  0  0  0  0  0  0  0  0  0  0
  -16.5791  -36.7181  -13.1687 C   0  0  0  0  0  0  0  0  0  0  0  0
  -17.7037  -46.2887   -9.8963 C   0  0  0  0  0  0  0  0  0  0  0  0
  -17.8388  -46.7408  -11.1512 N   0  0  0  0  0  0  0  0  0  0  0  0
  -17.1314  -47.9042  -11.2759 C   0  0  0  0  0  0  0  0  0  0  0  0
  -16.5772  -48.1089  -10.0328 C   0  0  0  0  0  0  0  0  0  0  0  0
  -16.9470  -47.1344   -9.2731 O   0  0  0  0  0  0  0  0  0  0  0  0
  2  1  1  1
  2  3  1  0
  3  4  1  0
  4  5  1  0
  5  6  1  0
  6  7  1  0
  7  8  1  0
  8  9  1  0
  9 10  1  0
 10 11  1  0
 11 12  1  0
 12 13  2  0
 13 14  1  0
 14 15  2  0
 15 16  1  0
 15 17  1  0
 17 18  2  0
 17 19  1  0
 19 20  1  0
 20 21  1  1
 20 22  1  0
 22 23  1  6
 22 24  1  0
 24 25  1  0
 25 26  1  0
 26 27  1  0
 27 28  1  0
 26 29  1  0
 29 30  2  0
 30 31  1  0
 31 32  2  0
 32 33  1  0
 33 34  2  0
 31 35  1  0
 35 36  1  0
 35 37  1  0
 35 38  1  0
 13 39  1  0
 39 40  2  0
 40 41  1  0
 41 42  2  0
 42 43  1  0
 16 11  2  0
 21  2  1  0
 28 26  1  0
 34 29  1  0
 43 39  1  0
M  END
$$$$
