
     RDKit          3D

 43 47  0  0  0  0  0  0  0  0999 V2000
  -18.8994  -37.5606   -5.5732 C   0  0  0  0  0  0  0  0  0  0  0  0
  -19.4663  -38.6409   -6.4661 C   0  0  2  0  0  0  0  0  0  0  0  0
  -20.8684  -38.9311   -5.9165 C   0  0  0  0  0  0  0  0  0  0  0  0
  -21.9116  -38.3347   -6.8314 C   0  0  0  0  0  0  0  0  0  0  0  0
  -23.0737  -39.2915   -7.0559 C   0  0  0  0  0  0  0  0  0  0  0  0
  -22.5442  -40.3568   -7.9883 C   0  0  0  0  0  0  0  0  0  0  0  0
  -23.5834  -41.3772   -8.3109 C   0  0  0  0  0  0  0  0  0  0  0  0
  -23.0098  -42.5889   -9.0111 C   0  0  0  0  0  0  0  0  0  0  0  0
  -22.9353  -42.3989  -10.5085 C   0  0  0  0  0  0  0  0  0  0  0  0
  -21.6533  -42.7897  -11.0623 N   0  0  0  0  0  0  0  0  0  0  0  0
  -20.3869  -43.0626  -10.4632 C   0  0  0  0  0  0  0  0  0  0  0  0
  -19.8363  -44.2237  -11.0704 C   0  0  0  0  0  0  0  0  0  0  0  0
  -18.6251  -44.7588  -10.7335 C   0  0  0  0  0  0  0  0  0  0  0  0
  -17.9557  -44.0910   -9.7501 C   0  0  0  0  0  0  0  0  0  0  0  0
  -18.4389  -42.9215   -9.0944 C   0  0  0  0  0  0  0  0  0  0  0  0
  -19.6714  -42.4216   -9.4731 C   0  0  0  0  0  0  0  0  0  0  0  0
  -17.4679  -42.4822   -8.0933 C   0  0  0  0  0  0  0  0  0  0  0  0
  -16.8526  -43.4175   -7.3739 O   0  0  0  0  0  0  0  0  0  0  0  0
  -16.9747  -41.2309   -7.6613 N   0  0  0  0  0  0  0  0  0  0  0  0
  -17.7168  -39.9741   -7.6322 C   0  0  1  0  0  0  0  0  0  0  0  0
  -18.6293  -39.9035   -6.4644 C   0  0  0  0  0  0  0  0  0  0  0  0
  -16.8159  -38.8290   -7.8931 C   0  0  2  0  0  0  0  0  0  0  0  0
  -17.5956  -37.9456   -8.7283 O   0  0  0  0  0  0  0  0  0  0  0  0
  -15.5721  -39.0421   -8.6606 C   0  0  0  0  0  0  0  0  0  0  0  0
  -14.5136  -39.7658   -8.0462 N   0  0  0  0  0  0  0  0  0  0  0  0
  -13.4696  -40.1108   -9.0390 C   0  0  0  0  0  0  0  0  0  0  0  0
  -12.5817  -41.3140   -8.6625 C   0  0  0  0  0  0  0  0  0  0  0  0
  -12.0490  -39.9286   -8.6557 C   0  0  0  0  0  0  0  0  0  0  0  0
  -13.7863  -39.9253  -10.4759 C   0  0  0  0  0  0  0  0  0  0  0  0
  -12.9665  -40.3194  -11.5116 C   0  0  0  0  0  0  0  0  0  0  0  0
  -13.3263  -40.1185  -12.8362 C   0  0  0  0  0  0  0  0  0  0  0  0
  -14.5335  -39.5098  -13.1331 C   0  0  0  0  0  0  0  0  0  0  0  0
  -15.3264  -39.1296  -12.0766 C   0  0  0  0  0  0  0  0  0  0  0  0
  -14.9511  -39.3372  -10.8018 N   0  0  0  0  0  0  0  0  0  0  0  0
  -12.4352  -40.5417  -13.9198 C   0  0  0  0  0  0  0  0  0  0  0  0
  -12.9902  -40.1574  -15.2594 C   0  0  0  0  0  0  0  0  0  0  0  0
  -11.0901  -39.8262  -13.7935 C   0  0  0  0  0  0  0  0  0  0  0  0
  -12.1328  -42.0189  -13.9069 C   0  0  0  0  0  0  0  0  0  0  0  0
  -18.0912  -45.9501  -11.3743 C   0  0  0  0  0  0  0  0  0  0  0  0
  -18.0622  -46.1391  -12.7013 N   0  0  0  0  0  0  0  0  0  0  0  0
  -17.4978  -47.3578  -12.9576 C   0  0  0  0  0  0  0  0  0  0  0  0
  -17.1991  -47.8705  -11.7158 C   0  0  0  0  0  0  0  0  0  0  0  0
  -17.5684  -47.0043  -10.8345 O   0  0  0  0  0  0  0  0  0  0  0  0
  2  1  1  1
  2  3  1  0
  3  4  1  0
  4  5  1  0
  5  6  1  0
  6  7  1  0
  7  8  1  0
  8  9  1  0
  9 10  1  0
 10 11  1  0
 11 12  1  0
 12 13  2  0
 13 14  1  0
 14 15  2  0
 15 16  1  0
 15 17  1  0
 17 18  2  0
 17 19  1  0
 19 20  1  0
 20 21  1  1
 20 22  1  0
 22 23  1  6
 22 24  1  0
 24 25  1  0
 25 26  1  0
 26 27  1  0
 27 28  1  0
 26 29  1  0
 29 30  2  0
 30 31  1  0
 31 32  2  0
 32 33  1  0
 33 34  2  0
 31 35  1  0
 35 36  1  0
 35 37  1  0
 35 38  1  0
 13 39  1  0
 39 40  2  0
 40 41  1  0
 41 42  2  0
 42 43  1  0
 16 11  2  0
 21  2  1  0
 28 26  1  0
 34 29  1  0
 43 39  1  0
M  END
$$$$
