
     RDKit          3D

 43 47  0  0  0  0  0  0  0  0999 V2000
  -18.0451  -38.3803   -4.1497 C   0  0  0  0  0  0  0  0  0  0  0  0
  -18.8543  -39.3672   -4.9602 C   0  0  2  0  0  0  0  0  0  0  0  0
  -20.0676  -39.7140   -4.0885 C   0  0  0  0  0  0  0  0  0  0  0  0
  -21.3009  -39.0314   -4.6310 C   0  0  0  0  0  0  0  0  0  0  0  0
  -22.5040  -39.9635   -4.6303 C   0  0  0  0  0  0  0  0  0  0  0  0
  -22.2664  -40.9292   -5.7685 C   0  0  0  0  0  0  0  0  0  0  0  0
  -23.3786  -41.9145   -5.9007 C   0  0  0  0  0  0  0  0  0  0  0  0
  -23.0405  -43.0489   -6.8422 C   0  0  0  0  0  0  0  0  0  0  0  0
  -23.3603  -42.7101   -8.2797 C   0  0  0  0  0  0  0  0  0  0  0  0
  -22.2805  -43.0408   -9.1896 N   0  0  0  0  0  0  0  0  0  0  0  0
  -20.9078  -43.3694   -8.9778 C   0  0  0  0  0  0  0  0  0  0  0  0
  -20.5661  -44.4628   -9.8191 C   0  0  0  0  0  0  0  0  0  0  0  0
  -19.3224  -45.0262   -9.8697 C   0  0  0  0  0  0  0  0  0  0  0  0
  -18.4005  -44.4586   -9.0397 C   0  0  0  0  0  0  0  0  0  0  0  0
  -18.6642  -43.3615   -8.1690 C   0  0  0  0  0  0  0  0  0  0  0  0
  -19.9403  -42.8290   -8.1563 C   0  0  0  0  0  0  0  0  0  0  0  0
  -17.4524  -43.0223   -7.4243 C   0  0  0  0  0  0  0  0  0  0  0  0
  -16.6917  -44.0235   -6.9885 O   0  0  0  0  0  0  0  0  0  0  0  0
  -16.8320  -41.8194   -7.0197 N   0  0  0  0  0  0  0  0  0  0  0  0
  -17.5090  -40.5734   -6.6728 C   0  0  1  0  0  0  0  0  0  0  0  0
  -18.0779  -40.6218   -5.3034 C   0  0  0  0  0  0  0  0  0  0  0  0
  -16.6815  -39.4060   -7.0515 C   0  0  2  0  0  0  0  0  0  0  0  0
  -17.4834  -38.7018   -8.0246 O   0  0  0  0  0  0  0  0  0  0  0  0
  -15.3917  -39.6207   -7.7384 C   0  0  0  0  0  0  0  0  0  0  0  0
  -15.1141  -38.8626   -8.9088 N   0  0  0  0  0  0  0  0  0  0  0  0
  -13.9024  -39.3750   -9.5898 C   0  0  0  0  0  0  0  0  0  0  0  0
  -12.6180  -39.3611   -8.7366 C   0  0  0  0  0  0  0  0  0  0  0  0
  -12.8010  -38.4236   -9.8727 C   0  0  0  0  0  0  0  0  0  0  0  0
  -14.0642  -40.4906  -10.5536 C   0  0  0  0  0  0  0  0  0  0  0  0
  -15.0372  -40.5429  -11.5284 C   0  0  0  0  0  0  0  0  0  0  0  0
  -15.1299  -41.6169  -12.4017 C   0  0  0  0  0  0  0  0  0  0  0  0
  -14.2293  -42.6629  -12.2986 C   0  0  0  0  0  0  0  0  0  0  0  0
  -13.2721  -42.5784  -11.3157 C   0  0  0  0  0  0  0  0  0  0  0  0
  -13.2067  -41.5243  -10.4829 N   0  0  0  0  0  0  0  0  0  0  0  0
  -16.1766  -41.6519  -13.4266 C   0  0  0  0  0  0  0  0  0  0  0  0
  -17.2557  -42.6297  -13.0662 C   0  0  0  0  0  0  0  0  0  0  0  0
  -16.8537  -40.2846  -13.5225 C   0  0  0  0  0  0  0  0  0  0  0  0
  -15.6561  -41.9652  -14.8067 C   0  0  0  0  0  0  0  0  0  0  0  0
  -19.0064  -46.1464  -10.7417 C   0  0  0  0  0  0  0  0  0  0  0  0
  -19.6065  -46.3732  -11.9190 N   0  0  0  0  0  0  0  0  0  0  0  0
  -19.0713  -47.5031  -12.4725 C   0  0  0  0  0  0  0  0  0  0  0  0
  -18.1300  -47.9244  -11.5610 C   0  0  0  0  0  0  0  0  0  0  0  0
  -18.1394  -47.0933  -10.5748 O   0  0  0  0  0  0  0  0  0  0  0  0
  2  1  1  1
  2  3  1  0
  3  4  1  0
  4  5  1  0
  5  6  1  0
  6  7  1  0
  7  8  1  0
  8  9  1  0
  9 10  1  0
 10 11  1  0
 11 12  1  0
 12 13  2  0
 13 14  1  0
 14 15  2  0
 15 16  1  0
 15 17  1  0
 17 18  2  0
 17 19  1  0
 19 20  1  0
 20 21  1  1
 20 22  1  0
 22 23  1  6
 22 24  1  0
 24 25  1  0
 25 26  1  0
 26 27  1  0
 27 28  1  0
 26 29  1  0
 29 30  2  0
 30 31  1  0
 31 32  2  0
 32 33  1  0
 33 34  2  0
 31 35  1  0
 35 36  1  0
 35 37  1  0
 35 38  1  0
 13 39  1  0
 39 40  2  0
 40 41  1  0
 41 42  2  0
 42 43  1  0
 16 11  2  0
 21  2  1  0
 28 26  1  0
 34 29  1  0
 43 39  1  0
M  END
$$$$
