
     RDKit          3D

 43 47  0  0  0  0  0  0  0  0999 V2000
  -18.8517  -36.5942   -7.1824 C   0  0  0  0  0  0  0  0  0  0  0  0
  -19.5705  -37.9185   -7.0580 C   0  0  2  0  0  0  0  0  0  0  0  0
  -20.5463  -37.7451   -5.8875 C   0  0  0  0  0  0  0  0  0  0  0  0
  -21.9561  -37.6060   -6.4111 C   0  0  0  0  0  0  0  0  0  0  0  0
  -22.9429  -38.4226   -5.5890 C   0  0  0  0  0  0  0  0  0  0  0  0
  -22.7013  -39.8618   -5.9825 C   0  0  0  0  0  0  0  0  0  0  0  0
  -23.6101  -40.7951   -5.2555 C   0  0  0  0  0  0  0  0  0  0  0  0
  -23.2085  -42.2438   -5.4218 C   0  0  0  0  0  0  0  0  0  0  0  0
  -23.8040  -42.8603   -6.6664 C   0  0  0  0  0  0  0  0  0  0  0  0
  -22.8332  -43.6040   -7.4458 N   0  0  0  0  0  0  0  0  0  0  0  0
  -21.4071  -43.6519   -7.4177 C   0  0  0  0  0  0  0  0  0  0  0  0
  -20.9945  -45.0074   -7.5299 C   0  0  0  0  0  0  0  0  0  0  0  0
  -19.6884  -45.4083   -7.5417 C   0  0  0  0  0  0  0  0  0  0  0  0
  -18.7768  -44.3989   -7.4369 C   0  0  0  0  0  0  0  0  0  0  0  0
  -19.1099  -43.0179   -7.3223 C   0  0  0  0  0  0  0  0  0  0  0  0
  -20.4473  -42.6665   -7.3147 C   0  0  0  0  0  0  0  0  0  0  0  0
  -17.8864  -42.2235   -7.2220 C   0  0  0  0  0  0  0  0  0  0  0  0
  -16.8897  -42.7099   -6.4865 O   0  0  0  0  0  0  0  0  0  0  0  0
  -17.4544  -40.9838   -7.7436 N   0  0  0  0  0  0  0  0  0  0  0  0
  -18.2970  -39.8258   -8.0266 C   0  0  1  0  0  0  0  0  0  0  0  0
  -18.6293  -39.0749   -6.7908 C   0  0  0  0  0  0  0  0  0  0  0  0
  -17.7775  -39.0732   -9.1905 C   0  0  2  0  0  0  0  0  0  0  0  0
  -18.3164  -39.7706  -10.3346 O   0  0  0  0  0  0  0  0  0  0  0  0
  -16.3229  -39.0394   -9.4444 C   0  0  0  0  0  0  0  0  0  0  0  0
  -15.4887  -39.9345   -8.7202 N   0  0  0  0  0  0  0  0  0  0  0  0
  -14.0741  -39.7824   -9.1331 C   0  0  0  0  0  0  0  0  0  0  0  0
  -13.3970  -41.0740   -9.6340 C   0  0  0  0  0  0  0  0  0  0  0  0
  -13.0314  -40.4656   -8.3304 C   0  0  0  0  0  0  0  0  0  0  0  0
  -13.6702  -38.5104   -9.7797 C   0  0  0  0  0  0  0  0  0  0  0  0
  -14.3200  -37.9419  -10.8542 C   0  0  0  0  0  0  0  0  0  0  0  0
  -13.8906  -36.7453  -11.4095 C   0  0  0  0  0  0  0  0  0  0  0  0
  -12.7862  -36.1015  -10.8787 C   0  0  0  0  0  0  0  0  0  0  0  0
  -12.1622  -36.6959   -9.8078 C   0  0  0  0  0  0  0  0  0  0  0  0
  -12.6013  -37.8571   -9.2904 N   0  0  0  0  0  0  0  0  0  0  0  0
  -14.5952  -36.1636  -12.5551 C   0  0  0  0  0  0  0  0  0  0  0  0
  -13.6577  -35.9172  -13.7000 C   0  0  0  0  0  0  0  0  0  0  0  0
  -15.6481  -37.1458  -13.0689 C   0  0  0  0  0  0  0  0  0  0  0  0
  -15.3297  -34.8888  -12.2246 C   0  0  0  0  0  0  0  0  0  0  0  0
  -19.3004  -46.8052   -7.6565 C   0  0  0  0  0  0  0  0  0  0  0  0
  -18.0425  -47.2482   -7.5188 N   0  0  0  0  0  0  0  0  0  0  0  0
  -18.0354  -48.6050   -7.6869 C   0  0  0  0  0  0  0  0  0  0  0  0
  -19.3501  -48.9321   -7.9294 C   0  0  0  0  0  0  0  0  0  0  0  0
  -20.0378  -47.8414   -7.8989 O   0  0  0  0  0  0  0  0  0  0  0  0
  2  1  1  1
  2  3  1  0
  3  4  1  0
  4  5  1  0
  5  6  1  0
  6  7  1  0
  7  8  1  0
  8  9  1  0
  9 10  1  0
 10 11  1  0
 11 12  1  0
 12 13  2  0
 13 14  1  0
 14 15  2  0
 15 16  1  0
 15 17  1  0
 17 18  2  0
 17 19  1  0
 19 20  1  0
 20 21  1  1
 20 22  1  0
 22 23  1  6
 22 24  1  0
 24 25  1  0
 25 26  1  0
 26 27  1  0
 27 28  1  0
 26 29  1  0
 29 30  2  0
 30 31  1  0
 31 32  2  0
 32 33  1  0
 33 34  2  0
 31 35  1  0
 35 36  1  0
 35 37  1  0
 35 38  1  0
 13 39  1  0
 39 40  2  0
 40 41  1  0
 41 42  2  0
 42 43  1  0
 16 11  2  0
 21  2  1  0
 28 26  1  0
 34 29  1  0
 43 39  1  0
M  END
$$$$
