
     RDKit          3D

 43 47  0  0  0  0  0  0  0  0999 V2000
  -19.4701  -36.8299   -6.9347 C   0  0  0  0  0  0  0  0  0  0  0  0
  -19.9743  -38.2552   -6.9213 C   0  0  2  0  0  0  0  0  0  0  0  0
  -21.2459  -38.2305   -6.0641 C   0  0  0  0  0  0  0  0  0  0  0  0
  -22.4639  -38.3441   -6.9499 C   0  0  0  0  0  0  0  0  0  0  0  0
  -23.4930  -39.3027   -6.3682 C   0  0  0  0  0  0  0  0  0  0  0  0
  -22.9267  -40.6862   -6.5916 C   0  0  0  0  0  0  0  0  0  0  0  0
  -23.8373  -41.7481   -6.0734 C   0  0  0  0  0  0  0  0  0  0  0  0
  -23.1793  -43.1094   -6.0354 C   0  0  0  0  0  0  0  0  0  0  0  0
  -23.3079  -43.8408   -7.3515 C   0  0  0  0  0  0  0  0  0  0  0  0
  -22.0560  -44.4212   -7.7975 N   0  0  0  0  0  0  0  0  0  0  0  0
  -20.7025  -44.2239   -7.3901 C   0  0  0  0  0  0  0  0  0  0  0  0
  -20.0637  -45.4906   -7.3030 C   0  0  0  0  0  0  0  0  0  0  0  0
  -18.7568  -45.6622   -6.9433 C   0  0  0  0  0  0  0  0  0  0  0  0
  -18.0815  -44.5099   -6.6651 C   0  0  0  0  0  0  0  0  0  0  0  0
  -18.6497  -43.2045   -6.7305 C   0  0  0  0  0  0  0  0  0  0  0  0
  -19.9772  -43.0870   -7.0994 C   0  0  0  0  0  0  0  0  0  0  0  0
  -17.6428  -42.2108   -6.3607 C   0  0  0  0  0  0  0  0  0  0  0  0
  -16.8188  -42.5063   -5.3583 O   0  0  0  0  0  0  0  0  0  0  0  0
  -17.2895  -40.9249   -6.8268 N   0  0  0  0  0  0  0  0  0  0  0  0
  -18.1977  -39.9334   -7.3955 C   0  0  1  0  0  0  0  0  0  0  0  0
  -18.9686  -39.2285   -6.3418 C   0  0  0  0  0  0  0  0  0  0  0  0
  -17.5089  -39.1239   -8.4257 C   0  0  2  0  0  0  0  0  0  0  0  0
  -18.1189  -39.5355   -9.6684 O   0  0  0  0  0  0  0  0  0  0  0  0
  -16.0628  -39.3168   -8.6556 C   0  0  0  0  0  0  0  0  0  0  0  0
  -15.6542  -40.1414   -9.7395 N   0  0  0  0  0  0  0  0  0  0  0  0
  -14.1896  -40.0513   -9.9432 C   0  0  0  0  0  0  0  0  0  0  0  0
  -13.4843  -41.3943  -10.2199 C   0  0  0  0  0  0  0  0  0  0  0  0
  -13.3008  -40.6759   -8.9341 C   0  0  0  0  0  0  0  0  0  0  0  0
  -13.6544  -38.8504  -10.6294 C   0  0  0  0  0  0  0  0  0  0  0  0
  -14.4325  -37.8369  -11.1463 C   0  0  0  0  0  0  0  0  0  0  0  0
  -13.8656  -36.7373  -11.7740 C   0  0  0  0  0  0  0  0  0  0  0  0
  -12.4890  -36.6481  -11.8877 C   0  0  0  0  0  0  0  0  0  0  0  0
  -11.7433  -37.6759  -11.3614 C   0  0  0  0  0  0  0  0  0  0  0  0
  -12.3211  -38.7301  -10.7582 N   0  0  0  0  0  0  0  0  0  0  0  0
  -14.7144  -35.6750  -12.3202 C   0  0  0  0  0  0  0  0  0  0  0  0
  -15.5375  -35.0314  -11.2439 C   0  0  0  0  0  0  0  0  0  0  0  0
  -13.8420  -34.5671  -12.9110 C   0  0  0  0  0  0  0  0  0  0  0  0
  -15.6193  -36.1411  -13.4328 C   0  0  0  0  0  0  0  0  0  0  0  0
  -18.1339  -46.9738   -6.8625 C   0  0  0  0  0  0  0  0  0  0  0  0
  -17.0007  -47.3066   -7.4969 N   0  0  0  0  0  0  0  0  0  0  0  0
  -16.7005  -48.6078   -7.2033 C   0  0  0  0  0  0  0  0  0  0  0  0
  -17.7137  -49.0180   -6.3670 C   0  0  0  0  0  0  0  0  0  0  0  0
  -18.5173  -48.0220   -6.2063 O   0  0  0  0  0  0  0  0  0  0  0  0
  2  1  1  1
  2  3  1  0
  3  4  1  0
  4  5  1  0
  5  6  1  0
  6  7  1  0
  7  8  1  0
  8  9  1  0
  9 10  1  0
 10 11  1  0
 11 12  1  0
 12 13  2  0
 13 14  1  0
 14 15  2  0
 15 16  1  0
 15 17  1  0
 17 18  2  0
 17 19  1  0
 19 20  1  0
 20 21  1  1
 20 22  1  0
 22 23  1  6
 22 24  1  0
 24 25  1  0
 25 26  1  0
 26 27  1  0
 27 28  1  0
 26 29  1  0
 29 30  2  0
 30 31  1  0
 31 32  2  0
 32 33  1  0
 33 34  2  0
 31 35  1  0
 35 36  1  0
 35 37  1  0
 35 38  1  0
 13 39  1  0
 39 40  2  0
 40 41  1  0
 41 42  2  0
 42 43  1  0
 16 11  2  0
 21  2  1  0
 28 26  1  0
 34 29  1  0
 43 39  1  0
M  END
$$$$
