
     RDKit          3D

 43 47  0  0  0  0  0  0  0  0999 V2000
  -19.1959  -37.2595   -5.8720 C   0  0  0  0  0  0  0  0  0  0  0  0
  -19.6708  -38.6666   -6.1558 C   0  0  2  0  0  0  0  0  0  0  0  0
  -20.2172  -39.1902   -4.8219 C   0  0  0  0  0  0  0  0  0  0  0  0
  -21.7268  -39.2159   -4.8606 C   0  0  0  0  0  0  0  0  0  0  0  0
  -22.2817  -40.4965   -4.2534 C   0  0  0  0  0  0  0  0  0  0  0  0
  -22.0153  -41.5762   -5.2771 C   0  0  0  0  0  0  0  0  0  0  0  0
  -22.5149  -42.9063   -4.8224 C   0  0  0  0  0  0  0  0  0  0  0  0
  -22.0224  -44.0403   -5.6937 C   0  0  0  0  0  0  0  0  0  0  0  0
  -22.9189  -44.2711   -6.8882 C   0  0  0  0  0  0  0  0  0  0  0  0
  -22.1801  -44.4052   -8.1288 N   0  0  0  0  0  0  0  0  0  0  0  0
  -20.8301  -44.1082   -8.4840 C   0  0  0  0  0  0  0  0  0  0  0  0
  -20.3205  -45.1764   -9.2709 C   0  0  0  0  0  0  0  0  0  0  0  0
  -19.0542  -45.2095   -9.7830 C   0  0  0  0  0  0  0  0  0  0  0  0
  -18.2856  -44.1225   -9.4851 C   0  0  0  0  0  0  0  0  0  0  0  0
  -18.7231  -43.0128   -8.7051 C   0  0  0  0  0  0  0  0  0  0  0  0
  -20.0142  -43.0300   -8.2102 C   0  0  0  0  0  0  0  0  0  0  0  0
  -17.6386  -42.0396   -8.5827 C   0  0  0  0  0  0  0  0  0  0  0  0
  -16.4044  -42.5053   -8.4067 O   0  0  0  0  0  0  0  0  0  0  0  0
  -17.5537  -40.6298   -8.6070 N   0  0  0  0  0  0  0  0  0  0  0  0
  -18.5734  -39.6955   -8.1394 C   0  0  1  0  0  0  0  0  0  0  0  0
  -18.5642  -39.5692   -6.6612 C   0  0  0  0  0  0  0  0  0  0  0  0
  -18.5615  -38.4588   -8.9527 C   0  0  2  0  0  0  0  0  0  0  0  0
  -19.8071  -38.5007   -9.6825 O   0  0  0  0  0  0  0  0  0  0  0  0
  -17.5369  -38.2885  -10.0027 C   0  0  0  0  0  0  0  0  0  0  0  0
  -16.2054  -38.7005   -9.7219 N   0  0  0  0  0  0  0  0  0  0  0  0
  -15.5362  -39.1843  -10.9518 C   0  0  0  0  0  0  0  0  0  0  0  0
  -14.8564  -38.0903  -11.7996 C   0  0  0  0  0  0  0  0  0  0  0  0
  -16.0919  -38.7702  -12.2625 C   0  0  0  0  0  0  0  0  0  0  0  0
  -14.8825  -40.5150  -10.9117 C   0  0  0  0  0  0  0  0  0  0  0  0
  -13.9590  -40.9010   -9.9640 C   0  0  0  0  0  0  0  0  0  0  0  0
  -13.3879  -42.1651   -9.9826 C   0  0  0  0  0  0  0  0  0  0  0  0
  -13.7481  -43.0647  -10.9711 C   0  0  0  0  0  0  0  0  0  0  0  0
  -14.6714  -42.6471  -11.8999 C   0  0  0  0  0  0  0  0  0  0  0  0
  -15.2083  -41.4147  -11.8567 N   0  0  0  0  0  0  0  0  0  0  0  0
  -12.4043  -42.5503   -8.9670 C   0  0  0  0  0  0  0  0  0  0  0  0
  -12.7451  -41.9598   -7.6308 C   0  0  0  0  0  0  0  0  0  0  0  0
  -12.4200  -44.0676   -8.7800 C   0  0  0  0  0  0  0  0  0  0  0  0
  -10.9882  -42.1825   -9.3318 C   0  0  0  0  0  0  0  0  0  0  0  0
  -18.5635  -46.3198  -10.5838 C   0  0  0  0  0  0  0  0  0  0  0  0
  -18.0404  -46.1861  -11.8110 N   0  0  0  0  0  0  0  0  0  0  0  0
  -17.6834  -47.4229  -12.2718 C   0  0  0  0  0  0  0  0  0  0  0  0
  -18.0237  -48.2846  -11.2539 C   0  0  0  0  0  0  0  0  0  0  0  0
  -18.5314  -47.5823  -10.2987 O   0  0  0  0  0  0  0  0  0  0  0  0
  2  1  1  1
  2  3  1  0
  3  4  1  0
  4  5  1  0
  5  6  1  0
  6  7  1  0
  7  8  1  0
  8  9  1  0
  9 10  1  0
 10 11  1  0
 11 12  1  0
 12 13  2  0
 13 14  1  0
 14 15  2  0
 15 16  1  0
 15 17  1  0
 17 18  2  0
 17 19  1  0
 19 20  1  0
 20 21  1  1
 20 22  1  0
 22 23  1  6
 22 24  1  0
 24 25  1  0
 25 26  1  0
 26 27  1  0
 27 28  1  0
 26 29  1  0
 29 30  2  0
 30 31  1  0
 31 32  2  0
 32 33  1  0
 33 34  2  0
 31 35  1  0
 35 36  1  0
 35 37  1  0
 35 38  1  0
 13 39  1  0
 39 40  2  0
 40 41  1  0
 41 42  2  0
 42 43  1  0
 16 11  2  0
 21  2  1  0
 28 26  1  0
 34 29  1  0
 43 39  1  0
M  END
$$$$
