
     RDKit          3D

 43 47  0  0  0  0  0  0  0  0999 V2000
  -14.6326  -39.3200  -10.7906 C   0  0  0  0  0  0  0  0  0  0  0  0
  -15.4264  -40.5114  -10.3045 C   0  0  2  0  0  0  0  0  0  0  0  0
  -15.2337  -41.5942  -11.3734 C   0  0  0  0  0  0  0  0  0  0  0  0
  -14.2892  -42.6566  -10.8631 C   0  0  0  0  0  0  0  0  0  0  0  0
  -14.7823  -44.0557  -11.2033 C   0  0  0  0  0  0  0  0  0  0  0  0
  -15.9371  -44.3157  -10.2633 C   0  0  0  0  0  0  0  0  0  0  0  0
  -16.5291  -45.6686  -10.4738 C   0  0  0  0  0  0  0  0  0  0  0  0
  -17.8432  -45.8469   -9.7464 C   0  0  0  0  0  0  0  0  0  0  0  0
  -17.6469  -46.3110   -8.3217 C   0  0  0  0  0  0  0  0  0  0  0  0
  -18.4376  -45.5552   -7.3696 N   0  0  0  0  0  0  0  0  0  0  0  0
  -19.1456  -44.3200   -7.4695 C   0  0  0  0  0  0  0  0  0  0  0  0
  -20.4070  -44.4649   -6.8308 C   0  0  0  0  0  0  0  0  0  0  0  0
  -21.3347  -43.4660   -6.7397 C   0  0  0  0  0  0  0  0  0  0  0  0
  -20.9660  -42.2854   -7.3154 C   0  0  0  0  0  0  0  0  0  0  0  0
  -19.7213  -42.0607   -7.9722 C   0  0  0  0  0  0  0  0  0  0  0  0
  -18.8181  -43.1059   -8.0368 C   0  0  0  0  0  0  0  0  0  0  0  0
  -19.6711  -40.6885   -8.4749 C   0  0  0  0  0  0  0  0  0  0  0  0
  -20.7812  -40.1815   -9.0054 O   0  0  0  0  0  0  0  0  0  0  0  0
  -18.6781  -39.6864   -8.5467 N   0  0  0  0  0  0  0  0  0  0  0  0
  -17.2443  -39.9026   -8.7165 C   0  0  1  0  0  0  0  0  0  0  0  0
  -16.8989  -40.2035  -10.1277 C   0  0  0  0  0  0  0  0  0  0  0  0
  -16.4708  -38.8577   -8.0087 C   0  0  2  0  0  0  0  0  0  0  0  0
  -15.3710  -39.5750   -7.4073 O   0  0  0  0  0  0  0  0  0  0  0  0
  -17.0885  -38.1359   -6.8779 C   0  0  0  0  0  0  0  0  0  0  0  0
  -18.3800  -38.5401   -6.4418 N   0  0  0  0  0  0  0  0  0  0  0  0
  -19.4342  -37.9010   -7.2633 C   0  0  0  0  0  0  0  0  0  0  0  0
  -20.4491  -37.0478   -6.4760 C   0  0  0  0  0  0  0  0  0  0  0  0
  -20.8357  -38.3481   -7.0784 C   0  0  0  0  0  0  0  0  0  0  0  0
  -19.0715  -37.4385   -8.6249 C   0  0  0  0  0  0  0  0  0  0  0  0
  -19.5435  -38.0025   -9.7907 C   0  0  0  0  0  0  0  0  0  0  0  0
  -19.1660  -37.5171  -11.0343 C   0  0  0  0  0  0  0  0  0  0  0  0
  -18.2966  -36.4430  -11.1149 C   0  0  0  0  0  0  0  0  0  0  0  0
  -17.8454  -35.9049   -9.9333 C   0  0  0  0  0  0  0  0  0  0  0  0
  -18.2288  -36.3969   -8.7417 N   0  0  0  0  0  0  0  0  0  0  0  0
  -19.6774  -38.1371  -12.2596 C   0  0  0  0  0  0  0  0  0  0  0  0
  -19.6143  -37.1841  -13.4164 C   0  0  0  0  0  0  0  0  0  0  0  0
  -18.8012  -39.3304  -12.6410 C   0  0  0  0  0  0  0  0  0  0  0  0
  -21.0819  -38.6685  -12.1232 C   0  0  0  0  0  0  0  0  0  0  0  0
  -22.6177  -43.6484   -6.0797 C   0  0  0  0  0  0  0  0  0  0  0  0
  -23.7975  -43.3322   -6.6326 N   0  0  0  0  0  0  0  0  0  0  0  0
  -24.7919  -43.6313   -5.7433 C   0  0  0  0  0  0  0  0  0  0  0  0
  -24.1351  -44.1372   -4.6447 C   0  0  0  0  0  0  0  0  0  0  0  0
  -22.8713  -44.1215   -4.9016 O   0  0  0  0  0  0  0  0  0  0  0  0
  2  1  1  6
  2  3  1  0
  3  4  1  0
  4  5  1  0
  5  6  1  0
  6  7  1  0
  7  8  1  0
  8  9  1  0
  9 10  1  0
 10 11  1  0
 11 12  1  0
 12 13  2  0
 13 14  1  0
 14 15  2  0
 15 16  1  0
 15 17  1  0
 17 18  2  0
 17 19  1  0
 19 20  1  0
 20 21  1  6
 20 22  1  0
 22 23  1  1
 22 24  1  0
 24 25  1  0
 25 26  1  0
 26 27  1  0
 27 28  1  0
 26 29  1  0
 29 30  2  0
 30 31  1  0
 31 32  2  0
 32 33  1  0
 33 34  2  0
 31 35  1  0
 35 36  1  0
 35 37  1  0
 35 38  1  0
 13 39  1  0
 39 40  2  0
 40 41  1  0
 41 42  2  0
 42 43  1  0
 16 11  2  0
 21  2  1  0
 28 26  1  0
 34 29  1  0
 43 39  1  0
M  END
$$$$
