
     RDKit          3D

 38 40  0  0  0  0  0  0  0  0999 V2000
  -18.5023  -37.7271   -6.5762 C   0  0  0  0  0  0  0  0  0  0  0  0
  -19.3471  -38.1818   -7.7140 C   0  0  2  0  0  0  0  0  0  0  0  0
  -20.6207  -38.7928   -7.1664 C   0  0  0  0  0  0  0  0  0  0  0  0
  -21.8574  -38.1291   -7.7845 C   0  0  0  0  0  0  0  0  0  0  0  0
  -23.1375  -38.6716   -7.2466 C   0  0  0  0  0  0  0  0  0  0  0  0
  -23.5724  -39.8580   -8.0466 C   0  0  0  0  0  0  0  0  0  0  0  0
  -23.5810  -41.0737   -7.1222 C   0  0  0  0  0  0  0  0  0  0  0  0
  -23.3077  -42.2958   -7.9546 C   0  0  0  0  0  0  0  0  0  0  0  0
  -22.3183  -43.2160   -7.2652 C   0  0  0  0  0  0  0  0  0  0  0  0
  -20.8828  -42.8916   -7.7115 C   0  0  0  0  0  0  0  0  0  0  0  0
  -20.1072  -44.1433   -7.9222 C   0  0  0  0  0  0  0  0  0  0  0  0
  -20.8116  -45.1960   -8.1256 O   0  0  0  0  0  0  0  0  0  0  0  0
  -18.6992  -44.2464   -7.9127 N   0  0  0  0  0  0  0  0  0  0  0  0
  -18.1041  -45.3700   -7.1961 C   0  0  0  0  0  0  0  0  0  0  0  0
  -17.8229  -43.2764   -8.5957 C   0  0  1  0  0  0  0  0  0  0  0  0
  -18.3716  -42.8056   -9.8896 C   0  0  0  0  0  0  0  0  0  0  0  0
  -17.3697  -42.2378   -7.6505 C   0  0  0  0  0  0  0  0  0  0  0  0
  -16.5265  -42.6839   -6.7723 O   0  0  0  0  0  0  0  0  0  0  0  0
  -17.7319  -40.8817   -7.5938 N   0  0  0  0  0  0  0  0  0  0  0  0
  -17.5669  -39.8325   -8.5352 C   0  0  1  0  0  0  0  0  0  0  0  0
  -18.7203  -38.9473   -8.7908 C   0  0  0  0  0  0  0  0  0  0  0  0
  -16.2241  -39.1027   -8.4314 C   0  0  2  0  0  0  0  0  0  0  0  0
  -16.5854  -37.7527   -8.1991 O   0  0  0  0  0  0  0  0  0  0  0  0
  -15.5687  -39.0183   -9.8286 C   0  0  0  0  0  0  0  0  0  0  0  0
  -14.7739  -40.2239   -9.9448 N   0  0  0  0  0  0  0  0  0  0  0  0
  -14.2068  -40.4386  -11.2436 C   0  0  0  0  0  0  0  0  0  0  0  0
  -13.3376  -41.6141  -11.5129 C   0  0  0  0  0  0  0  0  0  0  0  0
  -14.7958  -41.6850  -11.9353 C   0  0  0  0  0  0  0  0  0  0  0  0
  -14.0121  -39.2447  -12.0909 C   0  0  0  0  0  0  0  0  0  0  0  0
  -13.6299  -38.0122  -11.6211 C   0  0  0  0  0  0  0  0  0  0  0  0
  -13.4761  -36.8975  -12.3993 C   0  0  0  0  0  0  0  0  0  0  0  0
  -13.7185  -37.0111  -13.7499 C   0  0  0  0  0  0  0  0  0  0  0  0
  -14.1019  -38.2507  -14.2219 C   0  0  0  0  0  0  0  0  0  0  0  0
  -14.2449  -39.3267  -13.4346 N   0  0  0  0  0  0  0  0  0  0  0  0
  -13.0565  -35.5944  -11.7997 C   0  0  0  0  0  0  0  0  0  0  0  0
  -12.7041  -34.6556  -12.9127 C   0  0  0  0  0  0  0  0  0  0  0  0
  -11.8340  -35.7950  -10.9141 C   0  0  0  0  0  0  0  0  0  0  0  0
  -14.1729  -35.1128  -10.9153 C   0  0  0  0  0  0  0  0  0  0  0  0
  2  1  1  1
  2  3  1  0
  3  4  1  0
  4  5  1  0
  5  6  1  0
  6  7  1  0
  7  8  1  0
  8  9  1  0
  9 10  1  0
 10 11  1  0
 11 12  2  0
 11 13  1  0
 13 14  1  0
 13 15  1  0
 15 16  1  6
 15 17  1  0
 17 18  2  0
 17 19  1  0
 19 20  1  0
 20 21  1  1
 20 22  1  0
 22 23  1  6
 22 24  1  0
 24 25  1  0
 25 26  1  0
 26 27  1  0
 27 28  1  0
 26 29  1  0
 29 30  2  0
 30 31  1  0
 31 32  2  0
 32 33  1  0
 33 34  2  0
 31 35  1  0
 35 36  1  0
 35 37  1  0
 35 38  1  0
 21  2  1  0
 28 26  1  0
 34 29  1  0
M  END
$$$$
