
     RDKit          3D

 38 40  0  0  0  0  0  0  0  0999 V2000
  -18.9060  -37.6550   -6.4534 C   0  0  0  0  0  0  0  0  0  0  0  0
  -19.8132  -38.2231   -7.4875 C   0  0  2  0  0  0  0  0  0  0  0  0
  -21.0485  -38.7760   -6.8066 C   0  0  0  0  0  0  0  0  0  0  0  0
  -22.3236  -38.1790   -7.4144 C   0  0  0  0  0  0  0  0  0  0  0  0
  -23.5664  -38.6649   -6.7497 C   0  0  0  0  0  0  0  0  0  0  0  0
  -24.0398  -39.9264   -7.3984 C   0  0  0  0  0  0  0  0  0  0  0  0
  -23.9862  -41.0422   -6.3570 C   0  0  0  0  0  0  0  0  0  0  0  0
  -23.7544  -42.3422   -7.0762 C   0  0  0  0  0  0  0  0  0  0  0  0
  -22.7203  -43.1873   -6.3570 C   0  0  0  0  0  0  0  0  0  0  0  0
  -21.3155  -42.9091   -6.9179 C   0  0  0  0  0  0  0  0  0  0  0  0
  -20.5456  -44.1754   -7.0464 C   0  0  0  0  0  0  0  0  0  0  0  0
  -21.2539  -45.2436   -7.1004 O   0  0  0  0  0  0  0  0  0  0  0  0
  -19.1389  -44.2763   -7.1098 N   0  0  0  0  0  0  0  0  0  0  0  0
  -18.4955  -45.3212   -6.3197 C   0  0  0  0  0  0  0  0  0  0  0  0
  -18.3105  -43.3800   -7.9379 C   0  0  1  0  0  0  0  0  0  0  0  0
  -18.9373  -43.0430   -9.2381 C   0  0  0  0  0  0  0  0  0  0  0  0
  -17.8093  -42.2508   -7.1311 C   0  0  0  0  0  0  0  0  0  0  0  0
  -16.9131  -42.6053   -6.2637 O   0  0  0  0  0  0  0  0  0  0  0  0
  -18.1763  -40.8961   -7.1905 N   0  0  0  0  0  0  0  0  0  0  0  0
  -18.0737  -39.9477   -8.2413 C   0  0  1  0  0  0  0  0  0  0  0  0
  -19.2459  -39.0935   -8.5165 C   0  0  0  0  0  0  0  0  0  0  0  0
  -16.7318  -39.2104   -8.2914 C   0  0  2  0  0  0  0  0  0  0  0  0
  -16.8371  -38.3859   -9.4386 O   0  0  0  0  0  0  0  0  0  0  0  0
  -15.6142  -40.1925   -8.7097 C   0  0  0  0  0  0  0  0  0  0  0  0
  -14.7196  -39.4128   -9.5407 N   0  0  0  0  0  0  0  0  0  0  0  0
  -13.5454  -40.1137   -9.9699 C   0  0  0  0  0  0  0  0  0  0  0  0
  -13.0314  -41.2819   -9.2076 C   0  0  0  0  0  0  0  0  0  0  0  0
  -13.8661  -41.5438  -10.4504 C   0  0  0  0  0  0  0  0  0  0  0  0
  -12.5716  -39.3503  -10.7763 C   0  0  0  0  0  0  0  0  0  0  0  0
  -12.7437  -38.0473  -11.1741 C   0  0  0  0  0  0  0  0  0  0  0  0
  -11.8568  -37.3465  -11.9447 C   0  0  0  0  0  0  0  0  0  0  0  0
  -10.7074  -37.9849  -12.3536 C   0  0  0  0  0  0  0  0  0  0  0  0
  -10.5344  -39.2947  -11.9526 C   0  0  0  0  0  0  0  0  0  0  0  0
  -11.4220  -39.9571  -11.1966 N   0  0  0  0  0  0  0  0  0  0  0  0
  -12.1283  -35.9284  -12.3308 C   0  0  0  0  0  0  0  0  0  0  0  0
  -12.0848  -35.0865  -11.0925 C   0  0  0  0  0  0  0  0  0  0  0  0
  -13.5098  -35.8127  -12.9610 C   0  0  0  0  0  0  0  0  0  0  0  0
  -11.1257  -35.5360  -13.3802 C   0  0  0  0  0  0  0  0  0  0  0  0
  2  1  1  1
  2  3  1  0
  3  4  1  0
  4  5  1  0
  5  6  1  0
  6  7  1  0
  7  8  1  0
  8  9  1  0
  9 10  1  0
 10 11  1  0
 11 12  2  0
 11 13  1  0
 13 14  1  0
 13 15  1  0
 15 16  1  6
 15 17  1  0
 17 18  2  0
 17 19  1  0
 19 20  1  0
 20 21  1  1
 20 22  1  0
 22 23  1  6
 22 24  1  0
 24 25  1  0
 25 26  1  0
 26 27  1  0
 27 28  1  0
 26 29  1  0
 29 30  2  0
 30 31  1  0
 31 32  2  0
 32 33  1  0
 33 34  2  0
 31 35  1  0
 35 36  1  0
 35 37  1  0
 35 38  1  0
 21  2  1  0
 28 26  1  0
 34 29  1  0
M  END
$$$$
