
     RDKit          3D

 38 40  0  0  0  0  0  0  0  0999 V2000
  -18.9255  -37.8281   -5.9628 C   0  0  0  0  0  0  0  0  0  0  0  0
  -19.7328  -38.2929   -7.1236 C   0  0  2  0  0  0  0  0  0  0  0  0
  -20.9997  -38.9462   -6.6104 C   0  0  0  0  0  0  0  0  0  0  0  0
  -22.2415  -38.3105   -7.2471 C   0  0  0  0  0  0  0  0  0  0  0  0
  -23.5166  -38.8956   -6.7431 C   0  0  0  0  0  0  0  0  0  0  0  0
  -23.9005  -40.0840   -7.5657 C   0  0  0  0  0  0  0  0  0  0  0  0
  -23.8938  -41.3105   -6.6557 C   0  0  0  0  0  0  0  0  0  0  0  0
  -23.5682  -42.5143   -7.4960 C   0  0  0  0  0  0  0  0  0  0  0  0
  -22.5676  -43.4143   -6.7962 C   0  0  0  0  0  0  0  0  0  0  0  0
  -21.1328  -43.0440   -7.2079 C   0  0  0  0  0  0  0  0  0  0  0  0
  -20.3175  -44.2706   -7.4162 C   0  0  0  0  0  0  0  0  0  0  0  0
  -20.9871  -45.3403   -7.6468 O   0  0  0  0  0  0  0  0  0  0  0  0
  -18.9077  -44.3339   -7.3778 N   0  0  0  0  0  0  0  0  0  0  0  0
  -18.2959  -45.4487   -6.6615 C   0  0  0  0  0  0  0  0  0  0  0  0
  -18.0453  -43.3312   -8.0307 C   0  0  1  0  0  0  0  0  0  0  0  0
  -18.5798  -42.8605   -9.3305 C   0  0  0  0  0  0  0  0  0  0  0  0
  -17.6420  -42.2916   -7.0642 C   0  0  0  0  0  0  0  0  0  0  0  0
  -16.8051  -42.7242   -6.1733 O   0  0  0  0  0  0  0  0  0  0  0  0
  -18.0439  -40.9471   -6.9997 N   0  0  0  0  0  0  0  0  0  0  0  0
  -17.8892  -39.8824   -7.9253 C   0  0  1  0  0  0  0  0  0  0  0  0
  -19.0618  -39.0273   -8.1954 C   0  0  0  0  0  0  0  0  0  0  0  0
  -16.5703  -39.1161   -7.7844 C   0  0  2  0  0  0  0  0  0  0  0  0
  -16.9361  -37.7638   -7.9952 O   0  0  0  0  0  0  0  0  0  0  0  0
  -15.6729  -39.3955   -9.0114 C   0  0  0  0  0  0  0  0  0  0  0  0
  -14.6147  -40.2522   -8.5164 N   0  0  0  0  0  0  0  0  0  0  0  0
  -13.4123  -40.2218   -9.2959 C   0  0  0  0  0  0  0  0  0  0  0  0
  -12.0913  -40.5012   -8.6739 C   0  0  0  0  0  0  0  0  0  0  0  0
  -12.7780  -41.6204   -9.4393 C   0  0  0  0  0  0  0  0  0  0  0  0
  -13.4249  -39.3764  -10.5069 C   0  0  0  0  0  0  0  0  0  0  0  0
  -12.3656  -38.6133  -10.9331 C   0  0  0  0  0  0  0  0  0  0  0  0
  -12.3836  -37.8074  -12.0385 C   0  0  0  0  0  0  0  0  0  0  0  0
  -13.5410  -37.7528  -12.7823 C   0  0  0  0  0  0  0  0  0  0  0  0
  -14.6053  -38.5209  -12.3539 C   0  0  0  0  0  0  0  0  0  0  0  0
  -14.5589  -39.3021  -11.2651 N   0  0  0  0  0  0  0  0  0  0  0  0
  -11.1808  -37.0100  -12.4269 C   0  0  0  0  0  0  0  0  0  0  0  0
  -10.9312  -37.2162  -13.8896 C   0  0  0  0  0  0  0  0  0  0  0  0
   -9.9633  -37.4839  -11.6444 C   0  0  0  0  0  0  0  0  0  0  0  0
  -11.4307  -35.5792  -12.0385 C   0  0  0  0  0  0  0  0  0  0  0  0
  2  1  1  1
  2  3  1  0
  3  4  1  0
  4  5  1  0
  5  6  1  0
  6  7  1  0
  7  8  1  0
  8  9  1  0
  9 10  1  0
 10 11  1  0
 11 12  2  0
 11 13  1  0
 13 14  1  0
 13 15  1  0
 15 16  1  6
 15 17  1  0
 17 18  2  0
 17 19  1  0
 19 20  1  0
 20 21  1  1
 20 22  1  0
 22 23  1  6
 22 24  1  0
 24 25  1  0
 25 26  1  0
 26 27  1  0
 27 28  1  0
 26 29  1  0
 29 30  2  0
 30 31  1  0
 31 32  2  0
 32 33  1  0
 33 34  2  0
 31 35  1  0
 35 36  1  0
 35 37  1  0
 35 38  1  0
 21  2  1  0
 28 26  1  0
 34 29  1  0
M  END
$$$$
