
     RDKit          3D

 38 40  0  0  0  0  0  0  0  0999 V2000
  -21.7163  -39.8996  -11.4556 C   0  0  0  0  0  0  0  0  0  0  0  0
  -21.7418  -41.3392  -11.8325 C   0  0  2  0  0  0  0  0  0  0  0  0
  -22.9011  -42.0113  -11.1257 C   0  0  0  0  0  0  0  0  0  0  0  0
  -23.8074  -42.7376  -12.1271 C   0  0  0  0  0  0  0  0  0  0  0  0
  -24.9859  -43.3832  -11.4815 C   0  0  0  0  0  0  0  0  0  0  0  0
  -24.6373  -44.7680  -11.0372 C   0  0  0  0  0  0  0  0  0  0  0  0
  -24.7652  -44.8223   -9.5162 C   0  0  0  0  0  0  0  0  0  0  0  0
  -23.8028  -45.8574   -9.0029 C   0  0  0  0  0  0  0  0  0  0  0  0
  -23.0672  -45.3573   -7.7742 C   0  0  0  0  0  0  0  0  0  0  0  0
  -21.7451  -44.6830   -8.1775 C   0  0  0  0  0  0  0  0  0  0  0  0
  -20.6598  -45.0567   -7.2315 C   0  0  0  0  0  0  0  0  0  0  0  0
  -20.8613  -46.1343   -6.5652 O   0  0  0  0  0  0  0  0  0  0  0  0
  -19.4667  -44.3308   -7.0249 N   0  0  0  0  0  0  0  0  0  0  0  0
  -19.0169  -44.1381   -5.6499 C   0  0  0  0  0  0  0  0  0  0  0  0
  -18.6688  -43.7738   -8.1333 C   0  0  1  0  0  0  0  0  0  0  0  0
  -18.6226  -44.6597   -9.3207 C   0  0  0  0  0  0  0  0  0  0  0  0
  -19.0328  -42.3639   -8.3718 C   0  0  0  0  0  0  0  0  0  0  0  0
  -18.6387  -41.5708   -7.4247 O   0  0  0  0  0  0  0  0  0  0  0  0
  -19.7281  -41.8066   -9.4578 N   0  0  0  0  0  0  0  0  0  0  0  0
  -19.4169  -41.7655  -10.8419 C   0  0  1  0  0  0  0  0  0  0  0  0
  -20.4903  -42.0948  -11.8003 C   0  0  0  0  0  0  0  0  0  0  0  0
  -18.5491  -40.5724  -11.2541 C   0  0  2  0  0  0  0  0  0  0  0  0
  -17.8839  -41.0204  -12.4219 O   0  0  0  0  0  0  0  0  0  0  0  0
  -17.3745  -40.4161  -10.2618 C   0  0  0  0  0  0  0  0  0  0  0  0
  -17.6810  -39.2220   -9.5009 N   0  0  0  0  0  0  0  0  0  0  0  0
  -16.6181  -38.2619   -9.4487 C   0  0  0  0  0  0  0  0  0  0  0  0
  -15.3589  -38.4738  -10.2099 C   0  0  0  0  0  0  0  0  0  0  0  0
  -16.4113  -37.5506  -10.8016 C   0  0  0  0  0  0  0  0  0  0  0  0
  -16.5443  -37.4151   -8.2409 C   0  0  0  0  0  0  0  0  0  0  0  0
  -17.3433  -37.5681   -7.1345 C   0  0  0  0  0  0  0  0  0  0  0  0
  -17.2967  -36.7678   -6.0258 C   0  0  0  0  0  0  0  0  0  0  0  0
  -16.3866  -35.7348   -6.0095 C   0  0  0  0  0  0  0  0  0  0  0  0
  -15.5828  -35.5820   -7.1217 C   0  0  0  0  0  0  0  0  0  0  0  0
  -15.6511  -36.3824   -8.1954 N   0  0  0  0  0  0  0  0  0  0  0  0
  -18.2077  -37.0092   -4.8658 C   0  0  0  0  0  0  0  0  0  0  0  0
  -19.4282  -37.7198   -5.3653 C   0  0  0  0  0  0  0  0  0  0  0  0
  -18.6254  -35.6836   -4.2434 C   0  0  0  0  0  0  0  0  0  0  0  0
  -17.4350  -37.7673   -3.8224 C   0  0  0  0  0  0  0  0  0  0  0  0
  2  1  1  1
  2  3  1  0
  3  4  1  0
  4  5  1  0
  5  6  1  0
  6  7  1  0
  7  8  1  0
  8  9  1  0
  9 10  1  0
 10 11  1  0
 11 12  2  0
 11 13  1  0
 13 14  1  0
 13 15  1  0
 15 16  1  6
 15 17  1  0
 17 18  2  0
 17 19  1  0
 19 20  1  0
 20 21  1  6
 20 22  1  0
 22 23  1  6
 22 24  1  0
 24 25  1  0
 25 26  1  0
 26 27  1  0
 27 28  1  0
 26 29  1  0
 29 30  2  0
 30 31  1  0
 31 32  2  0
 32 33  1  0
 33 34  2  0
 31 35  1  0
 35 36  1  0
 35 37  1  0
 35 38  1  0
 21  2  1  0
 28 26  1  0
 34 29  1  0
M  END
$$$$
