
     RDKit          3D

 38 40  0  0  0  0  0  0  0  0999 V2000
  -17.9758  -37.8845   -6.4776 C   0  0  0  0  0  0  0  0  0  0  0  0
  -19.1537  -38.3535   -7.2571 C   0  0  2  0  0  0  0  0  0  0  0  0
  -20.1957  -38.8900   -6.2970 C   0  0  0  0  0  0  0  0  0  0  0  0
  -21.5498  -38.2050   -6.5181 C   0  0  0  0  0  0  0  0  0  0  0  0
  -22.5994  -38.6734   -5.5688 C   0  0  0  0  0  0  0  0  0  0  0  0
  -23.2976  -39.8746   -6.1222 C   0  0  0  0  0  0  0  0  0  0  0  0
  -23.0353  -41.0487   -5.1813 C   0  0  0  0  0  0  0  0  0  0  0  0
  -23.0749  -42.3148   -5.9915 C   0  0  0  0  0  0  0  0  0  0  0  0
  -21.9376  -43.2432   -5.6098 C   0  0  0  0  0  0  0  0  0  0  0  0
  -20.7164  -42.9948   -6.5111 C   0  0  0  0  0  0  0  0  0  0  0  0
  -20.0805  -44.2839   -6.8938 C   0  0  0  0  0  0  0  0  0  0  0  0
  -20.8374  -45.3157   -6.8036 O   0  0  0  0  0  0  0  0  0  0  0  0
  -18.7480  -44.4419   -7.3328 N   0  0  0  0  0  0  0  0  0  0  0  0
  -17.9797  -45.5566   -6.7876 C   0  0  0  0  0  0  0  0  0  0  0  0
  -18.1172  -43.5370   -8.3118 C   0  0  1  0  0  0  0  0  0  0  0  0
  -19.0438  -43.1003   -9.3831 C   0  0  0  0  0  0  0  0  0  0  0  0
  -17.3583  -42.4778   -7.6193 C   0  0  0  0  0  0  0  0  0  0  0  0
  -16.2870  -42.9192   -7.0371 O   0  0  0  0  0  0  0  0  0  0  0  0
  -17.6506  -41.1073   -7.5208 N   0  0  0  0  0  0  0  0  0  0  0  0
  -17.7744  -40.1064   -8.5192 C   0  0  1  0  0  0  0  0  0  0  0  0
  -18.9273  -39.1881   -8.4362 C   0  0  0  0  0  0  0  0  0  0  0  0
  -16.4534  -39.4262   -8.8921 C   0  0  2  0  0  0  0  0  0  0  0  0
  -16.7122  -38.0469   -8.6986 O   0  0  0  0  0  0  0  0  0  0  0  0
  -16.2458  -39.4971  -10.4221 C   0  0  0  0  0  0  0  0  0  0  0  0
  -15.8740  -40.8718  -10.6881 N   0  0  0  0  0  0  0  0  0  0  0  0
  -14.6407  -41.0260  -11.4019 C   0  0  0  0  0  0  0  0  0  0  0  0
  -13.8920  -42.3098  -11.3652 C   0  0  0  0  0  0  0  0  0  0  0  0
  -14.7684  -42.0216  -12.5730 C   0  0  0  0  0  0  0  0  0  0  0  0
  -13.8643  -39.7971  -11.6633 C   0  0  0  0  0  0  0  0  0  0  0  0
  -14.4141  -38.5479  -11.8149 C   0  0  0  0  0  0  0  0  0  0  0  0
  -13.7005  -37.4124  -12.0851 C   0  0  0  0  0  0  0  0  0  0  0  0
  -12.3340  -37.5207  -12.2145 C   0  0  0  0  0  0  0  0  0  0  0  0
  -11.7815  -38.7768  -12.0610 C   0  0  0  0  0  0  0  0  0  0  0  0
  -12.5068  -39.8732  -11.7965 N   0  0  0  0  0  0  0  0  0  0  0  0
  -14.3853  -36.0924  -12.2348 C   0  0  0  0  0  0  0  0  0  0  0  0
  -14.7286  -35.9012  -13.6804 C   0  0  0  0  0  0  0  0  0  0  0  0
  -13.4582  -34.9683  -11.7922 C   0  0  0  0  0  0  0  0  0  0  0  0
  -15.5717  -36.0809  -11.3113 C   0  0  0  0  0  0  0  0  0  0  0  0
  2  1  1  1
  2  3  1  0
  3  4  1  0
  4  5  1  0
  5  6  1  0
  6  7  1  0
  7  8  1  0
  8  9  1  0
  9 10  1  0
 10 11  1  0
 11 12  2  0
 11 13  1  0
 13 14  1  0
 13 15  1  0
 15 16  1  1
 15 17  1  0
 17 18  2  0
 17 19  1  0
 19 20  1  0
 20 21  1  1
 20 22  1  0
 22 23  1  6
 22 24  1  0
 24 25  1  0
 25 26  1  0
 26 27  1  0
 27 28  1  0
 26 29  1  0
 29 30  2  0
 30 31  1  0
 31 32  2  0
 32 33  1  0
 33 34  2  0
 31 35  1  0
 35 36  1  0
 35 37  1  0
 35 38  1  0
 21  2  1  0
 28 26  1  0
 34 29  1  0
M  END
$$$$
