
     RDKit          3D

 38 40  0  0  0  0  0  0  0  0999 V2000
  -18.6593  -38.0522   -6.2549 C   0  0  0  0  0  0  0  0  0  0  0  0
  -19.4910  -38.5562   -7.3817 C   0  0  2  0  0  0  0  0  0  0  0  0
  -20.7581  -39.1687   -6.8209 C   0  0  0  0  0  0  0  0  0  0  0  0
  -22.0013  -38.5444   -7.4661 C   0  0  0  0  0  0  0  0  0  0  0  0
  -23.2760  -39.0889   -6.9173 C   0  0  0  0  0  0  0  0  0  0  0  0
  -23.6885  -40.3069   -7.6808 C   0  0  0  0  0  0  0  0  0  0  0  0
  -23.6836  -41.4922   -6.7177 C   0  0  0  0  0  0  0  0  0  0  0  0
  -23.3873  -42.7361   -7.5089 C   0  0  0  0  0  0  0  0  0  0  0  0
  -22.3878  -43.6184   -6.7853 C   0  0  0  0  0  0  0  0  0  0  0  0
  -20.9549  -43.2865   -7.2348 C   0  0  0  0  0  0  0  0  0  0  0  0
  -20.1593  -44.5323   -7.4011 C   0  0  0  0  0  0  0  0  0  0  0  0
  -20.8465  -45.6017   -7.5740 O   0  0  0  0  0  0  0  0  0  0  0  0
  -18.7500  -44.6134   -7.3814 N   0  0  0  0  0  0  0  0  0  0  0  0
  -18.1418  -45.7041   -6.6260 C   0  0  0  0  0  0  0  0  0  0  0  0
  -17.8848  -43.6525   -8.0910 C   0  0  1  0  0  0  0  0  0  0  0  0
  -18.4336  -43.2321   -9.4021 C   0  0  0  0  0  0  0  0  0  0  0  0
  -17.4526  -42.5772   -7.1776 C   0  0  0  0  0  0  0  0  0  0  0  0
  -16.6075  -42.9819   -6.2813 O   0  0  0  0  0  0  0  0  0  0  0  0
  -17.8356  -41.2257   -7.1665 N   0  0  0  0  0  0  0  0  0  0  0  0
  -17.6815  -40.2050   -8.1404 C   0  0  1  0  0  0  0  0  0  0  0  0
  -18.8468  -39.3463   -8.4301 C   0  0  0  0  0  0  0  0  0  0  0  0
  -16.3505  -39.4516   -8.0536 C   0  0  2  0  0  0  0  0  0  0  0  0
  -16.7087  -38.0981   -8.2696 O   0  0  0  0  0  0  0  0  0  0  0  0
  -15.4978  -39.7565   -9.3061 C   0  0  0  0  0  0  0  0  0  0  0  0
  -14.1989  -40.1411   -8.7925 N   0  0  0  0  0  0  0  0  0  0  0  0
  -13.1973  -40.3392   -9.7984 C   0  0  0  0  0  0  0  0  0  0  0  0
  -11.9137  -41.0161   -9.4758 C   0  0  0  0  0  0  0  0  0  0  0  0
  -13.0090  -41.8304  -10.1444 C   0  0  0  0  0  0  0  0  0  0  0  0
  -13.1974  -39.3942  -10.9334 C   0  0  0  0  0  0  0  0  0  0  0  0
  -13.0668  -38.0326  -10.8111 C   0  0  0  0  0  0  0  0  0  0  0  0
  -13.0948  -37.1522  -11.8579 C   0  0  0  0  0  0  0  0  0  0  0  0
  -13.2643  -37.6588  -13.1270 C   0  0  0  0  0  0  0  0  0  0  0  0
  -13.3946  -39.0279  -13.2495 C   0  0  0  0  0  0  0  0  0  0  0  0
  -13.3635  -39.8673  -12.2042 N   0  0  0  0  0  0  0  0  0  0  0  0
  -12.9451  -35.6828  -11.6296 C   0  0  0  0  0  0  0  0  0  0  0  0
  -14.1415  -35.2001  -10.8681 C   0  0  0  0  0  0  0  0  0  0  0  0
  -12.8770  -34.9500  -12.9629 C   0  0  0  0  0  0  0  0  0  0  0  0
  -11.6341  -35.4560  -10.9293 C   0  0  0  0  0  0  0  0  0  0  0  0
  2  1  1  1
  2  3  1  0
  3  4  1  0
  4  5  1  0
  5  6  1  0
  6  7  1  0
  7  8  1  0
  8  9  1  0
  9 10  1  0
 10 11  1  0
 11 12  2  0
 11 13  1  0
 13 14  1  0
 13 15  1  0
 15 16  1  6
 15 17  1  0
 17 18  2  0
 17 19  1  0
 19 20  1  0
 20 21  1  1
 20 22  1  0
 22 23  1  6
 22 24  1  0
 24 25  1  0
 25 26  1  0
 26 27  1  0
 27 28  1  0
 26 29  1  0
 29 30  2  0
 30 31  1  0
 31 32  2  0
 32 33  1  0
 33 34  2  0
 31 35  1  0
 35 36  1  0
 35 37  1  0
 35 38  1  0
 21  2  1  0
 28 26  1  0
 34 29  1  0
M  END
$$$$
