
     RDKit          3D

 38 40  0  0  0  0  0  0  0  0999 V2000
  -17.9852  -38.8033   -4.9532 C   0  0  0  0  0  0  0  0  0  0  0  0
  -18.8375  -38.8514   -6.1725 C   0  0  2  0  0  0  0  0  0  0  0  0
  -20.2182  -39.3420   -5.7873 C   0  0  0  0  0  0  0  0  0  0  0  0
  -21.2995  -38.3609   -6.2563 C   0  0  0  0  0  0  0  0  0  0  0  0
  -22.6750  -38.7825   -5.8655 C   0  0  0  0  0  0  0  0  0  0  0  0
  -23.2584  -39.6765   -6.9129 C   0  0  0  0  0  0  0  0  0  0  0  0
  -23.5086  -41.0441   -6.2807 C   0  0  0  0  0  0  0  0  0  0  0  0
  -23.3983  -42.0852   -7.3601 C   0  0  0  0  0  0  0  0  0  0  0  0
  -22.6057  -43.2865   -6.8810 C   0  0  0  0  0  0  0  0  0  0  0  0
  -21.1169  -43.1208   -7.2291 C   0  0  0  0  0  0  0  0  0  0  0  0
  -20.5461  -44.4100   -7.7034 C   0  0  0  0  0  0  0  0  0  0  0  0
  -21.4017  -45.2590   -8.1423 O   0  0  0  0  0  0  0  0  0  0  0  0
  -19.1756  -44.7493   -7.7019 N   0  0  0  0  0  0  0  0  0  0  0  0
  -18.8061  -46.0854   -7.2455 C   0  0  0  0  0  0  0  0  0  0  0  0
  -18.1217  -43.8169   -8.1438 C   0  0  1  0  0  0  0  0  0  0  0  0
  -18.5241  -42.9914   -9.3071 C   0  0  0  0  0  0  0  0  0  0  0  0
  -17.5512  -43.0995   -6.9874 C   0  0  0  0  0  0  0  0  0  0  0  0
  -16.8347  -43.8612   -6.2208 O   0  0  0  0  0  0  0  0  0  0  0  0
  -17.6904  -41.7466   -6.6357 N   0  0  0  0  0  0  0  0  0  0  0  0
  -17.3123  -40.5619   -7.3196 C   0  0  1  0  0  0  0  0  0  0  0  0
  -18.2929  -39.4604   -7.3852 C   0  0  0  0  0  0  0  0  0  0  0  0
  -15.8751  -40.1097   -7.0425 C   0  0  2  0  0  0  0  0  0  0  0  0
  -15.8803  -39.7783   -5.6652 O   0  0  0  0  0  0  0  0  0  0  0  0
  -15.6280  -38.7320   -7.6981 C   0  0  0  0  0  0  0  0  0  0  0  0
  -15.5546  -38.9996   -9.1199 N   0  0  0  0  0  0  0  0  0  0  0  0
  -14.4696  -38.3473   -9.7919 C   0  0  0  0  0  0  0  0  0  0  0  0
  -13.3433  -37.7524   -9.0255 C   0  0  0  0  0  0  0  0  0  0  0  0
  -13.1456  -39.1250   -9.6473 C   0  0  0  0  0  0  0  0  0  0  0  0
  -14.7573  -37.7777  -11.1239 C   0  0  0  0  0  0  0  0  0  0  0  0
  -16.0139  -37.4631  -11.5798 C   0  0  0  0  0  0  0  0  0  0  0  0
  -16.2865  -36.9619  -12.8232 C   0  0  0  0  0  0  0  0  0  0  0  0
  -15.2321  -36.7540  -13.6840 C   0  0  0  0  0  0  0  0  0  0  0  0
  -13.9688  -37.0696  -13.2249 C   0  0  0  0  0  0  0  0  0  0  0  0
  -13.7316  -37.5603  -11.9997 N   0  0  0  0  0  0  0  0  0  0  0  0
  -17.6888  -36.6487  -13.2344 C   0  0  0  0  0  0  0  0  0  0  0  0
  -17.7017  -36.3975  -14.7112 C   0  0  0  0  0  0  0  0  0  0  0  0
  -18.1789  -35.3995  -12.5144 C   0  0  0  0  0  0  0  0  0  0  0  0
  -18.5643  -37.7889  -12.7940 C   0  0  0  0  0  0  0  0  0  0  0  0
  2  1  1  1
  2  3  1  0
  3  4  1  0
  4  5  1  0
  5  6  1  0
  6  7  1  0
  7  8  1  0
  8  9  1  0
  9 10  1  0
 10 11  1  0
 11 12  2  0
 11 13  1  0
 13 14  1  0
 13 15  1  0
 15 16  1  6
 15 17  1  0
 17 18  2  0
 17 19  1  0
 19 20  1  0
 20 21  1  1
 20 22  1  0
 22 23  1  1
 22 24  1  0
 24 25  1  0
 25 26  1  0
 26 27  1  0
 27 28  1  0
 26 29  1  0
 29 30  2  0
 30 31  1  0
 31 32  2  0
 32 33  1  0
 33 34  2  0
 31 35  1  0
 35 36  1  0
 35 37  1  0
 35 38  1  0
 21  2  1  0
 28 26  1  0
 34 29  1  0
M  END
$$$$
