
     RDKit          3D

 38 40  0  0  0  0  0  0  0  0999 V2000
  -18.0213  -38.3912   -5.4672 C   0  0  0  0  0  0  0  0  0  0  0  0
  -19.1824  -38.7174   -6.3394 C   0  0  2  0  0  0  0  0  0  0  0  0
  -20.2542  -39.3837   -5.5011 C   0  0  0  0  0  0  0  0  0  0  0  0
  -21.5957  -38.6550   -5.6458 C   0  0  0  0  0  0  0  0  0  0  0  0
  -22.6743  -39.2522   -4.8076 C   0  0  0  0  0  0  0  0  0  0  0  0
  -23.3683  -40.3430   -5.5592 C   0  0  0  0  0  0  0  0  0  0  0  0
  -23.1415  -41.6529   -4.8073 C   0  0  0  0  0  0  0  0  0  0  0  0
  -23.1710  -42.7765   -5.8063 C   0  0  0  0  0  0  0  0  0  0  0  0
  -22.0526  -43.7677   -5.5464 C   0  0  0  0  0  0  0  0  0  0  0  0
  -20.8058  -43.3976   -6.3673 C   0  0  0  0  0  0  0  0  0  0  0  0
  -20.1715  -44.6193   -6.9310 C   0  0  0  0  0  0  0  0  0  0  0  0
  -20.9398  -45.6426   -7.0221 O   0  0  0  0  0  0  0  0  0  0  0  0
  -18.8294  -44.7241   -7.3562 N   0  0  0  0  0  0  0  0  0  0  0  0
  -18.0858  -45.9201   -6.9732 C   0  0  0  0  0  0  0  0  0  0  0  0
  -18.1648  -43.6857   -8.1658 C   0  0  1  0  0  0  0  0  0  0  0  0
  -19.0587  -43.0751   -9.1782 C   0  0  0  0  0  0  0  0  0  0  0  0
  -17.4150  -42.7576   -7.2976 C   0  0  0  0  0  0  0  0  0  0  0  0
  -16.3635  -43.2983   -6.7652 O   0  0  0  0  0  0  0  0  0  0  0  0
  -17.6975  -41.4156   -6.9932 N   0  0  0  0  0  0  0  0  0  0  0  0
  -17.7859  -40.2696   -7.8256 C   0  0  1  0  0  0  0  0  0  0  0  0
  -18.9323  -39.3606   -7.6285 C   0  0  0  0  0  0  0  0  0  0  0  0
  -16.4495  -39.5567   -8.0548 C   0  0  2  0  0  0  0  0  0  0  0  0
  -16.8193  -38.3051   -8.6059 O   0  0  0  0  0  0  0  0  0  0  0  0
  -15.7050  -40.2154   -9.2382 C   0  0  0  0  0  0  0  0  0  0  0  0
  -14.3976  -39.5915   -9.2545 N   0  0  0  0  0  0  0  0  0  0  0  0
  -13.8968  -39.2961  -10.5646 C   0  0  0  0  0  0  0  0  0  0  0  0
  -12.4994  -39.6342  -10.9425 C   0  0  0  0  0  0  0  0  0  0  0  0
  -13.6109  -40.5745  -11.3787 C   0  0  0  0  0  0  0  0  0  0  0  0
  -14.5436  -38.1838  -11.2897 C   0  0  0  0  0  0  0  0  0  0  0  0
  -13.8758  -37.1025  -11.8099 C   0  0  0  0  0  0  0  0  0  0  0  0
  -14.4752  -36.0569  -12.4572 C   0  0  0  0  0  0  0  0  0  0  0  0
  -15.8442  -36.0834  -12.6028 C   0  0  0  0  0  0  0  0  0  0  0  0
  -16.5150  -37.1712  -12.0805 C   0  0  0  0  0  0  0  0  0  0  0  0
  -15.9004  -38.1825  -11.4499 N   0  0  0  0  0  0  0  0  0  0  0  0
  -13.6665  -34.9191  -12.9912 C   0  0  0  0  0  0  0  0  0  0  0  0
  -12.8308  -34.3707  -11.8754 C   0  0  0  0  0  0  0  0  0  0  0  0
  -14.5857  -33.8208  -13.5086 C   0  0  0  0  0  0  0  0  0  0  0  0
  -12.8747  -35.4266  -14.1643 C   0  0  0  0  0  0  0  0  0  0  0  0
  2  1  1  1
  2  3  1  0
  3  4  1  0
  4  5  1  0
  5  6  1  0
  6  7  1  0
  7  8  1  0
  8  9  1  0
  9 10  1  0
 10 11  1  0
 11 12  2  0
 11 13  1  0
 13 14  1  0
 13 15  1  0
 15 16  1  1
 15 17  1  0
 17 18  2  0
 17 19  1  0
 19 20  1  0
 20 21  1  1
 20 22  1  0
 22 23  1  6
 22 24  1  0
 24 25  1  0
 25 26  1  0
 26 27  1  0
 27 28  1  0
 26 29  1  0
 29 30  2  0
 30 31  1  0
 31 32  2  0
 32 33  1  0
 33 34  2  0
 31 35  1  0
 35 36  1  0
 35 37  1  0
 35 38  1  0
 21  2  1  0
 28 26  1  0
 34 29  1  0
M  END
$$$$
