
     RDKit          3D

 38 40  0  0  0  0  0  0  0  0999 V2000
  -18.9841  -37.8735   -5.9763 C   0  0  0  0  0  0  0  0  0  0  0  0
  -20.0662  -38.4855   -6.7946 C   0  0  2  0  0  0  0  0  0  0  0  0
  -21.0415  -39.1880   -5.8723 C   0  0  0  0  0  0  0  0  0  0  0  0
  -22.4743  -38.6968   -6.1121 C   0  0  0  0  0  0  0  0  0  0  0  0
  -23.4667  -39.3327   -5.1993 C   0  0  0  0  0  0  0  0  0  0  0  0
  -23.9746  -40.6067   -5.7955 C   0  0  0  0  0  0  0  0  0  0  0  0
  -23.5680  -41.7546   -4.8738 C   0  0  0  0  0  0  0  0  0  0  0  0
  -23.4094  -42.9932   -5.7117 C   0  0  0  0  0  0  0  0  0  0  0  0
  -22.1600  -43.7599   -5.3220 C   0  0  0  0  0  0  0  0  0  0  0  0
  -20.9676  -43.3186   -6.1872 C   0  0  0  0  0  0  0  0  0  0  0  0
  -20.1465  -44.4945   -6.5816 C   0  0  0  0  0  0  0  0  0  0  0  0
  -20.7505  -45.6252   -6.5323 O   0  0  0  0  0  0  0  0  0  0  0  0
  -18.7960  -44.4509   -6.9907 N   0  0  0  0  0  0  0  0  0  0  0  0
  -17.8886  -45.4585   -6.4507 C   0  0  0  0  0  0  0  0  0  0  0  0
  -18.2797  -43.4417   -7.9342 C   0  0  1  0  0  0  0  0  0  0  0  0
  -19.2357  -43.1145   -9.0185 C   0  0  0  0  0  0  0  0  0  0  0  0
  -17.6943  -42.3030   -7.2006 C   0  0  0  0  0  0  0  0  0  0  0  0
  -16.5839  -42.6022   -6.6016 O   0  0  0  0  0  0  0  0  0  0  0  0
  -18.1809  -40.9908   -7.0800 N   0  0  0  0  0  0  0  0  0  0  0  0
  -18.4245  -39.9931   -8.0595 C   0  0  1  0  0  0  0  0  0  0  0  0
  -19.6980  -39.2501   -7.9854 C   0  0  0  0  0  0  0  0  0  0  0  0
  -17.2062  -39.1234   -8.3849 C   0  0  2  0  0  0  0  0  0  0  0  0
  -17.4686  -38.6419   -9.6912 O   0  0  0  0  0  0  0  0  0  0  0  0
  -15.9728  -40.0240   -8.6220 C   0  0  0  0  0  0  0  0  0  0  0  0
  -15.7959  -40.0491  -10.0597 N   0  0  0  0  0  0  0  0  0  0  0  0
  -14.4352  -39.9272  -10.4930 C   0  0  0  0  0  0  0  0  0  0  0  0
  -13.3529  -40.7118   -9.8426 C   0  0  0  0  0  0  0  0  0  0  0  0
  -13.9197  -41.2198  -11.1582 C   0  0  0  0  0  0  0  0  0  0  0  0
  -14.0538  -38.6556  -11.1402 C   0  0  0  0  0  0  0  0  0  0  0  0
  -12.7766  -38.3340  -11.5294 C   0  0  0  0  0  0  0  0  0  0  0  0
  -12.4152  -37.1459  -12.1034 C   0  0  0  0  0  0  0  0  0  0  0  0
  -13.3951  -36.2009  -12.3100 C   0  0  0  0  0  0  0  0  0  0  0  0
  -14.6791  -36.5251  -11.9193 C   0  0  0  0  0  0  0  0  0  0  0  0
  -15.0042  -37.6988  -11.3583 N   0  0  0  0  0  0  0  0  0  0  0  0
  -10.9972  -36.8823  -12.4950 C   0  0  0  0  0  0  0  0  0  0  0  0
  -10.9707  -35.6789  -13.3868 C   0  0  0  0  0  0  0  0  0  0  0  0
  -10.4335  -38.0755  -13.2551 C   0  0  0  0  0  0  0  0  0  0  0  0
  -10.1903  -36.7354  -11.2349 C   0  0  0  0  0  0  0  0  0  0  0  0
  2  1  1  1
  2  3  1  0
  3  4  1  0
  4  5  1  0
  5  6  1  0
  6  7  1  0
  7  8  1  0
  8  9  1  0
  9 10  1  0
 10 11  1  0
 11 12  2  0
 11 13  1  0
 13 14  1  0
 13 15  1  0
 15 16  1  1
 15 17  1  0
 17 18  2  0
 17 19  1  0
 19 20  1  0
 20 21  1  1
 20 22  1  0
 22 23  1  6
 22 24  1  0
 24 25  1  0
 25 26  1  0
 26 27  1  0
 27 28  1  0
 26 29  1  0
 29 30  2  0
 30 31  1  0
 31 32  2  0
 32 33  1  0
 33 34  2  0
 31 35  1  0
 35 36  1  0
 35 37  1  0
 35 38  1  0
 21  2  1  0
 28 26  1  0
 34 29  1  0
M  END
$$$$
