
     RDKit          3D

 38 40  0  0  0  0  0  0  0  0999 V2000
  -18.8424  -38.1466   -6.2830 C   0  0  0  0  0  0  0  0  0  0  0  0
  -19.9152  -38.6367   -7.1908 C   0  0  2  0  0  0  0  0  0  0  0  0
  -20.9062  -39.4512   -6.3847 C   0  0  0  0  0  0  0  0  0  0  0  0
  -22.3335  -38.9239   -6.5756 C   0  0  0  0  0  0  0  0  0  0  0  0
  -23.3412  -39.6711   -5.7702 C   0  0  0  0  0  0  0  0  0  0  0  0
  -23.8456  -40.8503   -6.5392 C   0  0  0  0  0  0  0  0  0  0  0  0
  -23.4566  -42.1142   -5.7750 C   0  0  0  0  0  0  0  0  0  0  0  0
  -23.2911  -43.2296   -6.7697 C   0  0  0  0  0  0  0  0  0  0  0  0
  -22.0504  -44.0490   -6.4699 C   0  0  0  0  0  0  0  0  0  0  0  0
  -20.8441  -43.5022   -7.2516 C   0  0  0  0  0  0  0  0  0  0  0  0
  -20.0221  -44.6192   -7.7896 C   0  0  0  0  0  0  0  0  0  0  0  0
  -20.6312  -45.7427   -7.9011 O   0  0  0  0  0  0  0  0  0  0  0  0
  -18.6658  -44.5288   -8.1708 N   0  0  0  0  0  0  0  0  0  0  0  0
  -17.7701  -45.6051   -7.7592 C   0  0  0  0  0  0  0  0  0  0  0  0
  -18.1322  -43.4048   -8.9629 C   0  0  1  0  0  0  0  0  0  0  0  0
  -19.0715  -42.9292  -10.0061 C   0  0  0  0  0  0  0  0  0  0  0  0
  -17.5528  -42.3786   -8.0748 C   0  0  0  0  0  0  0  0  0  0  0  0
  -16.4522  -42.7621   -7.5066 O   0  0  0  0  0  0  0  0  0  0  0  0
  -18.0358  -41.0917   -7.7852 N   0  0  0  0  0  0  0  0  0  0  0  0
  -18.2617  -39.9700   -8.6248 C   0  0  1  0  0  0  0  0  0  0  0  0
  -19.5331  -39.2362   -8.4685 C   0  0  0  0  0  0  0  0  0  0  0  0
  -17.0355  -39.0714   -8.8137 C   0  0  2  0  0  0  0  0  0  0  0  0
  -17.3157  -38.3559  -10.0038 O   0  0  0  0  0  0  0  0  0  0  0  0
  -15.8225  -39.9296   -9.2392 C   0  0  0  0  0  0  0  0  0  0  0  0
  -15.7558  -39.7985  -10.6804 N   0  0  0  0  0  0  0  0  0  0  0  0
  -14.4993  -40.1811  -11.2541 C   0  0  0  0  0  0  0  0  0  0  0  0
  -14.0301  -41.5905  -11.1955 C   0  0  0  0  0  0  0  0  0  0  0  0
  -14.6768  -41.0997  -12.4803 C   0  0  0  0  0  0  0  0  0  0  0  0
  -13.4688  -39.1288  -11.3626 C   0  0  0  0  0  0  0  0  0  0  0  0
  -13.7345  -37.8017  -11.5955 C   0  0  0  0  0  0  0  0  0  0  0  0
  -12.7809  -36.8293  -11.7247 C   0  0  0  0  0  0  0  0  0  0  0  0
  -11.4591  -37.1985  -11.6134 C   0  0  0  0  0  0  0  0  0  0  0  0
  -11.1925  -38.5327  -11.3783 C   0  0  0  0  0  0  0  0  0  0  0  0
  -12.1488  -39.4647  -11.2564 N   0  0  0  0  0  0  0  0  0  0  0  0
  -13.1639  -35.4072  -11.9788 C   0  0  0  0  0  0  0  0  0  0  0  0
  -11.9100  -34.5988  -12.1151 C   0  0  0  0  0  0  0  0  0  0  0  0
  -13.9775  -34.8673  -10.8101 C   0  0  0  0  0  0  0  0  0  0  0  0
  -14.0525  -35.3783  -13.1912 C   0  0  0  0  0  0  0  0  0  0  0  0
  2  1  1  1
  2  3  1  0
  3  4  1  0
  4  5  1  0
  5  6  1  0
  6  7  1  0
  7  8  1  0
  8  9  1  0
  9 10  1  0
 10 11  1  0
 11 12  2  0
 11 13  1  0
 13 14  1  0
 13 15  1  0
 15 16  1  1
 15 17  1  0
 17 18  2  0
 17 19  1  0
 19 20  1  0
 20 21  1  1
 20 22  1  0
 22 23  1  6
 22 24  1  0
 24 25  1  0
 25 26  1  0
 26 27  1  0
 27 28  1  0
 26 29  1  0
 29 30  2  0
 30 31  1  0
 31 32  2  0
 32 33  1  0
 33 34  2  0
 31 35  1  0
 35 36  1  0
 35 37  1  0
 35 38  1  0
 21  2  1  0
 28 26  1  0
 34 29  1  0
M  END
$$$$
