
     RDKit          3D

 38 40  0  0  0  0  0  0  0  0999 V2000
  -18.2682  -38.6882   -5.1252 C   0  0  0  0  0  0  0  0  0  0  0  0
  -19.1862  -38.6885   -6.2967 C   0  0  2  0  0  0  0  0  0  0  0  0
  -20.4516  -39.4359   -5.9287 C   0  0  0  0  0  0  0  0  0  0  0  0
  -21.6932  -38.5748   -6.1903 C   0  0  0  0  0  0  0  0  0  0  0  0
  -22.9631  -39.2549   -5.8064 C   0  0  0  0  0  0  0  0  0  0  0  0
  -23.4814  -40.0656   -6.9512 C   0  0  0  0  0  0  0  0  0  0  0  0
  -23.4870  -41.5327   -6.5267 C   0  0  0  0  0  0  0  0  0  0  0  0
  -23.3015  -42.3762   -7.7576 C   0  0  0  0  0  0  0  0  0  0  0  0
  -22.3123  -43.4984   -7.5067 C   0  0  0  0  0  0  0  0  0  0  0  0
  -20.8906  -43.0573   -7.8932 C   0  0  0  0  0  0  0  0  0  0  0  0
  -20.1731  -44.1606   -8.5865 C   0  0  0  0  0  0  0  0  0  0  0  0
  -20.9249  -45.0578   -9.1113 O   0  0  0  0  0  0  0  0  0  0  0  0
  -18.7712  -44.2821   -8.7005 N   0  0  0  0  0  0  0  0  0  0  0  0
  -18.1816  -45.5976   -8.4732 C   0  0  0  0  0  0  0  0  0  0  0  0
  -17.8962  -43.1447   -9.0413 C   0  0  1  0  0  0  0  0  0  0  0  0
  -18.4929  -42.2302  -10.0436 C   0  0  0  0  0  0  0  0  0  0  0  0
  -17.3575  -42.5243   -7.8156 C   0  0  0  0  0  0  0  0  0  0  0  0
  -16.4873  -43.2704   -7.2095 O   0  0  0  0  0  0  0  0  0  0  0  0
  -17.6666  -41.2746   -7.2534 N   0  0  0  0  0  0  0  0  0  0  0  0
  -17.5119  -39.9592   -7.7630 C   0  0  1  0  0  0  0  0  0  0  0  0
  -18.6438  -39.0235   -7.6127 C   0  0  0  0  0  0  0  0  0  0  0  0
  -16.1398  -39.3369   -7.4860 C   0  0  2  0  0  0  0  0  0  0  0  0
  -16.2193  -38.0539   -8.0815 O   0  0  0  0  0  0  0  0  0  0  0  0
  -15.0696  -40.0263   -8.3625 C   0  0  0  0  0  0  0  0  0  0  0  0
  -13.9035  -39.1712   -8.2747 N   0  0  0  0  0  0  0  0  0  0  0  0
  -13.1564  -39.0587   -9.4927 C   0  0  0  0  0  0  0  0  0  0  0  0
  -11.6811  -38.8768   -9.4702 C   0  0  0  0  0  0  0  0  0  0  0  0
  -12.2310  -40.2714   -9.7203 C   0  0  0  0  0  0  0  0  0  0  0  0
  -13.8826  -38.5527  -10.6751 C   0  0  0  0  0  0  0  0  0  0  0  0
  -13.7899  -37.2687  -11.1534 C   0  0  0  0  0  0  0  0  0  0  0  0
  -14.4828  -36.7892  -12.2312 C   0  0  0  0  0  0  0  0  0  0  0  0
  -15.3343  -37.6483  -12.8892 C   0  0  0  0  0  0  0  0  0  0  0  0
  -15.4263  -38.9393  -12.4084 C   0  0  0  0  0  0  0  0  0  0  0  0
  -14.7344  -39.3818  -11.3484 N   0  0  0  0  0  0  0  0  0  0  0  0
  -14.3191  -35.3734  -12.6812 C   0  0  0  0  0  0  0  0  0  0  0  0
  -14.8496  -35.2586  -14.0775 C   0  0  0  0  0  0  0  0  0  0  0  0
  -12.8454  -34.9899  -12.6774 C   0  0  0  0  0  0  0  0  0  0  0  0
  -15.0121  -34.4889  -11.6823 C   0  0  0  0  0  0  0  0  0  0  0  0
  2  1  1  1
  2  3  1  0
  3  4  1  0
  4  5  1  0
  5  6  1  0
  6  7  1  0
  7  8  1  0
  8  9  1  0
  9 10  1  0
 10 11  1  0
 11 12  2  0
 11 13  1  0
 13 14  1  0
 13 15  1  0
 15 16  1  1
 15 17  1  0
 17 18  2  0
 17 19  1  0
 19 20  1  0
 20 21  1  1
 20 22  1  0
 22 23  1  6
 22 24  1  0
 24 25  1  0
 25 26  1  0
 26 27  1  0
 27 28  1  0
 26 29  1  0
 29 30  2  0
 30 31  1  0
 31 32  2  0
 32 33  1  0
 33 34  2  0
 31 35  1  0
 35 36  1  0
 35 37  1  0
 35 38  1  0
 21  2  1  0
 28 26  1  0
 34 29  1  0
M  END
$$$$
