
     RDKit          3D

 38 40  0  0  0  0  0  0  0  0999 V2000
  -18.5143  -37.1467   -6.8189 C   0  0  0  0  0  0  0  0  0  0  0  0
  -19.5012  -37.8225   -7.7048 C   0  0  2  0  0  0  0  0  0  0  0  0
  -20.7365  -38.1607   -6.8955 C   0  0  0  0  0  0  0  0  0  0  0  0
  -21.9980  -37.5920   -7.5564 C   0  0  0  0  0  0  0  0  0  0  0  0
  -23.2373  -37.8667   -6.7747 C   0  0  0  0  0  0  0  0  0  0  0  0
  -23.8175  -39.1862   -7.1731 C   0  0  0  0  0  0  0  0  0  0  0  0
  -23.7866  -40.1037   -5.9526 C   0  0  0  0  0  0  0  0  0  0  0  0
  -23.6692  -41.5224   -6.4371 C   0  0  0  0  0  0  0  0  0  0  0  0
  -22.6584  -42.2985   -5.6145 C   0  0  0  0  0  0  0  0  0  0  0  0
  -21.2659  -42.2209   -6.2627 C   0  0  0  0  0  0  0  0  0  0  0  0
  -20.5832  -43.5405   -6.1902 C   0  0  0  0  0  0  0  0  0  0  0  0
  -21.3585  -44.5499   -6.0300 O   0  0  0  0  0  0  0  0  0  0  0  0
  -19.1898  -43.7485   -6.2819 N   0  0  0  0  0  0  0  0  0  0  0  0
  -18.5777  -44.6813   -5.3410 C   0  0  0  0  0  0  0  0  0  0  0  0
  -18.3454  -43.0705   -7.2833 C   0  0  1  0  0  0  0  0  0  0  0  0
  -19.0082  -42.9232   -8.6008 C   0  0  0  0  0  0  0  0  0  0  0  0
  -17.7386  -41.8552   -6.7069 C   0  0  0  0  0  0  0  0  0  0  0  0
  -16.8279  -42.1139   -5.8210 O   0  0  0  0  0  0  0  0  0  0  0  0
  -18.0226  -40.5095   -6.9934 N   0  0  0  0  0  0  0  0  0  0  0  0
  -17.9087  -39.7688   -8.1986 C   0  0  1  0  0  0  0  0  0  0  0  0
  -19.0365  -38.8966   -8.5814 C   0  0  0  0  0  0  0  0  0  0  0  0
  -16.5271  -39.1467   -8.4238 C   0  0  2  0  0  0  0  0  0  0  0  0
  -16.6379  -38.5153   -9.6871 O   0  0  0  0  0  0  0  0  0  0  0  0
  -15.4966  -40.2607   -8.7167 C   0  0  0  0  0  0  0  0  0  0  0  0
  -14.2075  -39.6011   -8.6757 N   0  0  0  0  0  0  0  0  0  0  0  0
  -13.3814  -39.8398   -9.8224 C   0  0  0  0  0  0  0  0  0  0  0  0
  -12.6815  -41.1388  -10.0028 C   0  0  0  0  0  0  0  0  0  0  0  0
  -13.9810  -40.9102  -10.7571 C   0  0  0  0  0  0  0  0  0  0  0  0
  -12.7869  -38.6547  -10.4733 C   0  0  0  0  0  0  0  0  0  0  0  0
  -12.2772  -38.6421  -11.7484 C   0  0  0  0  0  0  0  0  0  0  0  0
  -11.7004  -37.5538  -12.3439 C   0  0  0  0  0  0  0  0  0  0  0  0
  -11.6226  -36.3844  -11.6211 C   0  0  0  0  0  0  0  0  0  0  0  0
  -12.1361  -36.3974  -10.3395 C   0  0  0  0  0  0  0  0  0  0  0  0
  -12.6961  -37.4804   -9.7812 N   0  0  0  0  0  0  0  0  0  0  0  0
  -11.1706  -37.6327  -13.7392 C   0  0  0  0  0  0  0  0  0  0  0  0
  -11.0392  -36.2391  -14.2727 C   0  0  0  0  0  0  0  0  0  0  0  0
  -12.1354  -38.4130  -14.6221 C   0  0  0  0  0  0  0  0  0  0  0  0
   -9.8803  -38.4035  -13.6997 C   0  0  0  0  0  0  0  0  0  0  0  0
  2  1  1  1
  2  3  1  0
  3  4  1  0
  4  5  1  0
  5  6  1  0
  6  7  1  0
  7  8  1  0
  8  9  1  0
  9 10  1  0
 10 11  1  0
 11 12  2  0
 11 13  1  0
 13 14  1  0
 13 15  1  0
 15 16  1  6
 15 17  1  0
 17 18  2  0
 17 19  1  0
 19 20  1  0
 20 21  1  1
 20 22  1  0
 22 23  1  6
 22 24  1  0
 24 25  1  0
 25 26  1  0
 26 27  1  0
 27 28  1  0
 26 29  1  0
 29 30  2  0
 30 31  1  0
 31 32  2  0
 32 33  1  0
 33 34  2  0
 31 35  1  0
 35 36  1  0
 35 37  1  0
 35 38  1  0
 21  2  1  0
 28 26  1  0
 34 29  1  0
M  END
$$$$
