
     RDKit          3D

 38 40  0  0  0  0  0  0  0  0999 V2000
  -17.7005  -37.6119   -6.3401 C   0  0  0  0  0  0  0  0  0  0  0  0
  -18.9297  -38.0999   -7.0227 C   0  0  2  0  0  0  0  0  0  0  0  0
  -19.8584  -38.7037   -5.9892 C   0  0  0  0  0  0  0  0  0  0  0  0
  -21.2497  -38.0627   -6.0606 C   0  0  0  0  0  0  0  0  0  0  0  0
  -22.1893  -38.5985   -5.0347 C   0  0  0  0  0  0  0  0  0  0  0  0
  -22.8951  -39.8071   -5.5617 C   0  0  0  0  0  0  0  0  0  0  0  0
  -22.5061  -40.9990   -4.6896 C   0  0  0  0  0  0  0  0  0  0  0  0
  -22.5785  -42.2403   -5.5352 C   0  0  0  0  0  0  0  0  0  0  0  0
  -21.3797  -43.1373   -5.2922 C   0  0  0  0  0  0  0  0  0  0  0  0
  -20.2574  -42.8165   -6.2936 C   0  0  0  0  0  0  0  0  0  0  0  0
  -19.6168  -44.0688   -6.7772 C   0  0  0  0  0  0  0  0  0  0  0  0
  -20.3265  -45.1301   -6.6525 O   0  0  0  0  0  0  0  0  0  0  0  0
  -18.3267  -44.1639   -7.3427 N   0  0  0  0  0  0  0  0  0  0  0  0
  -17.4734  -45.2657   -6.9091 C   0  0  0  0  0  0  0  0  0  0  0  0
  -17.8214  -43.2067   -8.3445 C   0  0  1  0  0  0  0  0  0  0  0  0
  -18.8585  -42.7718   -9.3100 C   0  0  0  0  0  0  0  0  0  0  0  0
  -17.0373  -42.1420   -7.6896 C   0  0  0  0  0  0  0  0  0  0  0  0
  -15.9019  -42.5612   -7.2243 O   0  0  0  0  0  0  0  0  0  0  0  0
  -17.3653  -40.7869   -7.5179 N   0  0  0  0  0  0  0  0  0  0  0  0
  -17.6160  -39.7611   -8.4659 C   0  0  1  0  0  0  0  0  0  0  0  0
  -18.7865  -38.8889   -8.2454 C   0  0  0  0  0  0  0  0  0  0  0  0
  -16.3596  -39.0214   -8.9361 C   0  0  2  0  0  0  0  0  0  0  0  0
  -16.7257  -38.4935  -10.1987 O   0  0  0  0  0  0  0  0  0  0  0  0
  -15.2689  -40.0448   -9.3258 C   0  0  0  0  0  0  0  0  0  0  0  0
  -15.6012  -40.4533  -10.6755 N   0  0  0  0  0  0  0  0  0  0  0  0
  -14.4721  -40.8103  -11.4829 C   0  0  0  0  0  0  0  0  0  0  0  0
  -13.9837  -42.2133  -11.5360 C   0  0  0  0  0  0  0  0  0  0  0  0
  -14.8684  -41.7156  -12.6671 C   0  0  0  0  0  0  0  0  0  0  0  0
  -13.4933  -39.7418  -11.7689 C   0  0  0  0  0  0  0  0  0  0  0  0
  -13.8010  -38.4055  -11.8428 C   0  0  0  0  0  0  0  0  0  0  0  0
  -12.9023  -37.4163  -12.1353 C   0  0  0  0  0  0  0  0  0  0  0  0
  -11.5949  -37.7774  -12.3725 C   0  0  0  0  0  0  0  0  0  0  0  0
  -11.2860  -39.1209  -12.2971 C   0  0  0  0  0  0  0  0  0  0  0  0
  -12.1888  -40.0693  -12.0083 N   0  0  0  0  0  0  0  0  0  0  0  0
  -13.3282  -35.9850  -12.1951 C   0  0  0  0  0  0  0  0  0  0  0  0
  -12.7315  -35.2667  -11.0237 C   0  0  0  0  0  0  0  0  0  0  0  0
  -14.8459  -35.8867  -12.1165 C   0  0  0  0  0  0  0  0  0  0  0  0
  -12.9150  -35.4361  -13.5324 C   0  0  0  0  0  0  0  0  0  0  0  0
  2  1  1  1
  2  3  1  0
  3  4  1  0
  4  5  1  0
  5  6  1  0
  6  7  1  0
  7  8  1  0
  8  9  1  0
  9 10  1  0
 10 11  1  0
 11 12  2  0
 11 13  1  0
 13 14  1  0
 13 15  1  0
 15 16  1  1
 15 17  1  0
 17 18  2  0
 17 19  1  0
 19 20  1  0
 20 21  1  1
 20 22  1  0
 22 23  1  6
 22 24  1  0
 24 25  1  0
 25 26  1  0
 26 27  1  0
 27 28  1  0
 26 29  1  0
 29 30  2  0
 30 31  1  0
 31 32  2  0
 32 33  1  0
 33 34  2  0
 31 35  1  0
 35 36  1  0
 35 37  1  0
 35 38  1  0
 21  2  1  0
 28 26  1  0
 34 29  1  0
M  END
$$$$
