
     RDKit          3D

 38 40  0  0  0  0  0  0  0  0999 V2000
  -18.8665  -37.6595   -5.6166 C   0  0  0  0  0  0  0  0  0  0  0  0
  -19.8289  -38.1746   -6.6284 C   0  0  2  0  0  0  0  0  0  0  0  0
  -20.8195  -39.0920   -5.9413 C   0  0  0  0  0  0  0  0  0  0  0  0
  -22.2613  -38.6522   -6.2231 C   0  0  0  0  0  0  0  0  0  0  0  0
  -23.2733  -39.5036   -5.5350 C   0  0  0  0  0  0  0  0  0  0  0  0
  -23.6326  -40.6745   -6.3931 C   0  0  0  0  0  0  0  0  0  0  0  0
  -23.2160  -41.9457   -5.6562 C   0  0  0  0  0  0  0  0  0  0  0  0
  -22.8960  -42.9973   -6.6824 C   0  0  0  0  0  0  0  0  0  0  0  0
  -21.6277  -43.7460   -6.3198 C   0  0  0  0  0  0  0  0  0  0  0  0
  -20.4060  -43.0823   -6.9772 C   0  0  0  0  0  0  0  0  0  0  0  0
  -19.4684  -44.1141   -7.4957 C   0  0  0  0  0  0  0  0  0  0  0  0
  -19.9866  -45.2688   -7.7051 O   0  0  0  0  0  0  0  0  0  0  0  0
  -18.0964  -43.9149   -7.7622 N   0  0  0  0  0  0  0  0  0  0  0  0
  -17.1618  -44.9481   -7.3273 C   0  0  0  0  0  0  0  0  0  0  0  0
  -17.5835  -42.7202   -8.4586 C   0  0  1  0  0  0  0  0  0  0  0  0
  -18.4704  -42.2574   -9.5522 C   0  0  0  0  0  0  0  0  0  0  0  0
  -17.1480  -41.7028   -7.4827 C   0  0  0  0  0  0  0  0  0  0  0  0
  -16.0704  -42.0396   -6.8451 O   0  0  0  0  0  0  0  0  0  0  0  0
  -17.7413  -40.4667   -7.1768 N   0  0  0  0  0  0  0  0  0  0  0  0
  -17.9798  -39.3225   -7.9818 C   0  0  1  0  0  0  0  0  0  0  0  0
  -19.3080  -38.6837   -7.8964 C   0  0  0  0  0  0  0  0  0  0  0  0
  -16.8089  -38.3361   -8.0318 C   0  0  2  0  0  0  0  0  0  0  0  0
  -17.3859  -37.1453   -8.5379 O   0  0  0  0  0  0  0  0  0  0  0  0
  -15.8452  -38.7304   -9.1739 C   0  0  0  0  0  0  0  0  0  0  0  0
  -15.9849  -37.6813  -10.1632 N   0  0  0  0  0  0  0  0  0  0  0  0
  -15.7026  -38.0910  -11.5074 C   0  0  0  0  0  0  0  0  0  0  0  0
  -16.6891  -38.8829  -12.2880 C   0  0  0  0  0  0  0  0  0  0  0  0
  -16.6130  -37.3849  -12.5328 C   0  0  0  0  0  0  0  0  0  0  0  0
  -14.2792  -38.2306  -11.8759 C   0  0  0  0  0  0  0  0  0  0  0  0
  -13.2284  -37.9717  -11.0305 C   0  0  0  0  0  0  0  0  0  0  0  0
  -11.9089  -38.0728  -11.3774 C   0  0  0  0  0  0  0  0  0  0  0  0
  -11.6042  -38.4622  -12.6625 C   0  0  0  0  0  0  0  0  0  0  0  0
  -12.6610  -38.7233  -13.5118 C   0  0  0  0  0  0  0  0  0  0  0  0
  -13.9460  -38.6153  -13.1437 N   0  0  0  0  0  0  0  0  0  0  0  0
  -10.8297  -37.7696  -10.3889 C   0  0  0  0  0  0  0  0  0  0  0  0
  -10.6954  -38.9405   -9.4642 C   0  0  0  0  0  0  0  0  0  0  0  0
  -11.1960  -36.5350   -9.5760 C   0  0  0  0  0  0  0  0  0  0  0  0
   -9.5793  -37.4423  -11.1570 C   0  0  0  0  0  0  0  0  0  0  0  0
  2  1  1  1
  2  3  1  0
  3  4  1  0
  4  5  1  0
  5  6  1  0
  6  7  1  0
  7  8  1  0
  8  9  1  0
  9 10  1  0
 10 11  1  0
 11 12  2  0
 11 13  1  0
 13 14  1  0
 13 15  1  0
 15 16  1  6
 15 17  1  0
 17 18  2  0
 17 19  1  0
 19 20  1  0
 20 21  1  1
 20 22  1  0
 22 23  1  6
 22 24  1  0
 24 25  1  0
 25 26  1  0
 26 27  1  0
 27 28  1  0
 26 29  1  0
 29 30  2  0
 30 31  1  0
 31 32  2  0
 32 33  1  0
 33 34  2  0
 31 35  1  0
 35 36  1  0
 35 37  1  0
 35 38  1  0
 21  2  1  0
 28 26  1  0
 34 29  1  0
M  END
$$$$
