
     RDKit          3D

 38 40  0  0  0  0  0  0  0  0999 V2000
  -19.3703  -37.5754   -5.8775 C   0  0  0  0  0  0  0  0  0  0  0  0
  -19.9957  -38.1947   -7.0777 C   0  0  2  0  0  0  0  0  0  0  0  0
  -21.2194  -38.9765   -6.6455 C   0  0  0  0  0  0  0  0  0  0  0  0
  -22.4591  -38.5344   -7.4326 C   0  0  0  0  0  0  0  0  0  0  0  0
  -23.6982  -39.2499   -7.0144 C   0  0  0  0  0  0  0  0  0  0  0  0
  -23.8518  -40.5163   -7.7949 C   0  0  0  0  0  0  0  0  0  0  0  0
  -23.7880  -41.6859   -6.8149 C   0  0  0  0  0  0  0  0  0  0  0  0
  -23.2373  -42.8789   -7.5461 C   0  0  0  0  0  0  0  0  0  0  0  0
  -22.2104  -43.6102   -6.7026 C   0  0  0  0  0  0  0  0  0  0  0  0
  -20.7969  -43.0827   -7.0010 C   0  0  0  0  0  0  0  0  0  0  0  0
  -19.8229  -44.2056   -7.0572 C   0  0  0  0  0  0  0  0  0  0  0  0
  -20.3321  -45.3611   -7.2832 O   0  0  0  0  0  0  0  0  0  0  0  0
  -18.4266  -44.0887   -6.8841 N   0  0  0  0  0  0  0  0  0  0  0  0
  -17.7594  -45.0809   -6.0473 C   0  0  0  0  0  0  0  0  0  0  0  0
  -17.6306  -43.0187   -7.5141 C   0  0  1  0  0  0  0  0  0  0  0  0
  -18.0856  -42.6837   -8.8844 C   0  0  0  0  0  0  0  0  0  0  0  0
  -17.4542  -41.8903   -6.5798 C   0  0  0  0  0  0  0  0  0  0  0  0
  -16.6643  -42.1697   -5.5902 O   0  0  0  0  0  0  0  0  0  0  0  0
  -18.0198  -40.6057   -6.6353 N   0  0  0  0  0  0  0  0  0  0  0  0
  -17.9031  -39.5768   -7.6058 C   0  0  1  0  0  0  0  0  0  0  0  0
  -19.1375  -38.8905   -8.0355 C   0  0  0  0  0  0  0  0  0  0  0  0
  -16.7070  -38.6444   -7.3901 C   0  0  2  0  0  0  0  0  0  0  0  0
  -17.2358  -37.5831   -6.6149 O   0  0  0  0  0  0  0  0  0  0  0  0
  -16.3617  -37.9266   -8.7146 C   0  0  0  0  0  0  0  0  0  0  0  0
  -15.2300  -38.6535   -9.2526 N   0  0  0  0  0  0  0  0  0  0  0  0
  -14.7800  -38.1899  -10.5321 C   0  0  0  0  0  0  0  0  0  0  0  0
  -15.6710  -37.3870  -11.4104 C   0  0  0  0  0  0  0  0  0  0  0  0
  -14.6338  -36.6550  -10.5748 C   0  0  0  0  0  0  0  0  0  0  0  0
  -13.7114  -38.9722  -11.1858 C   0  0  0  0  0  0  0  0  0  0  0  0
  -13.3254  -40.2330  -10.8020 C   0  0  0  0  0  0  0  0  0  0  0  0
  -12.3171  -40.9488  -11.3873 C   0  0  0  0  0  0  0  0  0  0  0  0
  -11.6371  -40.3723  -12.4367 C   0  0  0  0  0  0  0  0  0  0  0  0
  -12.0263  -39.1051  -12.8228 C   0  0  0  0  0  0  0  0  0  0  0  0
  -13.0192  -38.4266  -12.2296 N   0  0  0  0  0  0  0  0  0  0  0  0
  -11.9648  -42.3175  -10.9013 C   0  0  0  0  0  0  0  0  0  0  0  0
  -10.7173  -42.7599  -11.6029 C   0  0  0  0  0  0  0  0  0  0  0  0
  -13.0884  -43.2932  -11.2247 C   0  0  0  0  0  0  0  0  0  0  0  0
  -11.8436  -42.2583   -9.4039 C   0  0  0  0  0  0  0  0  0  0  0  0
  2  1  1  1
  2  3  1  0
  3  4  1  0
  4  5  1  0
  5  6  1  0
  6  7  1  0
  7  8  1  0
  8  9  1  0
  9 10  1  0
 10 11  1  0
 11 12  2  0
 11 13  1  0
 13 14  1  0
 13 15  1  0
 15 16  1  6
 15 17  1  0
 17 18  2  0
 17 19  1  0
 19 20  1  0
 20 21  1  1
 20 22  1  0
 22 23  1  1
 22 24  1  0
 24 25  1  0
 25 26  1  0
 26 27  1  0
 27 28  1  0
 26 29  1  0
 29 30  2  0
 30 31  1  0
 31 32  2  0
 32 33  1  0
 33 34  2  0
 31 35  1  0
 35 36  1  0
 35 37  1  0
 35 38  1  0
 21  2  1  0
 28 26  1  0
 34 29  1  0
M  END
$$$$
