
     RDKit          3D

 38 40  0  0  0  0  0  0  0  0999 V2000
  -15.6129  -36.4547  -10.5430 C   0  0  0  0  0  0  0  0  0  0  0  0
  -14.2497  -36.9324  -10.1840 C   0  0  2  0  0  0  0  0  0  0  0  0
  -13.4837  -37.2322  -11.4563 C   0  0  0  0  0  0  0  0  0  0  0  0
  -12.1502  -36.4756  -11.4850 C   0  0  0  0  0  0  0  0  0  0  0  0
  -11.3768  -36.7093  -12.7378 C   0  0  0  0  0  0  0  0  0  0  0  0
  -10.5055  -37.9156  -12.5897 C   0  0  0  0  0  0  0  0  0  0  0  0
  -10.9624  -38.9565  -13.6097 C   0  0  0  0  0  0  0  0  0  0  0  0
  -10.6527  -40.3202  -13.0569 C   0  0  0  0  0  0  0  0  0  0  0  0
  -11.8108  -41.2747  -13.2773 C   0  0  0  0  0  0  0  0  0  0  0  0
  -12.7529  -41.2653  -12.0618 C   0  0  0  0  0  0  0  0  0  0  0  0
  -13.2074  -42.6456  -11.7441 C   0  0  0  0  0  0  0  0  0  0  0  0
  -12.4603  -43.5854  -12.1959 O   0  0  0  0  0  0  0  0  0  0  0  0
  -14.3643  -42.9780  -11.0064 N   0  0  0  0  0  0  0  0  0  0  0  0
  -15.2037  -44.0611  -11.5087 C   0  0  0  0  0  0  0  0  0  0  0  0
  -14.7450  -42.2832   -9.7623 C   0  0  1  0  0  0  0  0  0  0  0  0
  -13.5831  -41.9324   -8.9116 C   0  0  0  0  0  0  0  0  0  0  0  0
  -15.7064  -41.2015  -10.0504 C   0  0  0  0  0  0  0  0  0  0  0  0
  -16.8754  -41.6410  -10.3987 O   0  0  0  0  0  0  0  0  0  0  0  0
  -15.5092  -39.8117   -9.9950 N   0  0  0  0  0  0  0  0  0  0  0  0
  -15.1628  -38.9617   -8.9126 C   0  0  1  0  0  0  0  0  0  0  0  0
  -14.1146  -37.9474   -9.1401 C   0  0  0  0  0  0  0  0  0  0  0  0
  -16.3616  -38.4574   -8.1031 C   0  0  2  0  0  0  0  0  0  0  0  0
  -15.9358  -38.5679   -6.7564 O   0  0  0  0  0  0  0  0  0  0  0  0
  -17.5025  -39.4984   -8.1601 C   0  0  0  0  0  0  0  0  0  0  0  0
  -17.3888  -40.2494   -6.9265 N   0  0  0  0  0  0  0  0  0  0  0  0
  -18.4741  -41.1521   -6.6783 C   0  0  0  0  0  0  0  0  0  0  0  0
  -18.2394  -42.6153   -6.5617 C   0  0  0  0  0  0  0  0  0  0  0  0
  -18.3793  -41.8044   -5.2839 C   0  0  0  0  0  0  0  0  0  0  0  0
  -19.8166  -40.7144   -7.1113 C   0  0  0  0  0  0  0  0  0  0  0  0
  -20.0856  -39.5072   -7.7081 C   0  0  0  0  0  0  0  0  0  0  0  0
  -21.3320  -39.0871   -8.0846 C   0  0  0  0  0  0  0  0  0  0  0  0
  -22.3971  -39.9286   -7.8536 C   0  0  0  0  0  0  0  0  0  0  0  0
  -22.1260  -41.1426   -7.2545 C   0  0  0  0  0  0  0  0  0  0  0  0
  -20.8927  -41.5279   -6.8956 N   0  0  0  0  0  0  0  0  0  0  0  0
  -21.5308  -37.7532   -8.7285 C   0  0  0  0  0  0  0  0  0  0  0  0
  -22.9913  -37.4225   -8.6859 C   0  0  0  0  0  0  0  0  0  0  0  0
  -21.0749  -37.7997  -10.1808 C   0  0  0  0  0  0  0  0  0  0  0  0
  -20.6519  -36.7621   -8.0174 C   0  0  0  0  0  0  0  0  0  0  0  0
  2  1  1  6
  2  3  1  0
  3  4  1  0
  4  5  1  0
  5  6  1  0
  6  7  1  0
  7  8  1  0
  8  9  1  0
  9 10  1  0
 10 11  1  0
 11 12  2  0
 11 13  1  0
 13 14  1  0
 13 15  1  0
 15 16  1  6
 15 17  1  0
 17 18  2  0
 17 19  1  0
 19 20  1  0
 20 21  1  6
 20 22  1  0
 22 23  1  1
 22 24  1  0
 24 25  1  0
 25 26  1  0
 26 27  1  0
 27 28  1  0
 26 29  1  0
 29 30  2  0
 30 31  1  0
 31 32  2  0
 32 33  1  0
 33 34  2  0
 31 35  1  0
 35 36  1  0
 35 37  1  0
 35 38  1  0
 21  2  1  0
 28 26  1  0
 34 29  1  0
M  END
$$$$
