
     RDKit          3D

 38 40  0  0  0  0  0  0  0  0999 V2000
  -18.8020  -38.3066   -5.6195 C   0  0  0  0  0  0  0  0  0  0  0  0
  -19.8347  -38.8288   -6.5554 C   0  0  2  0  0  0  0  0  0  0  0  0
  -20.7920  -39.7152   -5.7853 C   0  0  0  0  0  0  0  0  0  0  0  0
  -22.2425  -39.2592   -5.9843 C   0  0  0  0  0  0  0  0  0  0  0  0
  -23.2201  -40.0792   -5.2134 C   0  0  0  0  0  0  0  0  0  0  0  0
  -23.6505  -41.2630   -6.0194 C   0  0  0  0  0  0  0  0  0  0  0  0
  -23.2054  -42.5240   -5.2816 C   0  0  0  0  0  0  0  0  0  0  0  0
  -22.9672  -43.6029   -6.3015 C   0  0  0  0  0  0  0  0  0  0  0  0
  -21.6889  -44.3632   -6.0038 C   0  0  0  0  0  0  0  0  0  0  0  0
  -20.5027  -43.7334   -6.7531 C   0  0  0  0  0  0  0  0  0  0  0  0
  -19.6152  -44.7910   -7.3066 C   0  0  0  0  0  0  0  0  0  0  0  0
  -20.1621  -45.9418   -7.4557 O   0  0  0  0  0  0  0  0  0  0  0  0
  -18.2605  -44.6193   -7.6649 N   0  0  0  0  0  0  0  0  0  0  0  0
  -17.3146  -45.6572   -7.2670 C   0  0  0  0  0  0  0  0  0  0  0  0
  -17.7765  -43.4485   -8.4201 C   0  0  1  0  0  0  0  0  0  0  0  0
  -18.7253  -42.9962   -9.4651 C   0  0  0  0  0  0  0  0  0  0  0  0
  -17.2648  -42.4166   -7.4978 C   0  0  0  0  0  0  0  0  0  0  0  0
  -16.1532  -42.7561   -6.9229 O   0  0  0  0  0  0  0  0  0  0  0  0
  -17.8195  -41.1649   -7.1832 N   0  0  0  0  0  0  0  0  0  0  0  0
  -18.0930  -40.0352   -7.9975 C   0  0  1  0  0  0  0  0  0  0  0  0
  -19.4037  -39.3739   -7.8420 C   0  0  0  0  0  0  0  0  0  0  0  0
  -16.9138  -39.0686   -8.1451 C   0  0  2  0  0  0  0  0  0  0  0  0
  -17.5010  -37.8897   -8.6668 O   0  0  0  0  0  0  0  0  0  0  0  0
  -16.0152  -39.5200   -9.3187 C   0  0  0  0  0  0  0  0  0  0  0  0
  -14.6754  -39.1165   -8.9436 N   0  0  0  0  0  0  0  0  0  0  0  0
  -13.6935  -39.2862   -9.9739 C   0  0  0  0  0  0  0  0  0  0  0  0
  -12.2986  -39.6790   -9.6429 C   0  0  0  0  0  0  0  0  0  0  0  0
  -13.2560  -40.7577  -10.1222 C   0  0  0  0  0  0  0  0  0  0  0  0
  -13.9051  -38.5322  -11.2261 C   0  0  0  0  0  0  0  0  0  0  0  0
  -14.7497  -37.4567  -11.3525 C   0  0  0  0  0  0  0  0  0  0  0  0
  -14.9693  -36.7739  -12.5175 C   0  0  0  0  0  0  0  0  0  0  0  0
  -14.2994  -37.1869  -13.6474 C   0  0  0  0  0  0  0  0  0  0  0  0
  -13.4497  -38.2676  -13.5195 C   0  0  0  0  0  0  0  0  0  0  0  0
  -13.2542  -38.9183  -12.3635 N   0  0  0  0  0  0  0  0  0  0  0  0
  -15.9092  -35.6127  -12.5615 C   0  0  0  0  0  0  0  0  0  0  0  0
  -15.7676  -34.8434  -11.2839 C   0  0  0  0  0  0  0  0  0  0  0  0
  -17.3447  -36.1056  -12.6873 C   0  0  0  0  0  0  0  0  0  0  0  0
  -15.6016  -34.8168  -13.7993 C   0  0  0  0  0  0  0  0  0  0  0  0
  2  1  1  1
  2  3  1  0
  3  4  1  0
  4  5  1  0
  5  6  1  0
  6  7  1  0
  7  8  1  0
  8  9  1  0
  9 10  1  0
 10 11  1  0
 11 12  2  0
 11 13  1  0
 13 14  1  0
 13 15  1  0
 15 16  1  1
 15 17  1  0
 17 18  2  0
 17 19  1  0
 19 20  1  0
 20 21  1  1
 20 22  1  0
 22 23  1  6
 22 24  1  0
 24 25  1  0
 25 26  1  0
 26 27  1  0
 27 28  1  0
 26 29  1  0
 29 30  2  0
 30 31  1  0
 31 32  2  0
 32 33  1  0
 33 34  2  0
 31 35  1  0
 35 36  1  0
 35 37  1  0
 35 38  1  0
 21  2  1  0
 28 26  1  0
 34 29  1  0
M  END
$$$$
