
     RDKit          3D

 37 39  0  0  0  0  0  0  0  0999 V2000
  -13.3291  -34.4470  -12.9244 C   0  0  0  0  0  0  0  0  0  0  0  0
  -12.7457  -35.0211  -11.6644 C   0  0  0  0  0  0  0  0  0  0  0  0
  -11.2921  -34.5747  -11.5990 C   0  0  0  0  0  0  0  0  0  0  0  0
  -12.7344  -36.5103  -11.7413 C   0  0  0  0  0  0  0  0  0  0  0  0
  -13.0843  -37.3198  -10.6811 C   0  0  0  0  0  0  0  0  0  0  0  0
  -13.0632  -38.6857  -10.7681 C   0  0  0  0  0  0  0  0  0  0  0  0
  -13.4456  -39.5618   -9.6036 C   0  0  0  0  0  0  0  0  0  0  0  0
  -14.8553  -39.7690   -9.5900 N   0  0  0  0  0  0  0  0  0  0  0  0
  -15.4850  -39.0968   -8.4854 C   0  0  0  0  0  0  0  0  0  0  0  0
  -16.9240  -38.8176   -8.7364 C   0  0  1  0  0  0  0  0  0  0  0  0
  -17.1572  -38.9041  -10.1071 O   0  0  0  0  0  0  0  0  0  0  0  0
  -17.8365  -39.7865   -7.9766 C   0  0  2  0  0  0  0  0  0  0  0  0
  -18.5578  -38.9717   -6.9235 C   0  0  0  0  0  0  0  0  0  0  0  0
  -19.9016  -38.4755   -7.3479 C   0  0  2  0  0  0  0  0  0  0  0  0
  -19.9270  -37.0132   -7.7314 C   0  0  0  0  0  0  0  0  0  0  0  0
  -20.8272  -38.6168   -6.1309 C   0  0  0  0  0  0  0  0  0  0  0  0
  -22.2069  -38.8420   -6.5976 C   0  0  0  0  0  0  0  0  0  0  0  0
  -22.9640  -40.0156   -6.0105 C   0  0  0  0  0  0  0  0  0  0  0  0
  -22.7622  -41.2856   -6.0190 C   0  0  0  0  0  0  0  0  0  0  0  0
  -23.5109  -42.4638   -5.4349 C   0  0  0  0  0  0  0  0  0  0  0  0
  -22.5463  -43.6825   -5.4265 C   0  0  0  0  0  0  0  0  0  0  0  0
  -22.5401  -44.2537   -6.8045 C   0  0  0  0  0  0  0  0  0  0  0  0
  -21.3014  -44.9404   -7.1252 N   0  0  0  0  0  0  0  0  0  0  0  0
  -20.0302  -44.4556   -7.5545 C   0  0  0  0  0  0  0  0  0  0  0  0
  -19.5551  -45.2811   -8.6136 C   0  0  0  0  0  0  0  0  0  0  0  0
  -18.3637  -45.0915   -9.2457 C   0  0  0  0  0  0  0  0  0  0  0  0
  -17.9257  -45.9878  -10.3443 C   0  0  0  0  0  0  0  0  0  0  0  0
  -16.6464  -45.5581  -10.7220 O   0  0  0  0  0  0  0  0  0  0  0  0
  -17.6239  -44.0357   -8.7974 C   0  0  0  0  0  0  0  0  0  0  0  0
  -18.0354  -43.1710   -7.7457 C   0  0  0  0  0  0  0  0  0  0  0  0
  -19.2500  -43.3981   -7.1308 C   0  0  0  0  0  0  0  0  0  0  0  0
  -16.9987  -42.1607   -7.5287 C   0  0  0  0  0  0  0  0  0  0  0  0
  -15.7255  -42.5342   -7.5711 O   0  0  0  0  0  0  0  0  0  0  0  0
  -17.0420  -40.7694   -7.2664 N   0  0  0  0  0  0  0  0  0  0  0  0
  -12.6778  -39.2575  -11.9605 C   0  0  0  0  0  0  0  0  0  0  0  0
  -12.3213  -38.4553  -13.0415 C   0  0  0  0  0  0  0  0  0  0  0  0
  -12.3455  -37.0836  -12.9448 C   0  0  0  0  0  0  0  0  0  0  0  0
  1  2  1  0
  2  3  1  0
  2  4  1  0
  4  5  2  0
  5  6  1  0
  6  7  1  0
  7  8  1  0
  8  9  1  0
  9 10  1  0
 10 11  1  6
 10 12  1  0
 12 13  1  1
 13 14  1  0
 14 15  1  1
 14 16  1  0
 16 17  1  0
 17 18  1  0
 18 19  2  0
 19 20  1  0
 20 21  1  0
 21 22  1  0
 22 23  1  0
 23 24  1  0
 24 25  2  0
 25 26  1  0
 26 27  1  0
 27 28  1  0
 26 29  2  0
 29 30  1  0
 30 31  2  0
 30 32  1  0
 32 33  2  0
 32 34  1  0
  6 35  2  0
 35 36  1  0
 36 37  2  0
 31 24  1  0
 34 12  1  0
 37  4  1  0
M  END
$$$$
