
     RDKit          3D

 37 39  0  0  0  0  0  0  0  0999 V2000
  -23.4580  -40.9701   -4.4877 C   0  0  0  0  0  0  0  0  0  0  0  0
  -22.4610  -41.5497   -5.4510 C   0  0  0  0  0  0  0  0  0  0  0  0
  -21.1211  -41.6047   -4.7311 C   0  0  0  0  0  0  0  0  0  0  0  0
  -22.2859  -40.6338   -6.6146 C   0  0  0  0  0  0  0  0  0  0  0  0
  -21.2275  -39.7570   -6.7277 C   0  0  0  0  0  0  0  0  0  0  0  0
  -21.0854  -38.9194   -7.8010 C   0  0  0  0  0  0  0  0  0  0  0  0
  -19.9264  -37.9637   -7.9148 C   0  0  0  0  0  0  0  0  0  0  0  0
  -19.0923  -38.0677   -6.7642 N   0  0  0  0  0  0  0  0  0  0  0  0
  -18.4301  -39.3426   -6.6960 C   0  0  0  0  0  0  0  0  0  0  0  0
  -17.0233  -39.2779   -7.1739 C   0  0  1  0  0  0  0  0  0  0  0  0
  -16.1853  -39.6669   -6.1312 O   0  0  0  0  0  0  0  0  0  0  0  0
  -16.7946  -40.1645   -8.4029 C   0  0  2  0  0  0  0  0  0  0  0  0
  -16.3540  -39.2487   -9.5256 C   0  0  0  0  0  0  0  0  0  0  0  0
  -14.8720  -39.1345   -9.6763 C   0  0  2  0  0  0  0  0  0  0  0  0
  -14.2918  -37.8533   -9.1215 C   0  0  0  0  0  0  0  0  0  0  0  0
  -14.5830  -39.1196  -11.1843 C   0  0  0  0  0  0  0  0  0  0  0  0
  -13.2531  -39.7068  -11.4266 C   0  0  0  0  0  0  0  0  0  0  0  0
  -13.1489  -40.8041  -12.4660 C   0  0  0  0  0  0  0  0  0  0  0  0
  -13.6747  -41.9733  -12.5666 C   0  0  0  0  0  0  0  0  0  0  0  0
  -13.5778  -43.0741  -13.6003 C   0  0  0  0  0  0  0  0  0  0  0  0
  -14.7639  -44.0510  -13.3662 C   0  0  0  0  0  0  0  0  0  0  0  0
  -14.3823  -44.9512  -12.2397 C   0  0  0  0  0  0  0  0  0  0  0  0
  -15.5301  -45.4598  -11.5099 N   0  0  0  0  0  0  0  0  0  0  0  0
  -16.3382  -44.8803  -10.4868 C   0  0  0  0  0  0  0  0  0  0  0  0
  -16.5639  -45.8527   -9.4708 C   0  0  0  0  0  0  0  0  0  0  0  0
  -17.3037  -45.6206   -8.3510 C   0  0  0  0  0  0  0  0  0  0  0  0
  -17.5009  -46.6771   -7.3279 C   0  0  0  0  0  0  0  0  0  0  0  0
  -18.8820  -46.9004   -7.2479 O   0  0  0  0  0  0  0  0  0  0  0  0
  -17.8355  -44.3677   -8.2494 C   0  0  0  0  0  0  0  0  0  0  0  0
  -17.6517  -43.3485   -9.2244 C   0  0  0  0  0  0  0  0  0  0  0  0
  -16.8951  -43.6249  -10.3451 C   0  0  0  0  0  0  0  0  0  0  0  0
  -18.3645  -42.1449   -8.7932 C   0  0  0  0  0  0  0  0  0  0  0  0
  -19.5658  -42.2776   -8.2440 O   0  0  0  0  0  0  0  0  0  0  0  0
  -18.0441  -40.7656   -8.8259 N   0  0  0  0  0  0  0  0  0  0  0  0
  -22.0387  -38.9645   -8.7942 C   0  0  0  0  0  0  0  0  0  0  0  0
  -23.1142  -39.8438   -8.6965 C   0  0  0  0  0  0  0  0  0  0  0  0
  -23.2486  -40.6817   -7.6142 C   0  0  0  0  0  0  0  0  0  0  0  0
  1  2  1  0
  2  3  1  0
  2  4  1  0
  4  5  2  0
  5  6  1  0
  6  7  1  0
  7  8  1  0
  8  9  1  0
  9 10  1  0
 10 11  1  1
 10 12  1  0
 12 13  1  6
 13 14  1  0
 14 15  1  6
 14 16  1  0
 16 17  1  0
 17 18  1  0
 18 19  2  0
 19 20  1  0
 20 21  1  0
 21 22  1  0
 22 23  1  0
 23 24  1  0
 24 25  2  0
 25 26  1  0
 26 27  1  0
 27 28  1  0
 26 29  2  0
 29 30  1  0
 30 31  2  0
 30 32  1  0
 32 33  2  0
 32 34  1  0
  6 35  2  0
 35 36  1  0
 36 37  2  0
 31 24  1  0
 34 12  1  0
 37  4  1  0
M  END
$$$$
