
     RDKit          3D

 37 39  0  0  0  0  0  0  0  0999 V2000
  -22.3759  -39.0188  -10.3398 C   0  0  0  0  0  0  0  0  0  0  0  0
  -23.1391  -38.4806   -9.1626 C   0  0  0  0  0  0  0  0  0  0  0  0
  -22.7155  -37.0304   -8.9784 C   0  0  0  0  0  0  0  0  0  0  0  0
  -22.7393  -39.2056   -7.9224 C   0  0  0  0  0  0  0  0  0  0  0  0
  -21.5020  -39.0573   -7.3317 C   0  0  0  0  0  0  0  0  0  0  0  0
  -21.1500  -39.7350   -6.1956 C   0  0  0  0  0  0  0  0  0  0  0  0
  -19.7951  -39.5676   -5.5585 C   0  0  0  0  0  0  0  0  0  0  0  0
  -18.8089  -39.3365   -6.5606 N   0  0  0  0  0  0  0  0  0  0  0  0
  -17.4898  -39.6833   -6.1042 C   0  0  0  0  0  0  0  0  0  0  0  0
  -16.4637  -39.5388   -7.1709 C   0  0  1  0  0  0  0  0  0  0  0  0
  -15.2034  -39.5789   -6.5787 O   0  0  0  0  0  0  0  0  0  0  0  0
  -16.5884  -40.6324   -8.2374 C   0  0  2  0  0  0  0  0  0  0  0  0
  -15.9522  -40.0865   -9.4986 C   0  0  0  0  0  0  0  0  0  0  0  0
  -14.5177  -40.4657   -9.6739 C   0  0  2  0  0  0  0  0  0  0  0  0
  -13.5416  -39.3599   -9.3420 C   0  0  0  0  0  0  0  0  0  0  0  0
  -14.3241  -40.7767  -11.1651 C   0  0  0  0  0  0  0  0  0  0  0  0
  -13.2548  -41.7801  -11.3138 C   0  0  0  0  0  0  0  0  0  0  0  0
  -13.5516  -43.0027  -12.1578 C   0  0  0  0  0  0  0  0  0  0  0  0
  -14.4160  -43.9499  -12.0606 C   0  0  0  0  0  0  0  0  0  0  0  0
  -14.7206  -45.1727  -12.8983 C   0  0  0  0  0  0  0  0  0  0  0  0
  -16.1341  -45.6814  -12.4994 C   0  0  0  0  0  0  0  0  0  0  0  0
  -15.9842  -46.4688  -11.2414 C   0  0  0  0  0  0  0  0  0  0  0  0
  -17.1895  -46.4734  -10.4315 N   0  0  0  0  0  0  0  0  0  0  0  0
  -17.7212  -45.5188   -9.5142 C   0  0  0  0  0  0  0  0  0  0  0  0
  -18.1767  -46.2014   -8.3500 C   0  0  0  0  0  0  0  0  0  0  0  0
  -18.7448  -45.5786   -7.2802 C   0  0  0  0  0  0  0  0  0  0  0  0
  -19.1986  -46.3479   -6.0952 C   0  0  0  0  0  0  0  0  0  0  0  0
  -19.3067  -45.4294   -5.0424 O   0  0  0  0  0  0  0  0  0  0  0  0
  -18.8595  -44.2225   -7.3846 C   0  0  0  0  0  0  0  0  0  0  0  0
  -18.4271  -43.4765   -8.5158 C   0  0  0  0  0  0  0  0  0  0  0  0
  -17.8567  -44.1462   -9.5793 C   0  0  0  0  0  0  0  0  0  0  0  0
  -18.7101  -42.0589   -8.2861 C   0  0  0  0  0  0  0  0  0  0  0  0
  -19.8609  -41.7226   -7.7162 O   0  0  0  0  0  0  0  0  0  0  0  0
  -17.9839  -40.8714   -8.5484 N   0  0  0  0  0  0  0  0  0  0  0  0
  -22.0723  -40.5902   -5.6341 C   0  0  0  0  0  0  0  0  0  0  0  0
  -23.3266  -40.7521   -6.2173 C   0  0  0  0  0  0  0  0  0  0  0  0
  -23.6713  -40.0669   -7.3588 C   0  0  0  0  0  0  0  0  0  0  0  0
  1  2  1  0
  2  3  1  0
  2  4  1  0
  4  5  2  0
  5  6  1  0
  6  7  1  0
  7  8  1  0
  8  9  1  0
  9 10  1  0
 10 11  1  1
 10 12  1  0
 12 13  1  6
 13 14  1  0
 14 15  1  6
 14 16  1  0
 16 17  1  0
 17 18  1  0
 18 19  2  0
 19 20  1  0
 20 21  1  0
 21 22  1  0
 22 23  1  0
 23 24  1  0
 24 25  2  0
 25 26  1  0
 26 27  1  0
 27 28  1  0
 26 29  2  0
 29 30  1  0
 30 31  2  0
 30 32  1  0
 32 33  2  0
 32 34  1  0
  6 35  2  0
 35 36  1  0
 36 37  2  0
 31 24  1  0
 34 12  1  0
 37  4  1  0
M  END
$$$$
