
     RDKit          3D

 37 39  0  0  0  0  0  0  0  0999 V2000
  -12.1784  -35.9887  -13.5496 C   0  0  0  0  0  0  0  0  0  0  0  0
  -13.3573  -36.8994  -13.7465 C   0  0  0  0  0  0  0  0  0  0  0  0
  -14.6111  -36.0542  -13.5729 C   0  0  0  0  0  0  0  0  0  0  0  0
  -13.3854  -37.9346  -12.6736 C   0  0  0  0  0  0  0  0  0  0  0  0
  -13.5478  -37.6285  -11.3387 C   0  0  0  0  0  0  0  0  0  0  0  0
  -13.5660  -38.5918  -10.3663 C   0  0  0  0  0  0  0  0  0  0  0  0
  -13.7423  -38.2474   -8.9103 C   0  0  0  0  0  0  0  0  0  0  0  0
  -15.1122  -37.9660   -8.6370 N   0  0  0  0  0  0  0  0  0  0  0  0
  -15.8610  -39.1633   -8.3643 C   0  0  0  0  0  0  0  0  0  0  0  0
  -16.4416  -39.1703   -6.9951 C   0  0  1  0  0  0  0  0  0  0  0  0
  -16.9618  -37.9054   -6.7305 O   0  0  0  0  0  0  0  0  0  0  0  0
  -17.5290  -40.2389   -6.8396 C   0  0  2  0  0  0  0  0  0  0  0  0
  -18.5460  -39.6876   -5.8623 C   0  0  0  0  0  0  0  0  0  0  0  0
  -19.7041  -38.9988   -6.5078 C   0  0  2  0  0  0  0  0  0  0  0  0
  -19.6307  -37.4896   -6.4582 C   0  0  0  0  0  0  0  0  0  0  0  0
  -20.9532  -39.3950   -5.7074 C   0  0  0  0  0  0  0  0  0  0  0  0
  -22.1235  -39.3850   -6.6033 C   0  0  0  0  0  0  0  0  0  0  0  0
  -23.0079  -40.6150   -6.6168 C   0  0  0  0  0  0  0  0  0  0  0  0
  -22.7968  -41.8469   -6.9193 C   0  0  0  0  0  0  0  0  0  0  0  0
  -23.6723  -43.0811   -6.9344 C   0  0  0  0  0  0  0  0  0  0  0  0
  -22.7402  -44.3239   -6.9823 C   0  0  0  0  0  0  0  0  0  0  0  0
  -22.3092  -44.5017   -8.3992 C   0  0  0  0  0  0  0  0  0  0  0  0
  -21.0229  -45.1649   -8.5189 N   0  0  0  0  0  0  0  0  0  0  0  0
  -19.6876  -44.6764   -8.4017 C   0  0  0  0  0  0  0  0  0  0  0  0
  -18.9032  -45.2184   -9.4599 C   0  0  0  0  0  0  0  0  0  0  0  0
  -17.5788  -44.9528   -9.6338 C   0  0  0  0  0  0  0  0  0  0  0  0
  -16.8169  -45.5495  -10.7588 C   0  0  0  0  0  0  0  0  0  0  0  0
  -16.8453  -46.9372  -10.5666 O   0  0  0  0  0  0  0  0  0  0  0  0
  -17.0233  -44.1137   -8.7117 C   0  0  0  0  0  0  0  0  0  0  0  0
  -17.7454  -43.5367   -7.6306 C   0  0  0  0  0  0  0  0  0  0  0  0
  -19.0862  -43.8319   -7.4897 C   0  0  0  0  0  0  0  0  0  0  0  0
  -16.8363  -42.7005   -6.8452 C   0  0  0  0  0  0  0  0  0  0  0  0
  -15.6055  -43.1405   -6.6129 O   0  0  0  0  0  0  0  0  0  0  0  0
  -16.9748  -41.4320   -6.2303 N   0  0  0  0  0  0  0  0  0  0  0  0
  -13.4162  -39.9068  -10.7480 C   0  0  0  0  0  0  0  0  0  0  0  0
  -13.2512  -40.2340  -12.0915 C   0  0  0  0  0  0  0  0  0  0  0  0
  -13.2342  -39.2592  -13.0616 C   0  0  0  0  0  0  0  0  0  0  0  0
  1  2  1  0
  2  3  1  0
  2  4  1  0
  4  5  2  0
  5  6  1  0
  6  7  1  0
  7  8  1  0
  8  9  1  0
  9 10  1  0
 10 11  1  6
 10 12  1  0
 12 13  1  1
 13 14  1  0
 14 15  1  1
 14 16  1  0
 16 17  1  0
 17 18  1  0
 18 19  2  0
 19 20  1  0
 20 21  1  0
 21 22  1  0
 22 23  1  0
 23 24  1  0
 24 25  2  0
 25 26  1  0
 26 27  1  0
 27 28  1  0
 26 29  2  0
 29 30  1  0
 30 31  2  0
 30 32  1  0
 32 33  2  0
 32 34  1  0
  6 35  2  0
 35 36  1  0
 36 37  2  0
 31 24  1  0
 34 12  1  0
 37  4  1  0
M  END
$$$$
