
     RDKit          3D

 37 39  0  0  0  0  0  0  0  0999 V2000
  -22.8936  -40.2384   -3.1068 C   0  0  0  0  0  0  0  0  0  0  0  0
  -23.0577  -41.1934   -4.2553 C   0  0  0  0  0  0  0  0  0  0  0  0
  -22.1595  -42.3898   -3.9758 C   0  0  0  0  0  0  0  0  0  0  0  0
  -22.5592  -40.5668   -5.5133 C   0  0  0  0  0  0  0  0  0  0  0  0
  -21.5231  -39.6570   -5.5398 C   0  0  0  0  0  0  0  0  0  0  0  0
  -21.0817  -39.0877   -6.7037 C   0  0  0  0  0  0  0  0  0  0  0  0
  -19.9500  -38.0933   -6.7223 C   0  0  0  0  0  0  0  0  0  0  0  0
  -18.8990  -38.5645   -7.5611 N   0  0  0  0  0  0  0  0  0  0  0  0
  -17.7548  -38.9882   -6.7995 C   0  0  0  0  0  0  0  0  0  0  0  0
  -16.4722  -38.7060   -7.4974 C   0  0  1  0  0  0  0  0  0  0  0  0
  -15.4324  -38.8412   -6.5802 O   0  0  0  0  0  0  0  0  0  0  0  0
  -16.2542  -39.6383   -8.6941 C   0  0  2  0  0  0  0  0  0  0  0  0
  -15.4345  -38.8652   -9.7059 C   0  0  0  0  0  0  0  0  0  0  0  0
  -13.9622  -39.0997   -9.6083 C   0  0  2  0  0  0  0  0  0  0  0  0
  -13.2020  -37.9804   -8.9337 C   0  0  0  0  0  0  0  0  0  0  0  0
  -13.4321  -39.1729  -11.0475 C   0  0  0  0  0  0  0  0  0  0  0  0
  -12.2524  -40.0557  -11.0829 C   0  0  0  0  0  0  0  0  0  0  0  0
  -12.2337  -41.1615  -12.1184 C   0  0  0  0  0  0  0  0  0  0  0  0
  -12.9912  -42.1781  -12.3333 C   0  0  0  0  0  0  0  0  0  0  0  0
  -12.9813  -43.2856  -13.3645 C   0  0  0  0  0  0  0  0  0  0  0  0
  -14.3827  -43.9577  -13.3529 C   0  0  0  0  0  0  0  0  0  0  0  0
  -14.4111  -44.9062  -12.2020 C   0  0  0  0  0  0  0  0  0  0  0  0
  -15.7498  -45.1248  -11.6836 N   0  0  0  0  0  0  0  0  0  0  0  0
  -16.5602  -44.3598  -10.7928 C   0  0  0  0  0  0  0  0  0  0  0  0
  -17.1692  -45.2393   -9.8524 C   0  0  0  0  0  0  0  0  0  0  0  0
  -18.0103  -44.8266   -8.8638 C   0  0  0  0  0  0  0  0  0  0  0  0
  -18.6126  -45.7945   -7.9138 C   0  0  0  0  0  0  0  0  0  0  0  0
  -19.7546  -46.3096   -8.5415 O   0  0  0  0  0  0  0  0  0  0  0  0
  -18.2479  -43.4833   -8.8193 C   0  0  0  0  0  0  0  0  0  0  0  0
  -17.6750  -42.5480   -9.7250 C   0  0  0  0  0  0  0  0  0  0  0  0
  -16.8278  -43.0076  -10.7129 C   0  0  0  0  0  0  0  0  0  0  0  0
  -18.1519  -41.2061   -9.3865 C   0  0  0  0  0  0  0  0  0  0  0  0
  -19.4253  -41.0492   -9.0454 O   0  0  0  0  0  0  0  0  0  0  0  0
  -17.5209  -39.9392   -9.3314 N   0  0  0  0  0  0  0  0  0  0  0  0
  -21.7020  -39.4446   -7.8806 C   0  0  0  0  0  0  0  0  0  0  0  0
  -22.7498  -40.3619   -7.8725 C   0  0  0  0  0  0  0  0  0  0  0  0
  -23.1865  -40.9287   -6.6980 C   0  0  0  0  0  0  0  0  0  0  0  0
  1  2  1  0
  2  3  1  0
  2  4  1  0
  4  5  2  0
  5  6  1  0
  6  7  1  0
  7  8  1  0
  8  9  1  0
  9 10  1  0
 10 11  1  1
 10 12  1  0
 12 13  1  6
 13 14  1  0
 14 15  1  1
 14 16  1  0
 16 17  1  0
 17 18  1  0
 18 19  2  0
 19 20  1  0
 20 21  1  0
 21 22  1  0
 22 23  1  0
 23 24  1  0
 24 25  2  0
 25 26  1  0
 26 27  1  0
 27 28  1  0
 26 29  2  0
 29 30  1  0
 30 31  2  0
 30 32  1  0
 32 33  2  0
 32 34  1  0
  6 35  2  0
 35 36  1  0
 36 37  2  0
 31 24  1  0
 34 12  1  0
 37  4  1  0
M  END
$$$$
