
     RDKit          3D

 37 39  0  0  0  0  0  0  0  0999 V2000
   -9.7840  -37.2255  -12.7469 C   0  0  0  0  0  0  0  0  0  0  0  0
  -10.3118  -38.1156  -11.6574 C   0  0  0  0  0  0  0  0  0  0  0  0
   -9.6370  -39.4703  -11.8184 C   0  0  0  0  0  0  0  0  0  0  0  0
  -11.7740  -38.3391  -11.8465 C   0  0  0  0  0  0  0  0  0  0  0  0
  -12.7366  -37.6528  -11.1365 C   0  0  0  0  0  0  0  0  0  0  0  0
  -14.0750  -37.8746  -11.3196 C   0  0  0  0  0  0  0  0  0  0  0  0
  -15.1192  -37.1210  -10.5378 C   0  0  0  0  0  0  0  0  0  0  0  0
  -15.1809  -37.6145   -9.2025 N   0  0  0  0  0  0  0  0  0  0  0  0
  -16.0217  -38.7770   -9.0993 C   0  0  0  0  0  0  0  0  0  0  0  0
  -17.4206  -38.4347   -8.7283 C   0  0  1  0  0  0  0  0  0  0  0  0
  -18.1115  -38.0876   -9.8871 O   0  0  0  0  0  0  0  0  0  0  0  0
  -18.1235  -39.5940   -8.0137 C   0  0  2  0  0  0  0  0  0  0  0  0
  -19.0034  -38.9789   -6.9456 C   0  0  0  0  0  0  0  0  0  0  0  0
  -20.4166  -38.7506   -7.3736 C   0  0  2  0  0  0  0  0  0  0  0  0
  -20.7350  -37.3114   -7.7102 C   0  0  0  0  0  0  0  0  0  0  0  0
  -21.3038  -39.1183   -6.1755 C   0  0  0  0  0  0  0  0  0  0  0  0
  -22.6055  -39.6019   -6.6696 C   0  0  0  0  0  0  0  0  0  0  0  0
  -23.1134  -40.9240   -6.1317 C   0  0  0  0  0  0  0  0  0  0  0  0
  -22.6582  -42.1258   -6.1781 C   0  0  0  0  0  0  0  0  0  0  0  0
  -23.1570  -43.4506   -5.6434 C   0  0  0  0  0  0  0  0  0  0  0  0
  -21.9653  -44.4483   -5.6599 C   0  0  0  0  0  0  0  0  0  0  0  0
  -21.8325  -44.9585   -7.0553 C   0  0  0  0  0  0  0  0  0  0  0  0
  -20.4778  -45.3688   -7.3797 N   0  0  0  0  0  0  0  0  0  0  0  0
  -19.3280  -44.6222   -7.7744 C   0  0  0  0  0  0  0  0  0  0  0  0
  -18.6869  -45.2974   -8.8524 C   0  0  0  0  0  0  0  0  0  0  0  0
  -17.5538  -44.8488   -9.4605 C   0  0  0  0  0  0  0  0  0  0  0  0
  -16.9344  -45.5994  -10.5808 C   0  0  0  0  0  0  0  0  0  0  0  0
  -15.6195  -45.1289  -10.6959 O   0  0  0  0  0  0  0  0  0  0  0  0
  -17.0471  -43.6813   -8.9675 C   0  0  0  0  0  0  0  0  0  0  0  0
  -17.6337  -42.9546   -7.8947 C   0  0  0  0  0  0  0  0  0  0  0  0
  -18.7819  -43.4439   -7.3055 C   0  0  0  0  0  0  0  0  0  0  0  0
  -16.8253  -41.7634   -7.6301 C   0  0  0  0  0  0  0  0  0  0  0  0
  -15.5025  -41.8697   -7.6657 O   0  0  0  0  0  0  0  0  0  0  0  0
  -17.1519  -40.4196   -7.3238 N   0  0  0  0  0  0  0  0  0  0  0  0
  -14.4589  -38.8175  -12.2474 C   0  0  0  0  0  0  0  0  0  0  0  0
  -13.5002  -39.5198  -12.9735 C   0  0  0  0  0  0  0  0  0  0  0  0
  -12.1578  -39.2901  -12.7827 C   0  0  0  0  0  0  0  0  0  0  0  0
  1  2  1  0
  2  3  1  0
  2  4  1  0
  4  5  2  0
  5  6  1  0
  6  7  1  0
  7  8  1  0
  8  9  1  0
  9 10  1  0
 10 11  1  6
 10 12  1  0
 12 13  1  1
 13 14  1  0
 14 15  1  1
 14 16  1  0
 16 17  1  0
 17 18  1  0
 18 19  2  0
 19 20  1  0
 20 21  1  0
 21 22  1  0
 22 23  1  0
 23 24  1  0
 24 25  2  0
 25 26  1  0
 26 27  1  0
 27 28  1  0
 26 29  2  0
 29 30  1  0
 30 31  2  0
 30 32  1  0
 32 33  2  0
 32 34  1  0
  6 35  2  0
 35 36  1  0
 36 37  2  0
 31 24  1  0
 34 12  1  0
 37  4  1  0
M  END
$$$$
