
     RDKit          3D

 37 39  0  0  0  0  0  0  0  0999 V2000
  -14.0800  -34.0414  -11.7588 C   0  0  0  0  0  0  0  0  0  0  0  0
  -14.9018  -34.9212  -12.6580 C   0  0  0  0  0  0  0  0  0  0  0  0
  -16.3085  -34.9656  -12.0787 C   0  0  0  0  0  0  0  0  0  0  0  0
  -14.3780  -36.3169  -12.6213 C   0  0  0  0  0  0  0  0  0  0  0  0
  -14.3843  -37.0916  -11.4804 C   0  0  0  0  0  0  0  0  0  0  0  0
  -13.8944  -38.3698  -11.4638 C   0  0  0  0  0  0  0  0  0  0  0  0
  -13.9040  -39.2078  -10.2119 C   0  0  0  0  0  0  0  0  0  0  0  0
  -14.5198  -38.4888   -9.1470 N   0  0  0  0  0  0  0  0  0  0  0  0
  -15.9353  -38.7358   -9.0818 C   0  0  0  0  0  0  0  0  0  0  0  0
  -16.4743  -38.5887   -7.7036 C   0  0  1  0  0  0  0  0  0  0  0  0
  -17.1863  -37.3933   -7.6340 O   0  0  0  0  0  0  0  0  0  0  0  0
  -17.3702  -39.7683   -7.3101 C   0  0  2  0  0  0  0  0  0  0  0  0
  -18.2696  -39.2799   -6.1939 C   0  0  0  0  0  0  0  0  0  0  0  0
  -19.6005  -38.7812   -6.6544 C   0  0  2  0  0  0  0  0  0  0  0  0
  -19.7180  -37.2742   -6.6863 C   0  0  0  0  0  0  0  0  0  0  0  0
  -20.6327  -39.2711   -5.6285 C   0  0  0  0  0  0  0  0  0  0  0  0
  -21.9293  -39.4629   -6.3025 C   0  0  0  0  0  0  0  0  0  0  0  0
  -22.6345  -40.7891   -6.1039 C   0  0  0  0  0  0  0  0  0  0  0  0
  -22.3185  -42.0038   -6.3834 C   0  0  0  0  0  0  0  0  0  0  0  0
  -23.0146  -43.3331   -6.1878 C   0  0  0  0  0  0  0  0  0  0  0  0
  -21.9497  -44.4544   -6.3442 C   0  0  0  0  0  0  0  0  0  0  0  0
  -21.7462  -44.6732   -7.8057 C   0  0  0  0  0  0  0  0  0  0  0  0
  -20.4235  -45.1824   -8.1214 N   0  0  0  0  0  0  0  0  0  0  0  0
  -19.1633  -44.5290   -8.2645 C   0  0  0  0  0  0  0  0  0  0  0  0
  -18.5061  -45.0418   -9.4195 C   0  0  0  0  0  0  0  0  0  0  0  0
  -17.2768  -44.6301   -9.8370 C   0  0  0  0  0  0  0  0  0  0  0  0
  -16.6458  -45.2042  -11.0513 C   0  0  0  0  0  0  0  0  0  0  0  0
  -16.1398  -44.1231  -11.7854 O   0  0  0  0  0  0  0  0  0  0  0  0
  -16.6874  -43.6700   -9.0665 C   0  0  0  0  0  0  0  0  0  0  0  0
  -17.2843  -43.1135   -7.9016 C   0  0  0  0  0  0  0  0  0  0  0  0
  -18.5314  -43.5587   -7.5123 C   0  0  0  0  0  0  0  0  0  0  0  0
  -16.3724  -42.1227   -7.3279 C   0  0  0  0  0  0  0  0  0  0  0  0
  -15.0732  -42.3939   -7.2978 O   0  0  0  0  0  0  0  0  0  0  0  0
  -16.5692  -40.8419   -6.7558 N   0  0  0  0  0  0  0  0  0  0  0  0
  -13.3814  -38.8869  -12.6328 C   0  0  0  0  0  0  0  0  0  0  0  0
  -13.3672  -38.1187  -13.7943 C   0  0  0  0  0  0  0  0  0  0  0  0
  -13.8616  -36.8354  -13.8014 C   0  0  0  0  0  0  0  0  0  0  0  0
  1  2  1  0
  2  3  1  0
  2  4  1  0
  4  5  2  0
  5  6  1  0
  6  7  1  0
  7  8  1  0
  8  9  1  0
  9 10  1  0
 10 11  1  6
 10 12  1  0
 12 13  1  1
 13 14  1  0
 14 15  1  1
 14 16  1  0
 16 17  1  0
 17 18  1  0
 18 19  2  0
 19 20  1  0
 20 21  1  0
 21 22  1  0
 22 23  1  0
 23 24  1  0
 24 25  2  0
 25 26  1  0
 26 27  1  0
 27 28  1  0
 26 29  2  0
 29 30  1  0
 30 31  2  0
 30 32  1  0
 32 33  2  0
 32 34  1  0
  6 35  2  0
 35 36  1  0
 36 37  2  0
 31 24  1  0
 34 12  1  0
 37  4  1  0
M  END
$$$$
