
     RDKit          3D

 37 39  0  0  0  0  0  0  0  0999 V2000
  -22.1015  -42.8185   -5.1003 C   0  0  0  0  0  0  0  0  0  0  0  0
  -23.1801  -41.7945   -5.3147 C   0  0  0  0  0  0  0  0  0  0  0  0
  -24.3319  -42.4969   -6.0192 C   0  0  0  0  0  0  0  0  0  0  0  0
  -22.6951  -40.7308   -6.2405 C   0  0  0  0  0  0  0  0  0  0  0  0
  -21.7521  -39.7923   -5.8778 C   0  0  0  0  0  0  0  0  0  0  0  0
  -21.3221  -38.8194   -6.7395 C   0  0  0  0  0  0  0  0  0  0  0  0
  -20.2925  -37.7972   -6.3334 C   0  0  0  0  0  0  0  0  0  0  0  0
  -19.2141  -37.7930   -7.2647 N   0  0  0  0  0  0  0  0  0  0  0  0
  -18.4532  -39.0123   -7.2089 C   0  0  0  0  0  0  0  0  0  0  0  0
  -17.0494  -38.8268   -7.6635 C   0  0  1  0  0  0  0  0  0  0  0  0
  -16.2147  -38.8795   -6.5494 O   0  0  0  0  0  0  0  0  0  0  0  0
  -16.6359  -39.8851   -8.6920 C   0  0  2  0  0  0  0  0  0  0  0  0
  -16.0152  -39.1425   -9.8567 C   0  0  0  0  0  0  0  0  0  0  0  0
  -14.5271  -39.0286   -9.7868 C   0  0  2  0  0  0  0  0  0  0  0  0
  -14.0318  -37.6692   -9.3481 C   0  0  0  0  0  0  0  0  0  0  0  0
  -14.0024  -39.2371  -11.2147 C   0  0  0  0  0  0  0  0  0  0  0  0
  -12.6558  -39.8328  -11.1518 C   0  0  0  0  0  0  0  0  0  0  0  0
  -12.3970  -41.0727  -11.9830 C   0  0  0  0  0  0  0  0  0  0  0  0
  -12.9099  -42.2519  -11.9870 C   0  0  0  0  0  0  0  0  0  0  0  0
  -12.6593  -43.4946  -12.8132 C   0  0  0  0  0  0  0  0  0  0  0  0
  -13.8755  -44.4438  -12.6241 C   0  0  0  0  0  0  0  0  0  0  0  0
  -13.6849  -45.1573  -11.3281 C   0  0  0  0  0  0  0  0  0  0  0  0
  -14.9382  -45.5681  -10.7204 N   0  0  0  0  0  0  0  0  0  0  0  0
  -15.8936  -44.8537   -9.9378 C   0  0  0  0  0  0  0  0  0  0  0  0
  -16.2857  -45.6649   -8.8346 C   0  0  0  0  0  0  0  0  0  0  0  0
  -17.1918  -45.2782   -7.8942 C   0  0  0  0  0  0  0  0  0  0  0  0
  -17.5576  -46.1710   -6.7668 C   0  0  0  0  0  0  0  0  0  0  0  0
  -18.5877  -46.9987   -7.2331 O   0  0  0  0  0  0  0  0  0  0  0  0
  -17.7227  -44.0330   -8.0692 C   0  0  0  0  0  0  0  0  0  0  0  0
  -17.3781  -43.1700   -9.1460 C   0  0  0  0  0  0  0  0  0  0  0  0
  -16.4556  -43.6003  -10.0780 C   0  0  0  0  0  0  0  0  0  0  0  0
  -18.1403  -41.9266   -9.0205 C   0  0  0  0  0  0  0  0  0  0  0  0
  -19.4146  -41.9940   -8.6545 O   0  0  0  0  0  0  0  0  0  0  0  0
  -17.8074  -40.5631   -9.2111 N   0  0  0  0  0  0  0  0  0  0  0  0
  -21.8575  -38.7887   -8.0082 C   0  0  0  0  0  0  0  0  0  0  0  0
  -22.8107  -39.7288   -8.3915 C   0  0  0  0  0  0  0  0  0  0  0  0
  -23.2367  -40.7026   -7.5188 C   0  0  0  0  0  0  0  0  0  0  0  0
  1  2  1  0
  2  3  1  0
  2  4  1  0
  4  5  2  0
  5  6  1  0
  6  7  1  0
  7  8  1  0
  8  9  1  0
  9 10  1  0
 10 11  1  1
 10 12  1  0
 12 13  1  6
 13 14  1  0
 14 15  1  6
 14 16  1  0
 16 17  1  0
 17 18  1  0
 18 19  2  0
 19 20  1  0
 20 21  1  0
 21 22  1  0
 22 23  1  0
 23 24  1  0
 24 25  2  0
 25 26  1  0
 26 27  1  0
 27 28  1  0
 26 29  2  0
 29 30  1  0
 30 31  2  0
 30 32  1  0
 32 33  2  0
 32 34  1  0
  6 35  2  0
 35 36  1  0
 36 37  2  0
 31 24  1  0
 34 12  1  0
 37  4  1  0
M  END
$$$$
