
     RDKit          3D

 37 39  0  0  0  0  0  0  0  0999 V2000
  -22.7348  -40.2843   -4.3387 C   0  0  0  0  0  0  0  0  0  0  0  0
  -23.1043  -39.8843   -5.7392 C   0  0  0  0  0  0  0  0  0  0  0  0
  -24.0354  -40.9590   -6.2819 C   0  0  0  0  0  0  0  0  0  0  0  0
  -21.8912  -39.8892   -6.6065 C   0  0  0  0  0  0  0  0  0  0  0  0
  -20.7273  -40.5459   -6.2662 C   0  0  0  0  0  0  0  0  0  0  0  0
  -19.6212  -40.5354   -7.0725 C   0  0  0  0  0  0  0  0  0  0  0  0
  -18.3534  -41.2545   -6.6912 C   0  0  0  0  0  0  0  0  0  0  0  0
  -17.4127  -41.1865   -7.7592 N   0  0  0  0  0  0  0  0  0  0  0  0
  -16.2483  -40.4225   -7.3996 C   0  0  0  0  0  0  0  0  0  0  0  0
  -16.2064  -39.0990   -8.0765 C   0  0  1  0  0  0  0  0  0  0  0  0
  -15.5012  -38.2117   -7.2665 O   0  0  0  0  0  0  0  0  0  0  0  0
  -15.5606  -39.1853   -9.4637 C   0  0  2  0  0  0  0  0  0  0  0  0
  -16.0337  -37.9751  -10.2414 C   0  0  0  0  0  0  0  0  0  0  0  0
  -15.1017  -36.8087  -10.1850 C   0  0  2  0  0  0  0  0  0  0  0  0
  -15.5430  -35.7107   -9.2441 C   0  0  0  0  0  0  0  0  0  0  0  0
  -15.0858  -36.1900  -11.5902 C   0  0  0  0  0  0  0  0  0  0  0  0
  -13.7725  -35.5643  -11.8271 C   0  0  0  0  0  0  0  0  0  0  0  0
  -13.0419  -35.9271  -13.1037 C   0  0  0  0  0  0  0  0  0  0  0  0
  -12.5898  -37.0353  -13.5739 C   0  0  0  0  0  0  0  0  0  0  0  0
  -11.8610  -37.4071  -14.8468 C   0  0  0  0  0  0  0  0  0  0  0  0
  -11.9656  -38.9481  -15.0210 C   0  0  0  0  0  0  0  0  0  0  0  0
  -10.9314  -39.5658  -14.1412 C   0  0  0  0  0  0  0  0  0  0  0  0
  -11.2843  -40.9072  -13.7112 N   0  0  0  0  0  0  0  0  0  0  0  0
  -12.1388  -41.3769  -12.6698 C   0  0  0  0  0  0  0  0  0  0  0  0
  -11.4885  -42.4430  -11.9847 C   0  0  0  0  0  0  0  0  0  0  0  0
  -12.0380  -43.1165  -10.9362 C   0  0  0  0  0  0  0  0  0  0  0  0
  -11.3073  -44.2191  -10.2636 C   0  0  0  0  0  0  0  0  0  0  0  0
  -10.7381  -43.6711   -9.1063 O   0  0  0  0  0  0  0  0  0  0  0  0
  -13.2848  -42.7046  -10.5639 C   0  0  0  0  0  0  0  0  0  0  0  0
  -13.9928  -41.6487  -11.2019 C   0  0  0  0  0  0  0  0  0  0  0  0
  -13.4003  -40.9918  -12.2613 C   0  0  0  0  0  0  0  0  0  0  0  0
  -15.2923  -41.4855  -10.5483 C   0  0  0  0  0  0  0  0  0  0  0  0
  -15.9699  -42.5714  -10.1963 O   0  0  0  0  0  0  0  0  0  0  0  0
  -16.0518  -40.3504  -10.1728 N   0  0  0  0  0  0  0  0  0  0  0  0
  -19.6869  -39.8421   -8.2609 C   0  0  0  0  0  0  0  0  0  0  0  0
  -20.8543  -39.1733   -8.6206 C   0  0  0  0  0  0  0  0  0  0  0  0
  -21.9607  -39.1894   -7.8038 C   0  0  0  0  0  0  0  0  0  0  0  0
  1  2  1  0
  2  3  1  0
  2  4  1  0
  4  5  2  0
  5  6  1  0
  6  7  1  0
  7  8  1  0
  8  9  1  0
  9 10  1  0
 10 11  1  1
 10 12  1  0
 12 13  1  6
 13 14  1  0
 14 15  1  1
 14 16  1  0
 16 17  1  0
 17 18  1  0
 18 19  2  0
 19 20  1  0
 20 21  1  0
 21 22  1  0
 22 23  1  0
 23 24  1  0
 24 25  2  0
 25 26  1  0
 26 27  1  0
 27 28  1  0
 26 29  2  0
 29 30  1  0
 30 31  2  0
 30 32  1  0
 32 33  2  0
 32 34  1  0
  6 35  2  0
 35 36  1  0
 36 37  2  0
 31 24  1  0
 34 12  1  0
 37  4  1  0
M  END
$$$$
