
     RDKit          3D

 37 39  0  0  0  0  0  0  0  0999 V2000
  -23.2895  -37.9936   -6.0543 C   0  0  0  0  0  0  0  0  0  0  0  0
  -22.1273  -37.8118   -6.9892 C   0  0  0  0  0  0  0  0  0  0  0  0
  -22.6721  -37.1887   -8.2665 C   0  0  0  0  0  0  0  0  0  0  0  0
  -21.5644  -39.1403   -7.3658 C   0  0  0  0  0  0  0  0  0  0  0  0
  -20.3817  -39.6281   -6.8510 C   0  0  0  0  0  0  0  0  0  0  0  0
  -19.8771  -40.8483   -7.2120 C   0  0  0  0  0  0  0  0  0  0  0  0
  -18.5832  -41.3720   -6.6453 C   0  0  0  0  0  0  0  0  0  0  0  0
  -17.5762  -40.3664   -6.7158 N   0  0  0  0  0  0  0  0  0  0  0  0
  -16.9874  -40.2887   -8.0258 C   0  0  0  0  0  0  0  0  0  0  0  0
  -16.0035  -39.1795   -8.1411 C   0  0  1  0  0  0  0  0  0  0  0  0
  -15.0381  -39.3419   -7.1499 O   0  0  0  0  0  0  0  0  0  0  0  0
  -15.3469  -39.1380   -9.5253 C   0  0  2  0  0  0  0  0  0  0  0  0
  -15.9693  -37.9747  -10.2687 C   0  0  0  0  0  0  0  0  0  0  0  0
  -15.1957  -36.7004  -10.1690 C   0  0  2  0  0  0  0  0  0  0  0  0
  -15.7783  -35.6987   -9.1980 C   0  0  0  0  0  0  0  0  0  0  0  0
  -15.2546  -36.0406  -11.5543 C   0  0  0  0  0  0  0  0  0  0  0  0
  -14.0322  -35.2438  -11.7615 C   0  0  0  0  0  0  0  0  0  0  0  0
  -13.2562  -35.4688  -13.0432 C   0  0  0  0  0  0  0  0  0  0  0  0
  -12.6633  -36.4941  -13.5440 C   0  0  0  0  0  0  0  0  0  0  0  0
  -11.8881  -36.7285  -14.8223 C   0  0  0  0  0  0  0  0  0  0  0  0
  -11.7925  -38.2638  -15.0449 C   0  0  0  0  0  0  0  0  0  0  0  0
  -10.6905  -38.7707  -14.1768 C   0  0  0  0  0  0  0  0  0  0  0  0
  -10.8690  -40.1593  -13.7913 N   0  0  0  0  0  0  0  0  0  0  0  0
  -11.6596  -40.7680  -12.7715 C   0  0  0  0  0  0  0  0  0  0  0  0
  -10.8797  -41.7627  -12.1148 C   0  0  0  0  0  0  0  0  0  0  0  0
  -11.3416  -42.5343  -11.0919 C   0  0  0  0  0  0  0  0  0  0  0  0
  -10.4773  -43.5544  -10.4482 C   0  0  0  0  0  0  0  0  0  0  0  0
  -11.1768  -44.7669  -10.5138 O   0  0  0  0  0  0  0  0  0  0  0  0
  -12.6325  -42.2983  -10.7165 C   0  0  0  0  0  0  0  0  0  0  0  0
  -13.4684  -41.3227  -11.3269 C   0  0  0  0  0  0  0  0  0  0  0  0
  -12.9617  -40.5616  -12.3609 C   0  0  0  0  0  0  0  0  0  0  0  0
  -14.7804  -41.3489  -10.6785 C   0  0  0  0  0  0  0  0  0  0  0  0
  -15.3136  -42.5237  -10.3656 O   0  0  0  0  0  0  0  0  0  0  0  0
  -15.6813  -40.3335  -10.2739 N   0  0  0  0  0  0  0  0  0  0  0  0
  -20.5848  -41.6038   -8.1207 C   0  0  0  0  0  0  0  0  0  0  0  0
  -21.7810  -41.1268   -8.6507 C   0  0  0  0  0  0  0  0  0  0  0  0
  -22.2802  -39.8995   -8.2820 C   0  0  0  0  0  0  0  0  0  0  0  0
  1  2  1  0
  2  3  1  0
  2  4  1  0
  4  5  2  0
  5  6  1  0
  6  7  1  0
  7  8  1  0
  8  9  1  0
  9 10  1  0
 10 11  1  1
 10 12  1  0
 12 13  1  6
 13 14  1  0
 14 15  1  1
 14 16  1  0
 16 17  1  0
 17 18  1  0
 18 19  2  0
 19 20  1  0
 20 21  1  0
 21 22  1  0
 22 23  1  0
 23 24  1  0
 24 25  2  0
 25 26  1  0
 26 27  1  0
 27 28  1  0
 26 29  2  0
 29 30  1  0
 30 31  2  0
 30 32  1  0
 32 33  2  0
 32 34  1  0
  6 35  2  0
 35 36  1  0
 36 37  2  0
 31 24  1  0
 34 12  1  0
 37  4  1  0
M  END
$$$$
