
     RDKit          3D

 37 39  0  0  0  0  0  0  0  0999 V2000
  -23.9808  -39.6228   -8.2683 C   0  0  0  0  0  0  0  0  0  0  0  0
  -23.2261  -39.0689   -7.0930 C   0  0  0  0  0  0  0  0  0  0  0  0
  -22.4707  -37.8417   -7.5828 C   0  0  0  0  0  0  0  0  0  0  0  0
  -22.2004  -40.0512   -6.6382 C   0  0  0  0  0  0  0  0  0  0  0  0
  -21.4067  -40.7663   -7.5103 C   0  0  0  0  0  0  0  0  0  0  0  0
  -20.4733  -41.6681   -7.0750 C   0  0  0  0  0  0  0  0  0  0  0  0
  -19.6120  -42.4460   -8.0357 C   0  0  0  0  0  0  0  0  0  0  0  0
  -18.3724  -41.7726   -8.2361 N   0  0  0  0  0  0  0  0  0  0  0  0
  -17.9801  -41.0162   -7.0773 C   0  0  0  0  0  0  0  0  0  0  0  0
  -17.1469  -39.8348   -7.4260 C   0  0  1  0  0  0  0  0  0  0  0  0
  -16.1123  -39.7359   -6.4983 O   0  0  0  0  0  0  0  0  0  0  0  0
  -16.5828  -39.9312   -8.8477 C   0  0  2  0  0  0  0  0  0  0  0  0
  -16.8089  -38.5830   -9.4993 C   0  0  0  0  0  0  0  0  0  0  0  0
  -15.6451  -37.6516   -9.3982 C   0  0  2  0  0  0  0  0  0  0  0  0
  -15.8058  -36.5741   -8.3499 C   0  0  0  0  0  0  0  0  0  0  0  0
  -15.5436  -36.9264  -10.7479 C   0  0  0  0  0  0  0  0  0  0  0  0
  -14.1349  -36.5757  -11.0024 C   0  0  0  0  0  0  0  0  0  0  0  0
  -13.5442  -36.9692  -12.3409 C   0  0  0  0  0  0  0  0  0  0  0  0
  -13.3591  -38.1012  -12.9221 C   0  0  0  0  0  0  0  0  0  0  0  0
  -12.7721  -38.5034  -14.2576 C   0  0  0  0  0  0  0  0  0  0  0  0
  -13.2138  -39.9647  -14.5496 C   0  0  0  0  0  0  0  0  0  0  0  0
  -12.3084  -40.8650  -13.7783 C   0  0  0  0  0  0  0  0  0  0  0  0
  -12.9285  -42.1337  -13.4399 N   0  0  0  0  0  0  0  0  0  0  0  0
  -13.8285  -42.5028  -12.3961 C   0  0  0  0  0  0  0  0  0  0  0  0
  -13.4014  -43.7401  -11.8344 C   0  0  0  0  0  0  0  0  0  0  0  0
  -14.0476  -44.3729  -10.8162 C   0  0  0  0  0  0  0  0  0  0  0  0
  -13.5505  -45.6618  -10.2741 C   0  0  0  0  0  0  0  0  0  0  0  0
  -12.6035  -46.1395  -11.1900 O   0  0  0  0  0  0  0  0  0  0  0  0
  -15.1621  -43.7404  -10.3466 C   0  0  0  0  0  0  0  0  0  0  0  0
  -15.6460  -42.5050  -10.8592 C   0  0  0  0  0  0  0  0  0  0  0  0
  -14.9619  -41.8964  -11.8919 C   0  0  0  0  0  0  0  0  0  0  0  0
  -16.8562  -42.1285  -10.1269 C   0  0  0  0  0  0  0  0  0  0  0  0
  -17.7405  -43.0726   -9.8284 O   0  0  0  0  0  0  0  0  0  0  0  0
  -17.3387  -40.8963   -9.6216 N   0  0  0  0  0  0  0  0  0  0  0  0
  -20.3325  -41.8575   -5.7180 C   0  0  0  0  0  0  0  0  0  0  0  0
  -21.1255  -41.1437   -4.8230 C   0  0  0  0  0  0  0  0  0  0  0  0
  -22.0608  -40.2398   -5.2696 C   0  0  0  0  0  0  0  0  0  0  0  0
  1  2  1  0
  2  3  1  0
  2  4  1  0
  4  5  2  0
  5  6  1  0
  6  7  1  0
  7  8  1  0
  8  9  1  0
  9 10  1  0
 10 11  1  1
 10 12  1  0
 12 13  1  6
 13 14  1  0
 14 15  1  1
 14 16  1  0
 16 17  1  0
 17 18  1  0
 18 19  2  0
 19 20  1  0
 20 21  1  0
 21 22  1  0
 22 23  1  0
 23 24  1  0
 24 25  2  0
 25 26  1  0
 26 27  1  0
 27 28  1  0
 26 29  2  0
 29 30  1  0
 30 31  2  0
 30 32  1  0
 32 33  2  0
 32 34  1  0
  6 35  2  0
 35 36  1  0
 36 37  2  0
 31 24  1  0
 34 12  1  0
 37  4  1  0
M  END
$$$$
