
     RDKit          3D

 37 39  0  0  0  0  0  0  0  0999 V2000
  -20.3059  -39.4816  -13.0484 C   0  0  0  0  0  0  0  0  0  0  0  0
  -20.6377  -38.0274  -12.8668 C   0  0  0  0  0  0  0  0  0  0  0  0
  -19.5428  -37.2277  -13.5582 C   0  0  0  0  0  0  0  0  0  0  0  0
  -20.5824  -37.6696  -11.4202 C   0  0  0  0  0  0  0  0  0  0  0  0
  -19.3988  -37.5086  -10.7311 C   0  0  0  0  0  0  0  0  0  0  0  0
  -19.3669  -37.1849   -9.4014 C   0  0  0  0  0  0  0  0  0  0  0  0
  -18.0686  -37.0128   -8.6567 C   0  0  0  0  0  0  0  0  0  0  0  0
  -17.6363  -38.2651   -8.1322 N   0  0  0  0  0  0  0  0  0  0  0  0
  -16.2424  -38.5035   -8.3949 C   0  0  0  0  0  0  0  0  0  0  0  0
  -15.7461  -39.7448   -7.7433 C   0  0  1  0  0  0  0  0  0  0  0  0
  -15.7169  -39.5382   -6.3659 O   0  0  0  0  0  0  0  0  0  0  0  0
  -16.6181  -40.9582   -8.0836 C   0  0  2  0  0  0  0  0  0  0  0  0
  -16.0834  -41.5301   -9.3799 C   0  0  0  0  0  0  0  0  0  0  0  0
  -15.0973  -42.6379   -9.1993 C   0  0  2  0  0  0  0  0  0  0  0  0
  -13.6584  -42.2242   -9.4100 C   0  0  0  0  0  0  0  0  0  0  0  0
  -15.4068  -43.6830  -10.2809 C   0  0  0  0  0  0  0  0  0  0  0  0
  -15.0302  -45.0182   -9.7834 C   0  0  0  0  0  0  0  0  0  0  0  0
  -16.0633  -46.1219   -9.8833 C   0  0  0  0  0  0  0  0  0  0  0  0
  -17.2378  -46.2753   -9.3826 C   0  0  0  0  0  0  0  0  0  0  0  0
  -18.2762  -47.3719   -9.4777 C   0  0  0  0  0  0  0  0  0  0  0  0
  -19.6335  -46.7831   -9.0014 C   0  0  0  0  0  0  0  0  0  0  0  0
  -19.6245  -46.7965   -7.5098 C   0  0  0  0  0  0  0  0  0  0  0  0
  -20.4699  -45.7674   -6.9310 N   0  0  0  0  0  0  0  0  0  0  0  0
  -20.2521  -44.3759   -6.7036 C   0  0  0  0  0  0  0  0  0  0  0  0
  -20.7224  -44.0419   -5.4013 C   0  0  0  0  0  0  0  0  0  0  0  0
  -20.6657  -42.7874   -4.8740 C   0  0  0  0  0  0  0  0  0  0  0  0
  -21.1729  -42.5044   -3.5085 C   0  0  0  0  0  0  0  0  0  0  0  0
  -22.4718  -42.0015   -3.6630 O   0  0  0  0  0  0  0  0  0  0  0  0
  -20.1178  -41.8355   -5.6842 C   0  0  0  0  0  0  0  0  0  0  0  0
  -19.6286  -42.0972   -6.9939 C   0  0  0  0  0  0  0  0  0  0  0  0
  -19.7050  -43.3824   -7.4911 C   0  0  0  0  0  0  0  0  0  0  0  0
  -19.1206  -40.8506   -7.5688 C   0  0  0  0  0  0  0  0  0  0  0  0
  -19.8039  -39.7304   -7.3672 O   0  0  0  0  0  0  0  0  0  0  0  0
  -17.9799  -40.5375   -8.3481 N   0  0  0  0  0  0  0  0  0  0  0  0
  -20.5646  -37.0171   -8.7421 C   0  0  0  0  0  0  0  0  0  0  0  0
  -21.7693  -37.1757   -9.4224 C   0  0  0  0  0  0  0  0  0  0  0  0
  -21.7914  -37.5010  -10.7584 C   0  0  0  0  0  0  0  0  0  0  0  0
  1  2  1  0
  2  3  1  0
  2  4  1  0
  4  5  2  0
  5  6  1  0
  6  7  1  0
  7  8  1  0
  8  9  1  0
  9 10  1  0
 10 11  1  1
 10 12  1  0
 12 13  1  6
 13 14  1  0
 14 15  1  6
 14 16  1  0
 16 17  1  0
 17 18  1  0
 18 19  2  0
 19 20  1  0
 20 21  1  0
 21 22  1  0
 22 23  1  0
 23 24  1  0
 24 25  2  0
 25 26  1  0
 26 27  1  0
 27 28  1  0
 26 29  2  0
 29 30  1  0
 30 31  2  0
 30 32  1  0
 32 33  2  0
 32 34  1  0
  6 35  2  0
 35 36  1  0
 36 37  2  0
 31 24  1  0
 34 12  1  0
 37  4  1  0
M  END
$$$$
