
     RDKit          3D

 48 52  0  0  0  0  0  0  0  0999 V2000
  -16.5963  -36.1507  -13.1103 C   0  0  0  0  0  0  0  0  0  0  0  0
  -17.1216  -37.3411  -13.9016 C   0  0  0  0  0  0  0  0  0  0  0  0
  -18.6082  -37.4276  -13.8995 C   0  0  0  0  0  0  0  0  0  0  0  0
  -16.5281  -38.5901  -13.3628 C   0  0  0  0  0  0  0  0  0  0  0  0
  -15.6338  -38.6213  -12.3335 C   0  0  0  0  0  0  0  0  0  0  0  0
  -15.0759  -39.7797  -11.8458 C   0  0  0  0  0  0  0  0  0  0  0  0
  -14.1091  -39.7487  -10.7077 C   0  0  0  0  0  0  0  0  0  0  0  0
  -14.6637  -39.0362   -9.6235 N   0  0  0  0  0  0  0  0  0  0  0  0
  -14.4400  -39.4903   -8.3076 C   0  0  0  0  0  0  0  0  0  0  0  0
  -15.5523  -40.3610   -7.7237 C   0  0  1  0  0  0  0  0  0  0  0  0
  -15.4365  -40.3465   -6.3498 O   0  0  0  0  0  0  0  0  0  0  0  0
  -16.9003  -39.7855   -8.1381 C   0  0  2  0  0  0  0  0  0  0  0  0
  -17.7542  -39.5676   -6.9427 C   0  0  0  0  0  0  0  0  0  0  0  0
  -18.9009  -38.6489   -7.2811 C   0  0  2  0  0  0  0  0  0  0  0  0
  -18.3163  -37.4736   -8.0584 C   0  0  0  0  0  0  0  0  0  0  0  0
  -19.4655  -38.0818   -6.0118 C   0  0  0  0  0  0  0  0  0  0  0  0
  -20.1289  -39.1791   -5.2273 C   0  0  0  0  0  0  0  0  0  0  0  0
  -21.4810  -39.4677   -5.8847 C   0  0  0  0  0  0  0  0  0  0  0  0
  -21.9960  -40.7371   -5.2552 C   0  0  0  0  0  0  0  0  0  0  0  0
  -22.8134  -41.5138   -6.2493 C   0  0  0  0  0  0  0  0  0  0  0  0
  -22.7154  -42.9691   -6.0133 N   0  0  0  0  0  0  0  0  0  0  0  0
  -24.0057  -43.6347   -5.8119 C   0  0  2  0  0  0  0  0  0  0  0  0
  -25.1364  -42.7973   -6.3724 C   0  0  0  0  0  0  0  0  0  0  0  0
  -24.2760  -43.8692   -4.3915 C   0  0  0  0  0  0  0  0  0  0  0  0
  -24.5219  -42.8387   -3.5137 C   0  0  0  0  0  0  0  0  0  0  0  0
  -24.7792  -43.0913   -2.1595 C   0  0  0  0  0  0  0  0  0  0  0  0
  -24.7955  -44.3556   -1.6658 C   0  0  0  0  0  0  0  0  0  0  0  0
  -24.5485  -45.4028   -2.5434 C   0  0  0  0  0  0  0  0  0  0  0  0
  -24.2936  -45.1483   -3.8855 C   0  0  0  0  0  0  0  0  0  0  0  0
  -21.4585  -43.6178   -5.9927 C   0  0  0  0  0  0  0  0  0  0  0  0
  -21.4460  -44.4417   -4.9526 O   0  0  0  0  0  0  0  0  0  0  0  0
  -20.2684  -43.5431   -6.8530 C   0  0  0  0  0  0  0  0  0  0  0  0
  -19.7598  -42.5210   -7.6251 C   0  0  0  0  0  0  0  0  0  0  0  0
  -18.6020  -42.7345   -8.3491 C   0  0  0  0  0  0  0  0  0  0  0  0
  -17.9628  -44.0046   -8.2783 C   0  0  0  0  0  0  0  0  0  0  0  0
  -18.4307  -45.0417   -7.5272 C   0  0  0  0  0  0  0  0  0  0  0  0
  -19.5775  -44.7882   -6.8288 C   0  0  0  0  0  0  0  0  0  0  0  0
  -17.7487  -46.3272   -7.4612 C   0  0  0  0  0  0  0  0  0  0  0  0
  -18.3834  -47.5070   -7.4545 N   0  0  0  0  0  0  0  0  0  0  0  0
  -17.4626  -48.5069   -7.3879 C   0  0  0  0  0  0  0  0  0  0  0  0
  -16.2388  -47.8564   -7.3552 C   0  0  0  0  0  0  0  0  0  0  0  0
  -16.4782  -46.5838   -7.4010 O   0  0  0  0  0  0  0  0  0  0  0  0
  -17.8493  -41.8760   -9.2637 C   0  0  0  0  0  0  0  0  0  0  0  0
  -17.3539  -42.4227  -10.3782 O   0  0  0  0  0  0  0  0  0  0  0  0
  -17.5010  -40.4951   -9.2277 N   0  0  0  0  0  0  0  0  0  0  0  0
  -15.4538  -40.9781  -12.4454 C   0  0  0  0  0  0  0  0  0  0  0  0
  -16.3574  -40.9621  -13.4872 C   0  0  0  0  0  0  0  0  0  0  0  0
  -16.9024  -39.7853  -13.9568 C   0  0  0  0  0  0  0  0  0  0  0  0
  1  2  1  0
  2  3  1  0
  2  4  1  0
  4  5  2  0
  5  6  1  0
  6  7  1  0
  7  8  1  0
  8  9  1  0
  9 10  1  0
 10 11  1  1
 10 12  1  0
 12 13  1  1
 13 14  1  0
 14 15  1  6
 14 16  1  0
 16 17  1  0
 17 18  1  0
 18 19  1  0
 19 20  1  0
 20 21  1  0
 21 22  1  0
 22 23  1  1
 22 24  1  0
 24 25  2  0
 25 26  1  0
 26 27  2  0
 27 28  1  0
 28 29  2  0
 21 30  1  0
 30 31  2  0
 30 32  1  0
 32 33  1  0
 33 34  2  0
 34 35  1  0
 35 36  2  0
 36 37  1  0
 36 38  1  0
 38 39  2  0
 39 40  1  0
 40 41  2  0
 41 42  1  0
 34 43  1  0
 43 44  2  0
 43 45  1  0
  6 46  2  0
 46 47  1  0
 47 48  2  0
 29 24  1  0
 37 32  2  0
 42 38  1  0
 45 12  1  0
 48  4  1  0
M  END
$$$$
