
     RDKit          3D

 48 52  0  0  0  0  0  0  0  0999 V2000
  -14.3596  -34.7701  -13.1615 C   0  0  0  0  0  0  0  0  0  0  0  0
  -14.4998  -35.6801  -11.9485 C   0  0  0  0  0  0  0  0  0  0  0  0
  -13.9187  -35.0895  -10.7111 C   0  0  0  0  0  0  0  0  0  0  0  0
  -13.8709  -36.9918  -12.2426 C   0  0  0  0  0  0  0  0  0  0  0  0
  -13.7796  -38.0080  -11.3376 C   0  0  0  0  0  0  0  0  0  0  0  0
  -13.1842  -39.2173  -11.6097 C   0  0  0  0  0  0  0  0  0  0  0  0
  -13.1254  -40.2958  -10.5780 C   0  0  0  0  0  0  0  0  0  0  0  0
  -13.7884  -39.8774   -9.4050 N   0  0  0  0  0  0  0  0  0  0  0  0
  -15.1408  -39.4849   -9.4747 C   0  0  0  0  0  0  0  0  0  0  0  0
  -15.8177  -39.2460   -8.1253 C   0  0  1  0  0  0  0  0  0  0  0  0
  -15.1417  -38.2351   -7.4754 O   0  0  0  0  0  0  0  0  0  0  0  0
  -17.2647  -38.8344   -8.3635 C   0  0  2  0  0  0  0  0  0  0  0  0
  -18.0630  -39.0265   -7.1260 C   0  0  0  0  0  0  0  0  0  0  0  0
  -19.3619  -38.2667   -7.2198 C   0  0  2  0  0  0  0  0  0  0  0  0
  -19.0256  -36.8701   -7.7334 C   0  0  0  0  0  0  0  0  0  0  0  0
  -19.9266  -38.0893   -5.8410 C   0  0  0  0  0  0  0  0  0  0  0  0
  -20.3525  -39.4259   -5.3009 C   0  0  0  0  0  0  0  0  0  0  0  0
  -21.6806  -39.7941   -5.9675 C   0  0  0  0  0  0  0  0  0  0  0  0
  -21.9429  -41.2377   -5.6209 C   0  0  0  0  0  0  0  0  0  0  0  0
  -22.6878  -41.9120   -6.7391 C   0  0  0  0  0  0  0  0  0  0  0  0
  -22.3421  -43.3454   -6.8345 N   0  0  0  0  0  0  0  0  0  0  0  0
  -23.4927  -44.2493   -6.7494 C   0  0  2  0  0  0  0  0  0  0  0  0
  -24.4703  -43.9832   -7.8752 C   0  0  0  0  0  0  0  0  0  0  0  0
  -24.2086  -44.0936   -5.4810 C   0  0  0  0  0  0  0  0  0  0  0  0
  -24.0725  -44.9931   -4.4489 C   0  0  0  0  0  0  0  0  0  0  0  0
  -24.7683  -44.8194   -3.2449 C   0  0  0  0  0  0  0  0  0  0  0  0
  -25.5981  -43.7626   -3.0529 C   0  0  0  0  0  0  0  0  0  0  0  0
  -25.7426  -42.8489   -4.0884 C   0  0  0  0  0  0  0  0  0  0  0  0
  -25.0510  -43.0246   -5.2809 C   0  0  0  0  0  0  0  0  0  0  0  0
  -20.9986  -43.7587   -6.9937 C   0  0  0  0  0  0  0  0  0  0  0  0
  -20.7863  -44.7714   -6.1629 O   0  0  0  0  0  0  0  0  0  0  0  0
  -19.8945  -43.2993   -7.8492 C   0  0  0  0  0  0  0  0  0  0  0  0
  -19.6081  -42.0642   -8.3895 C   0  0  0  0  0  0  0  0  0  0  0  0
  -18.4805  -41.9167   -9.1752 C   0  0  0  0  0  0  0  0  0  0  0  0
  -17.6423  -43.0440   -9.4058 C   0  0  0  0  0  0  0  0  0  0  0  0
  -17.8877  -44.2821   -8.8905 C   0  0  0  0  0  0  0  0  0  0  0  0
  -19.0124  -44.3838   -8.1212 C   0  0  0  0  0  0  0  0  0  0  0  0
  -17.0051  -45.4159   -9.1304 C   0  0  0  0  0  0  0  0  0  0  0  0
  -17.2199  -46.6434   -8.6384 N   0  0  0  0  0  0  0  0  0  0  0  0
  -16.2170  -47.4678   -9.0467 C   0  0  0  0  0  0  0  0  0  0  0  0
  -15.3888  -46.6617   -9.8123 C   0  0  0  0  0  0  0  0  0  0  0  0
  -15.9078  -45.4745   -9.8203 O   0  0  0  0  0  0  0  0  0  0  0  0
  -17.9366  -40.7666   -9.8975 C   0  0  0  0  0  0  0  0  0  0  0  0
  -17.4334  -40.9694  -11.1189 O   0  0  0  0  0  0  0  0  0  0  0  0
  -17.8132  -39.3866   -9.5660 N   0  0  0  0  0  0  0  0  0  0  0  0
  -12.6496  -39.3996  -12.8822 C   0  0  0  0  0  0  0  0  0  0  0  0
  -12.7346  -38.3808  -13.8080 C   0  0  0  0  0  0  0  0  0  0  0  0
  -13.3381  -37.1772  -13.5087 C   0  0  0  0  0  0  0  0  0  0  0  0
  1  2  1  0
  2  3  1  0
  2  4  1  0
  4  5  2  0
  5  6  1  0
  6  7  1  0
  7  8  1  0
  8  9  1  0
  9 10  1  0
 10 11  1  6
 10 12  1  0
 12 13  1  1
 13 14  1  0
 14 15  1  1
 14 16  1  0
 16 17  1  0
 17 18  1  0
 18 19  1  0
 19 20  1  0
 20 21  1  0
 21 22  1  0
 22 23  1  6
 22 24  1  0
 24 25  2  0
 25 26  1  0
 26 27  2  0
 27 28  1  0
 28 29  2  0
 21 30  1  0
 30 31  2  0
 30 32  1  0
 32 33  1  0
 33 34  2  0
 34 35  1  0
 35 36  2  0
 36 37  1  0
 36 38  1  0
 38 39  2  0
 39 40  1  0
 40 41  2  0
 41 42  1  0
 34 43  1  0
 43 44  2  0
 43 45  1  0
  6 46  2  0
 46 47  1  0
 47 48  2  0
 29 24  1  0
 37 32  2  0
 42 38  1  0
 45 12  1  0
 48  4  1  0
M  END
$$$$
