
     RDKit          3D

 48 52  0  0  0  0  0  0  0  0999 V2000
  -12.0794  -35.2002   -9.5814 C   0  0  0  0  0  0  0  0  0  0  0  0
  -12.1035  -35.8741  -10.9468 C   0  0  0  0  0  0  0  0  0  0  0  0
  -13.1050  -35.2743  -11.8712 C   0  0  0  0  0  0  0  0  0  0  0  0
  -12.3602  -37.3257  -10.7741 C   0  0  0  0  0  0  0  0  0  0  0  0
  -12.7950  -37.8847   -9.6086 C   0  0  0  0  0  0  0  0  0  0  0  0
  -13.0190  -39.2320   -9.4486 C   0  0  0  0  0  0  0  0  0  0  0  0
  -13.5061  -39.7823   -8.1483 C   0  0  0  0  0  0  0  0  0  0  0  0
  -14.7411  -39.1913   -7.8072 N   0  0  0  0  0  0  0  0  0  0  0  0
  -15.7775  -39.1492   -8.7623 C   0  0  0  0  0  0  0  0  0  0  0  0
  -17.1739  -39.4497   -8.2183 C   0  0  1  0  0  0  0  0  0  0  0  0
  -17.7103  -38.2763   -7.7320 O   0  0  0  0  0  0  0  0  0  0  0  0
  -18.0403  -39.9880   -9.3495 C   0  0  2  0  0  0  0  0  0  0  0  0
  -19.3629  -39.3126   -9.3484 C   0  0  0  0  0  0  0  0  0  0  0  0
  -20.0622  -39.5325  -10.6661 C   0  0  2  0  0  0  0  0  0  0  0  0
  -19.0387  -39.2621  -11.7646 C   0  0  0  0  0  0  0  0  0  0  0  0
  -21.1414  -38.5024  -10.8260 C   0  0  0  0  0  0  0  0  0  0  0  0
  -22.2271  -38.7571   -9.8181 C   0  0  0  0  0  0  0  0  0  0  0  0
  -23.0615  -39.9374  -10.3228 C   0  0  0  0  0  0  0  0  0  0  0  0
  -23.9589  -40.3411   -9.1807 C   0  0  0  0  0  0  0  0  0  0  0  0
  -24.2162  -41.8216   -9.2222 C   0  0  0  0  0  0  0  0  0  0  0  0
  -24.4089  -42.3771   -7.8667 N   0  0  0  0  0  0  0  0  0  0  0  0
  -25.6772  -43.0882   -7.6821 C   0  0  2  0  0  0  0  0  0  0  0  0
  -25.5472  -44.5378   -8.1011 C   0  0  0  0  0  0  0  0  0  0  0  0
  -26.7544  -42.4836   -8.4692 C   0  0  0  0  0  0  0  0  0  0  0  0
  -26.5748  -42.0915   -9.7756 C   0  0  0  0  0  0  0  0  0  0  0  0
  -27.6232  -41.5167  -10.5065 C   0  0  0  0  0  0  0  0  0  0  0  0
  -28.8491  -41.3263   -9.9556 C   0  0  0  0  0  0  0  0  0  0  0  0
  -29.0410  -41.7185   -8.6376 C   0  0  0  0  0  0  0  0  0  0  0  0
  -27.9988  -42.2881   -7.9161 C   0  0  0  0  0  0  0  0  0  0  0  0
  -23.4226  -42.2091   -6.8667 C   0  0  0  0  0  0  0  0  0  0  0  0
  -24.0398  -41.8603   -5.7449 O   0  0  0  0  0  0  0  0  0  0  0  0
  -21.9586  -42.3451   -6.8583 C   0  0  0  0  0  0  0  0  0  0  0  0
  -21.0184  -42.1820   -7.8527 C   0  0  0  0  0  0  0  0  0  0  0  0
  -19.6828  -42.3813   -7.5576 C   0  0  0  0  0  0  0  0  0  0  0  0
  -19.3115  -42.7489   -6.2333 C   0  0  0  0  0  0  0  0  0  0  0  0
  -20.2078  -42.9197   -5.2204 C   0  0  0  0  0  0  0  0  0  0  0  0
  -21.5165  -42.7141   -5.5557 C   0  0  0  0  0  0  0  0  0  0  0  0
  -19.7994  -43.2821   -3.8699 C   0  0  0  0  0  0  0  0  0  0  0  0
  -20.5360  -43.0361   -2.7783 N   0  0  0  0  0  0  0  0  0  0  0  0
  -19.8749  -43.4984   -1.6823 C   0  0  0  0  0  0  0  0  0  0  0  0
  -18.6987  -44.0360   -2.1818 C   0  0  0  0  0  0  0  0  0  0  0  0
  -18.7185  -43.8765   -3.4676 O   0  0  0  0  0  0  0  0  0  0  0  0
  -18.4788  -42.3154   -8.3859 C   0  0  0  0  0  0  0  0  0  0  0  0
  -17.5367  -43.2459   -8.2045 O   0  0  0  0  0  0  0  0  0  0  0  0
  -18.0572  -41.4190   -9.4097 N   0  0  0  0  0  0  0  0  0  0  0  0
  -12.7845  -40.0580  -10.5446 C   0  0  0  0  0  0  0  0  0  0  0  0
  -12.3447  -39.5068  -11.7299 C   0  0  0  0  0  0  0  0  0  0  0  0
  -12.1284  -38.1511  -11.8634 C   0  0  0  0  0  0  0  0  0  0  0  0
  1  2  1  0
  2  3  1  0
  2  4  1  0
  4  5  2  0
  5  6  1  0
  6  7  1  0
  7  8  1  0
  8  9  1  0
  9 10  1  0
 10 11  1  6
 10 12  1  0
 12 13  1  1
 13 14  1  0
 14 15  1  6
 14 16  1  0
 16 17  1  0
 17 18  1  0
 18 19  1  0
 19 20  1  0
 20 21  1  0
 21 22  1  0
 22 23  1  6
 22 24  1  0
 24 25  2  0
 25 26  1  0
 26 27  2  0
 27 28  1  0
 28 29  2  0
 21 30  1  0
 30 31  2  0
 30 32  1  0
 32 33  1  0
 33 34  2  0
 34 35  1  0
 35 36  2  0
 36 37  1  0
 36 38  1  0
 38 39  2  0
 39 40  1  0
 40 41  2  0
 41 42  1  0
 34 43  1  0
 43 44  2  0
 43 45  1  0
  6 46  2  0
 46 47  1  0
 47 48  2  0
 29 24  1  0
 37 32  2  0
 42 38  1  0
 45 12  1  0
 48  4  1  0
M  END
$$$$
