
     RDKit          3D

 48 52  0  0  0  0  0  0  0  0999 V2000
  -11.8012  -36.3493  -13.4416 C   0  0  0  0  0  0  0  0  0  0  0  0
  -12.7017  -35.2220  -12.9546 C   0  0  0  0  0  0  0  0  0  0  0  0
  -11.9410  -34.0901  -12.3565 C   0  0  0  0  0  0  0  0  0  0  0  0
  -13.6816  -35.7618  -11.9794 C   0  0  0  0  0  0  0  0  0  0  0  0
  -13.3367  -36.2726  -10.7628 C   0  0  0  0  0  0  0  0  0  0  0  0
  -14.2463  -36.7842   -9.8674 C   0  0  0  0  0  0  0  0  0  0  0  0
  -13.8063  -37.3201   -8.5444 C   0  0  0  0  0  0  0  0  0  0  0  0
  -13.8497  -38.7303   -8.5570 N   0  0  0  0  0  0  0  0  0  0  0  0
  -15.0953  -39.3868   -8.4836 C   0  0  0  0  0  0  0  0  0  0  0  0
  -15.3496  -40.4206   -9.5803 C   0  0  1  0  0  0  0  0  0  0  0  0
  -15.3848  -41.6697   -8.9974 O   0  0  0  0  0  0  0  0  0  0  0  0
  -16.6869  -40.1188  -10.2442 C   0  0  2  0  0  0  0  0  0  0  0  0
  -17.5996  -39.4534   -9.2800 C   0  0  0  0  0  0  0  0  0  0  0  0
  -18.7455  -38.8010  -10.0113 C   0  0  2  0  0  0  0  0  0  0  0  0
  -18.1463  -38.0364  -11.1875 C   0  0  0  0  0  0  0  0  0  0  0  0
  -19.3790  -37.7773   -9.1156 C   0  0  0  0  0  0  0  0  0  0  0  0
  -20.0586  -38.4710   -7.9682 C   0  0  0  0  0  0  0  0  0  0  0  0
  -21.3731  -39.0555   -8.4919 C   0  0  0  0  0  0  0  0  0  0  0  0
  -21.8941  -39.9647   -7.4081 C   0  0  0  0  0  0  0  0  0  0  0  0
  -22.6500  -41.1138   -8.0148 C   0  0  0  0  0  0  0  0  0  0  0  0
  -22.5372  -42.3339   -7.1891 N   0  0  0  0  0  0  0  0  0  0  0  0
  -23.8232  -42.9008   -6.7735 C   0  0  2  0  0  0  0  0  0  0  0  0
  -24.9614  -42.2894   -7.5638 C   0  0  0  0  0  0  0  0  0  0  0  0
  -24.0818  -42.6664   -5.3508 C   0  0  0  0  0  0  0  0  0  0  0  0
  -24.2926  -43.6984   -4.4657 C   0  0  0  0  0  0  0  0  0  0  0  0
  -24.5365  -43.4460   -3.1091 C   0  0  0  0  0  0  0  0  0  0  0  0
  -24.5734  -42.1804   -2.6199 C   0  0  0  0  0  0  0  0  0  0  0  0
  -24.3619  -41.1316   -3.5048 C   0  0  0  0  0  0  0  0  0  0  0  0
  -24.1206  -41.3859   -4.8495 C   0  0  0  0  0  0  0  0  0  0  0  0
  -21.2711  -42.8695   -6.8553 C   0  0  0  0  0  0  0  0  0  0  0  0
  -21.2926  -43.1842   -5.5663 O   0  0  0  0  0  0  0  0  0  0  0  0
  -20.0436  -43.1174   -7.6258 C   0  0  0  0  0  0  0  0  0  0  0  0
  -19.5178  -42.4924   -8.7360 C   0  0  0  0  0  0  0  0  0  0  0  0
  -18.3237  -42.9466   -9.2635 C   0  0  0  0  0  0  0  0  0  0  0  0
  -17.6659  -44.0478   -8.6462 C   0  0  0  0  0  0  0  0  0  0  0  0
  -18.1498  -44.6937   -7.5474 C   0  0  0  0  0  0  0  0  0  0  0  0
  -19.3324  -44.2136   -7.0595 C   0  0  0  0  0  0  0  0  0  0  0  0
  -17.4487  -45.8094   -6.9265 C   0  0  0  0  0  0  0  0  0  0  0  0
  -17.0808  -45.8332   -5.6384 N   0  0  0  0  0  0  0  0  0  0  0  0
  -16.4515  -47.0113   -5.3774 C   0  0  0  0  0  0  0  0  0  0  0  0
  -16.4642  -47.6919   -6.5850 C   0  0  0  0  0  0  0  0  0  0  0  0
  -17.0622  -46.9328   -7.4482 O   0  0  0  0  0  0  0  0  0  0  0  0
  -17.5445  -42.5207  -10.4261 C   0  0  0  0  0  0  0  0  0  0  0  0
  -16.9878  -43.4639  -11.1921 O   0  0  0  0  0  0  0  0  0  0  0  0
  -17.2231  -41.2389  -10.9580 N   0  0  0  0  0  0  0  0  0  0  0  0
  -15.5887  -36.7738  -10.2366 C   0  0  0  0  0  0  0  0  0  0  0  0
  -15.9525  -36.2602  -11.4638 C   0  0  0  0  0  0  0  0  0  0  0  0
  -15.0191  -35.7525  -12.3434 C   0  0  0  0  0  0  0  0  0  0  0  0
  1  2  1  0
  2  3  1  0
  2  4  1  0
  4  5  2  0
  5  6  1  0
  6  7  1  0
  7  8  1  0
  8  9  1  0
  9 10  1  0
 10 11  1  1
 10 12  1  0
 12 13  1  1
 13 14  1  0
 14 15  1  6
 14 16  1  0
 16 17  1  0
 17 18  1  0
 18 19  1  0
 19 20  1  0
 20 21  1  0
 21 22  1  0
 22 23  1  6
 22 24  1  0
 24 25  2  0
 25 26  1  0
 26 27  2  0
 27 28  1  0
 28 29  2  0
 21 30  1  0
 30 31  2  0
 30 32  1  0
 32 33  1  0
 33 34  2  0
 34 35  1  0
 35 36  2  0
 36 37  1  0
 36 38  1  0
 38 39  2  0
 39 40  1  0
 40 41  2  0
 41 42  1  0
 34 43  1  0
 43 44  2  0
 43 45  1  0
  6 46  2  0
 46 47  1  0
 47 48  2  0
 29 24  1  0
 37 32  2  0
 42 38  1  0
 45 12  1  0
 48  4  1  0
M  END
$$$$
