
     RDKit          3D

 48 52  0  0  0  0  0  0  0  0999 V2000
  -16.0438  -35.2003  -12.3783 C   0  0  0  0  0  0  0  0  0  0  0  0
  -14.7558  -34.9930  -11.5928 C   0  0  0  0  0  0  0  0  0  0  0  0
  -13.9472  -33.8488  -12.0976 C   0  0  0  0  0  0  0  0  0  0  0  0
  -13.9576  -36.2439  -11.6184 C   0  0  0  0  0  0  0  0  0  0  0  0
  -14.3998  -37.4349  -11.1223 C   0  0  0  0  0  0  0  0  0  0  0  0
  -13.6520  -38.5889  -11.1358 C   0  0  0  0  0  0  0  0  0  0  0  0
  -14.1975  -39.8661  -10.5861 C   0  0  0  0  0  0  0  0  0  0  0  0
  -13.8264  -40.0053   -9.2320 N   0  0  0  0  0  0  0  0  0  0  0  0
  -14.4263  -39.1792   -8.2596 C   0  0  0  0  0  0  0  0  0  0  0  0
  -15.6437  -39.7811   -7.5582 C   0  0  1  0  0  0  0  0  0  0  0  0
  -15.7659  -39.1884   -6.3193 O   0  0  0  0  0  0  0  0  0  0  0  0
  -16.8856  -39.4996   -8.3941 C   0  0  2  0  0  0  0  0  0  0  0  0
  -18.0514  -39.2436   -7.5103 C   0  0  0  0  0  0  0  0  0  0  0  0
  -19.1612  -38.5835   -8.2888 C   0  0  2  0  0  0  0  0  0  0  0  0
  -18.5274  -37.4609   -9.1044 C   0  0  0  0  0  0  0  0  0  0  0  0
  -20.1110  -37.9292   -7.3290 C   0  0  0  0  0  0  0  0  0  0  0  0
  -20.8311  -38.9873   -6.5407 C   0  0  0  0  0  0  0  0  0  0  0  0
  -21.9110  -39.5860   -7.4457 C   0  0  0  0  0  0  0  0  0  0  0  0
  -22.4274  -40.8117   -6.7356 C   0  0  0  0  0  0  0  0  0  0  0  0
  -22.8485  -41.8513   -7.7364 C   0  0  0  0  0  0  0  0  0  0  0  0
  -22.6508  -43.2191   -7.2136 N   0  0  0  0  0  0  0  0  0  0  0  0
  -23.8613  -44.0455   -7.2160 C   0  0  2  0  0  0  0  0  0  0  0  0
  -24.3620  -44.2624   -8.6289 C   0  0  0  0  0  0  0  0  0  0  0  0
  -24.9398  -43.4251   -6.4430 C   0  0  0  0  0  0  0  0  0  0  0  0
  -25.3352  -43.9110   -5.2181 C   0  0  0  0  0  0  0  0  0  0  0  0
  -26.3694  -43.2972   -4.4987 C   0  0  0  0  0  0  0  0  0  0  0  0
  -27.0162  -42.2057   -4.9810 C   0  0  0  0  0  0  0  0  0  0  0  0
  -26.6249  -41.7073   -6.2164 C   0  0  0  0  0  0  0  0  0  0  0  0
  -25.5991  -42.3189   -6.9269 C   0  0  0  0  0  0  0  0  0  0  0  0
  -21.3805  -43.6463   -6.7608 C   0  0  0  0  0  0  0  0  0  0  0  0
  -21.5559  -44.2903   -5.6139 O   0  0  0  0  0  0  0  0  0  0  0  0
  -20.0184  -43.5120   -7.2980 C   0  0  0  0  0  0  0  0  0  0  0  0
  -19.4409  -42.5503   -8.0986 C   0  0  0  0  0  0  0  0  0  0  0  0
  -18.1133  -42.6817   -8.4600 C   0  0  0  0  0  0  0  0  0  0  0  0
  -17.3750  -43.8067   -7.9952 C   0  0  0  0  0  0  0  0  0  0  0  0
  -17.9063  -44.7797   -7.2017 C   0  0  0  0  0  0  0  0  0  0  0  0
  -19.2210  -44.6114   -6.8695 C   0  0  0  0  0  0  0  0  0  0  0  0
  -17.1240  -45.9136   -6.7279 C   0  0  0  0  0  0  0  0  0  0  0  0
  -17.4555  -47.1921   -6.9521 N   0  0  0  0  0  0  0  0  0  0  0  0
  -16.5214  -48.0004   -6.3809 C   0  0  0  0  0  0  0  0  0  0  0  0
  -15.6108  -47.1305   -5.8014 C   0  0  0  0  0  0  0  0  0  0  0  0
  -16.0228  -45.9258   -6.0418 O   0  0  0  0  0  0  0  0  0  0  0  0
  -17.2449  -41.8617   -9.3048 C   0  0  0  0  0  0  0  0  0  0  0  0
  -16.4057  -42.4839  -10.1383 O   0  0  0  0  0  0  0  0  0  0  0  0
  -17.0816  -40.4534   -9.4445 N   0  0  0  0  0  0  0  0  0  0  0  0
  -12.3759  -38.5225  -11.6887 C   0  0  0  0  0  0  0  0  0  0  0  0
  -11.9153  -37.3249  -12.1944 C   0  0  0  0  0  0  0  0  0  0  0  0
  -12.6868  -36.1818  -12.1687 C   0  0  0  0  0  0  0  0  0  0  0  0
  1  2  1  0
  2  3  1  0
  2  4  1  0
  4  5  2  0
  5  6  1  0
  6  7  1  0
  7  8  1  0
  8  9  1  0
  9 10  1  0
 10 11  1  1
 10 12  1  0
 12 13  1  1
 13 14  1  0
 14 15  1  6
 14 16  1  0
 16 17  1  0
 17 18  1  0
 18 19  1  0
 19 20  1  0
 20 21  1  0
 21 22  1  0
 22 23  1  6
 22 24  1  0
 24 25  2  0
 25 26  1  0
 26 27  2  0
 27 28  1  0
 28 29  2  0
 21 30  1  0
 30 31  2  0
 30 32  1  0
 32 33  1  0
 33 34  2  0
 34 35  1  0
 35 36  2  0
 36 37  1  0
 36 38  1  0
 38 39  2  0
 39 40  1  0
 40 41  2  0
 41 42  1  0
 34 43  1  0
 43 44  2  0
 43 45  1  0
  6 46  2  0
 46 47  1  0
 47 48  2  0
 29 24  1  0
 37 32  2  0
 42 38  1  0
 45 12  1  0
 48  4  1  0
M  END
$$$$
