
     RDKit          3D

 48 52  0  0  0  0  0  0  0  0999 V2000
  -15.5980  -41.7401  -12.3982 C   0  0  0  0  0  0  0  0  0  0  0  0
  -15.1198  -40.6000  -13.2872 C   0  0  0  0  0  0  0  0  0  0  0  0
  -14.0757  -41.0235  -14.2610 C   0  0  0  0  0  0  0  0  0  0  0  0
  -14.6180  -39.4913  -12.4376 C   0  0  0  0  0  0  0  0  0  0  0  0
  -13.9333  -39.6794  -11.2732 C   0  0  0  0  0  0  0  0  0  0  0  0
  -13.4817  -38.6495  -10.4818 C   0  0  0  0  0  0  0  0  0  0  0  0
  -12.7272  -38.9209   -9.2216 C   0  0  0  0  0  0  0  0  0  0  0  0
  -13.5280  -39.6675   -8.3317 N   0  0  0  0  0  0  0  0  0  0  0  0
  -14.6095  -39.0410   -7.6792 C   0  0  0  0  0  0  0  0  0  0  0  0
  -15.7383  -39.9773   -7.2488 C   0  0  1  0  0  0  0  0  0  0  0  0
  -15.7849  -39.9937   -5.8709 O   0  0  0  0  0  0  0  0  0  0  0  0
  -17.0552  -39.4541   -7.8075 C   0  0  2  0  0  0  0  0  0  0  0  0
  -18.0478  -39.2924   -6.7147 C   0  0  0  0  0  0  0  0  0  0  0  0
  -19.1888  -38.4189   -7.1712 C   0  0  2  0  0  0  0  0  0  0  0  0
  -18.5732  -37.2072   -7.8642 C   0  0  0  0  0  0  0  0  0  0  0  0
  -19.9182  -37.8970   -5.9682 C   0  0  0  0  0  0  0  0  0  0  0  0
  -20.6162  -39.0343   -5.2762 C   0  0  0  0  0  0  0  0  0  0  0  0
  -21.8711  -39.3706   -6.0862 C   0  0  0  0  0  0  0  0  0  0  0  0
  -22.3966  -40.6709   -5.5332 C   0  0  0  0  0  0  0  0  0  0  0  0
  -23.0607  -41.4663   -6.6223 C   0  0  0  0  0  0  0  0  0  0  0  0
  -22.9250  -42.9196   -6.3926 N   0  0  0  0  0  0  0  0  0  0  0  0
  -24.1986  -43.6435   -6.3465 C   0  0  2  0  0  0  0  0  0  0  0  0
  -25.3083  -42.8201   -6.9666 C   0  0  0  0  0  0  0  0  0  0  0  0
  -24.5870  -43.9652   -4.9712 C   0  0  0  0  0  0  0  0  0  0  0  0
  -24.7317  -45.2623   -4.5361 C   0  0  0  0  0  0  0  0  0  0  0  0
  -25.1031  -45.5421   -3.2142 C   0  0  0  0  0  0  0  0  0  0  0  0
  -25.3326  -44.5488   -2.3180 C   0  0  0  0  0  0  0  0  0  0  0  0
  -25.1893  -43.2360   -2.7469 C   0  0  0  0  0  0  0  0  0  0  0  0
  -24.8211  -42.9626   -4.0587 C   0  0  0  0  0  0  0  0  0  0  0  0
  -21.6507  -43.5136   -6.2362 C   0  0  0  0  0  0  0  0  0  0  0  0
  -21.7191  -44.3527   -5.2105 O   0  0  0  0  0  0  0  0  0  0  0  0
  -20.3755  -43.3738   -6.9548 C   0  0  0  0  0  0  0  0  0  0  0  0
  -19.8291  -42.3186   -7.6528 C   0  0  0  0  0  0  0  0  0  0  0  0
  -18.5884  -42.4703   -8.2428 C   0  0  0  0  0  0  0  0  0  0  0  0
  -17.9051  -43.7125   -8.1136 C   0  0  0  0  0  0  0  0  0  0  0  0
  -18.4081  -44.7806   -7.4320 C   0  0  0  0  0  0  0  0  0  0  0  0
  -19.6367  -44.5881   -6.8658 C   0  0  0  0  0  0  0  0  0  0  0  0
  -17.6811  -46.0363   -7.3028 C   0  0  0  0  0  0  0  0  0  0  0  0
  -18.2716  -47.2196   -7.0883 N   0  0  0  0  0  0  0  0  0  0  0  0
  -17.3169  -48.1869   -7.0190 C   0  0  0  0  0  0  0  0  0  0  0  0
  -16.1195  -47.5133   -7.2048 C   0  0  0  0  0  0  0  0  0  0  0  0
  -16.4044  -46.2595   -7.3650 O   0  0  0  0  0  0  0  0  0  0  0  0
  -17.7762  -41.5655   -9.0565 C   0  0  0  0  0  0  0  0  0  0  0  0
  -17.1340  -42.0725  -10.1132 O   0  0  0  0  0  0  0  0  0  0  0  0
  -17.4965  -40.1716   -8.9660 N   0  0  0  0  0  0  0  0  0  0  0  0
  -13.7454  -37.3495  -10.9048 C   0  0  0  0  0  0  0  0  0  0  0  0
  -14.4367  -37.1439  -12.0803 C   0  0  0  0  0  0  0  0  0  0  0  0
  -14.8782  -38.1956  -12.8558 C   0  0  0  0  0  0  0  0  0  0  0  0
  1  2  1  0
  2  3  1  0
  2  4  1  0
  4  5  2  0
  5  6  1  0
  6  7  1  0
  7  8  1  0
  8  9  1  0
  9 10  1  0
 10 11  1  1
 10 12  1  0
 12 13  1  1
 13 14  1  0
 14 15  1  1
 14 16  1  0
 16 17  1  0
 17 18  1  0
 18 19  1  0
 19 20  1  0
 20 21  1  0
 21 22  1  0
 22 23  1  1
 22 24  1  0
 24 25  2  0
 25 26  1  0
 26 27  2  0
 27 28  1  0
 28 29  2  0
 21 30  1  0
 30 31  2  0
 30 32  1  0
 32 33  1  0
 33 34  2  0
 34 35  1  0
 35 36  2  0
 36 37  1  0
 36 38  1  0
 38 39  2  0
 39 40  1  0
 40 41  2  0
 41 42  1  0
 34 43  1  0
 43 44  2  0
 43 45  1  0
  6 46  2  0
 46 47  1  0
 47 48  2  0
 29 24  1  0
 37 32  2  0
 42 38  1  0
 45 12  1  0
 48  4  1  0
M  END
$$$$
