
     RDKit          3D

 48 52  0  0  0  0  0  0  0  0999 V2000
  -12.3516  -33.5242  -10.6972 C   0  0  0  0  0  0  0  0  0  0  0  0
  -12.9774  -34.1002  -11.9603 C   0  0  0  0  0  0  0  0  0  0  0  0
  -13.0944  -33.0996  -13.0570 C   0  0  0  0  0  0  0  0  0  0  0  0
  -14.3081  -34.6704  -11.6337 C   0  0  0  0  0  0  0  0  0  0  0  0
  -14.6982  -35.9304  -11.9805 C   0  0  0  0  0  0  0  0  0  0  0  0
  -15.9371  -36.4505  -11.6877 C   0  0  0  0  0  0  0  0  0  0  0  0
  -16.3009  -37.8434  -12.0859 C   0  0  0  0  0  0  0  0  0  0  0  0
  -15.5168  -38.7705  -11.3672 N   0  0  0  0  0  0  0  0  0  0  0  0
  -15.5964  -38.8029   -9.9599 C   0  0  0  0  0  0  0  0  0  0  0  0
  -15.6858  -40.2002   -9.3469 C   0  0  1  0  0  0  0  0  0  0  0  0
  -14.4192  -40.7445   -9.3246 O   0  0  0  0  0  0  0  0  0  0  0  0
  -16.2271  -40.0843   -7.9279 C   0  0  2  0  0  0  0  0  0  0  0  0
  -16.6807  -41.4123   -7.4420 C   0  0  0  0  0  0  0  0  0  0  0  0
  -16.8371  -41.3937   -5.9424 C   0  0  2  0  0  0  0  0  0  0  0  0
  -15.5882  -40.7289   -5.3720 C   0  0  0  0  0  0  0  0  0  0  0  0
  -16.8396  -42.8049   -5.4324 C   0  0  0  0  0  0  0  0  0  0  0  0
  -18.0890  -43.5004   -5.8961 C   0  0  0  0  0  0  0  0  0  0  0  0
  -19.2443  -43.0144   -5.0171 C   0  0  0  0  0  0  0  0  0  0  0  0
  -20.5102  -43.5099   -5.6689 C   0  0  0  0  0  0  0  0  0  0  0  0
  -21.6327  -42.5403   -5.4244 C   0  0  0  0  0  0  0  0  0  0  0  0
  -22.5960  -42.5318   -6.5448 N   0  0  0  0  0  0  0  0  0  0  0  0
  -23.9789  -42.8173   -6.1521 C   0  0  2  0  0  0  0  0  0  0  0  0
  -24.4412  -41.8585   -5.0746 C   0  0  0  0  0  0  0  0  0  0  0  0
  -24.1232  -44.1812   -5.6376 C   0  0  0  0  0  0  0  0  0  0  0  0
  -24.6601  -45.1961   -6.3954 C   0  0  0  0  0  0  0  0  0  0  0  0
  -24.7854  -46.4928   -5.8789 C   0  0  0  0  0  0  0  0  0  0  0  0
  -24.3834  -46.7944   -4.6180 C   0  0  0  0  0  0  0  0  0  0  0  0
  -23.8401  -45.7772   -3.8447 C   0  0  0  0  0  0  0  0  0  0  0  0
  -23.7177  -44.4926   -4.3604 C   0  0  0  0  0  0  0  0  0  0  0  0
  -22.1690  -42.2653   -7.8668 C   0  0  0  0  0  0  0  0  0  0  0  0
  -22.7490  -43.1523   -8.6653 O   0  0  0  0  0  0  0  0  0  0  0  0
  -21.2724  -41.2598   -8.4559 C   0  0  0  0  0  0  0  0  0  0  0  0
  -20.1856  -40.5878   -7.9394 C   0  0  0  0  0  0  0  0  0  0  0  0
  -19.5166  -39.6758   -8.7338 C   0  0  0  0  0  0  0  0  0  0  0  0
  -19.9660  -39.4542  -10.0663 C   0  0  0  0  0  0  0  0  0  0  0  0
  -21.0346  -40.0972  -10.6168 C   0  0  0  0  0  0  0  0  0  0  0  0
  -21.6674  -40.9888   -9.7971 C   0  0  0  0  0  0  0  0  0  0  0  0
  -21.4647  -39.8623  -11.9886 C   0  0  0  0  0  0  0  0  0  0  0  0
  -20.6768  -39.3361  -12.9359 N   0  0  0  0  0  0  0  0  0  0  0  0
  -21.3770  -39.2509  -14.0997 C   0  0  0  0  0  0  0  0  0  0  0  0
  -22.6308  -39.7570  -13.7937 C   0  0  0  0  0  0  0  0  0  0  0  0
  -22.6141  -40.0962  -12.5433 O   0  0  0  0  0  0  0  0  0  0  0  0
  -18.3728  -38.8031   -8.4686 C   0  0  0  0  0  0  0  0  0  0  0  0
  -18.4055  -37.5566   -8.9497 O   0  0  0  0  0  0  0  0  0  0  0  0
  -17.1486  -38.9997   -7.7669 N   0  0  0  0  0  0  0  0  0  0  0  0
  -16.8313  -35.6348  -10.9997 C   0  0  0  0  0  0  0  0  0  0  0  0
  -16.4507  -34.3583  -10.6422 C   0  0  0  0  0  0  0  0  0  0  0  0
  -15.2009  -33.8614  -10.9482 C   0  0  0  0  0  0  0  0  0  0  0  0
  1  2  1  0
  2  3  1  0
  2  4  1  0
  4  5  2  0
  5  6  1  0
  6  7  1  0
  7  8  1  0
  8  9  1  0
  9 10  1  0
 10 11  1  1
 10 12  1  0
 12 13  1  6
 13 14  1  0
 14 15  1  1
 14 16  1  0
 16 17  1  0
 17 18  1  0
 18 19  1  0
 19 20  1  0
 20 21  1  0
 21 22  1  0
 22 23  1  1
 22 24  1  0
 24 25  2  0
 25 26  1  0
 26 27  2  0
 27 28  1  0
 28 29  2  0
 21 30  1  0
 30 31  2  0
 30 32  1  0
 32 33  1  0
 33 34  2  0
 34 35  1  0
 35 36  2  0
 36 37  1  0
 36 38  1  0
 38 39  2  0
 39 40  1  0
 40 41  2  0
 41 42  1  0
 34 43  1  0
 43 44  2  0
 43 45  1  0
  6 46  2  0
 46 47  1  0
 47 48  2  0
 29 24  1  0
 37 32  2  0
 42 38  1  0
 45 12  1  0
 48  4  1  0
M  END
$$$$
