
     RDKit          3D

 48 52  0  0  0  0  0  0  0  0999 V2000
  -13.6236  -35.8204  -11.4565 C   0  0  0  0  0  0  0  0  0  0  0  0
  -13.8573  -36.4481  -12.8242 C   0  0  0  0  0  0  0  0  0  0  0  0
  -15.2981  -36.5072  -13.1959 C   0  0  0  0  0  0  0  0  0  0  0  0
  -13.2581  -37.8056  -12.8509 C   0  0  0  0  0  0  0  0  0  0  0  0
  -13.3333  -38.6874  -11.8131 C   0  0  0  0  0  0  0  0  0  0  0  0
  -12.7654  -39.9395  -11.8366 C   0  0  0  0  0  0  0  0  0  0  0  0
  -12.8921  -40.8643  -10.6705 C   0  0  0  0  0  0  0  0  0  0  0  0
  -13.6146  -40.2365   -9.6338 N   0  0  0  0  0  0  0  0  0  0  0  0
  -15.0001  -40.0227   -9.7845 C   0  0  0  0  0  0  0  0  0  0  0  0
  -15.7331  -39.5968   -8.5126 C   0  0  1  0  0  0  0  0  0  0  0  0
  -15.0628  -38.5228   -7.9664 O   0  0  0  0  0  0  0  0  0  0  0  0
  -17.1565  -39.1924   -8.8738 C   0  0  2  0  0  0  0  0  0  0  0  0
  -17.9614  -38.9935   -7.6417 C   0  0  0  0  0  0  0  0  0  0  0  0
  -19.2180  -38.2226   -7.9582 C   0  0  2  0  0  0  0  0  0  0  0  0
  -18.8085  -37.0417   -8.8327 C   0  0  0  0  0  0  0  0  0  0  0  0
  -19.7696  -37.6423   -6.6891 C   0  0  0  0  0  0  0  0  0  0  0  0
  -20.2654  -38.7538   -5.8069 C   0  0  0  0  0  0  0  0  0  0  0  0
  -21.6126  -39.2222   -6.3631 C   0  0  0  0  0  0  0  0  0  0  0  0
  -21.9511  -40.4983   -5.6351 C   0  0  0  0  0  0  0  0  0  0  0  0
  -22.7332  -41.4154   -6.5334 C   0  0  0  0  0  0  0  0  0  0  0  0
  -22.4649  -42.8354   -6.2252 N   0  0  0  0  0  0  0  0  0  0  0  0
  -23.6621  -43.6195   -5.9089 C   0  0  2  0  0  0  0  0  0  0  0  0
  -24.9002  -42.9698   -6.4910 C   0  0  0  0  0  0  0  0  0  0  0  0
  -23.8556  -43.7495   -4.4628 C   0  0  0  0  0  0  0  0  0  0  0  0
  -23.9998  -44.9732   -3.8509 C   0  0  0  0  0  0  0  0  0  0  0  0
  -24.1822  -45.0691   -2.4648 C   0  0  0  0  0  0  0  0  0  0  0  0
  -24.2231  -43.9638   -1.6780 C   0  0  0  0  0  0  0  0  0  0  0  0
  -24.0787  -42.7238   -2.2856 C   0  0  0  0  0  0  0  0  0  0  0  0
  -23.8981  -42.6328   -3.6605 C   0  0  0  0  0  0  0  0  0  0  0  0
  -21.1458  -43.3458   -6.2469 C   0  0  0  0  0  0  0  0  0  0  0  0
  -20.9863  -44.0994   -5.1663 O   0  0  0  0  0  0  0  0  0  0  0  0
  -20.0204  -43.1986   -7.1817 C   0  0  0  0  0  0  0  0  0  0  0  0
  -19.6694  -42.1773   -8.0379 C   0  0  0  0  0  0  0  0  0  0  0  0
  -18.5371  -42.3113   -8.8193 C   0  0  0  0  0  0  0  0  0  0  0  0
  -17.7609  -43.5005   -8.7192 C   0  0  0  0  0  0  0  0  0  0  0  0
  -18.0711  -44.5337   -7.8855 C   0  0  0  0  0  0  0  0  0  0  0  0
  -19.1982  -44.3604   -7.1326 C   0  0  0  0  0  0  0  0  0  0  0  0
  -17.2510  -45.7339   -7.7919 C   0  0  0  0  0  0  0  0  0  0  0  0
  -16.7527  -46.3796   -8.8548 N   0  0  0  0  0  0  0  0  0  0  0  0
  -16.0348  -47.4534   -8.4263 C   0  0  0  0  0  0  0  0  0  0  0  0
  -16.1324  -47.4129   -7.0440 C   0  0  0  0  0  0  0  0  0  0  0  0
  -16.8571  -46.3828   -6.7396 O   0  0  0  0  0  0  0  0  0  0  0  0
  -17.9339  -41.4354   -9.8238 C   0  0  0  0  0  0  0  0  0  0  0  0
  -17.4447  -41.9934  -10.9353 O   0  0  0  0  0  0  0  0  0  0  0  0
  -17.7361  -40.0258   -9.8842 N   0  0  0  0  0  0  0  0  0  0  0  0
  -12.0791  -40.3135  -12.9888 C   0  0  0  0  0  0  0  0  0  0  0  0
  -11.9949  -39.4323  -14.0464 C   0  0  0  0  0  0  0  0  0  0  0  0
  -12.5746  -38.1817  -13.9967 C   0  0  0  0  0  0  0  0  0  0  0  0
  1  2  1  0
  2  3  1  0
  2  4  1  0
  4  5  2  0
  5  6  1  0
  6  7  1  0
  7  8  1  0
  8  9  1  0
  9 10  1  0
 10 11  1  6
 10 12  1  0
 12 13  1  1
 13 14  1  0
 14 15  1  6
 14 16  1  0
 16 17  1  0
 17 18  1  0
 18 19  1  0
 19 20  1  0
 20 21  1  0
 21 22  1  0
 22 23  1  1
 22 24  1  0
 24 25  2  0
 25 26  1  0
 26 27  2  0
 27 28  1  0
 28 29  2  0
 21 30  1  0
 30 31  2  0
 30 32  1  0
 32 33  1  0
 33 34  2  0
 34 35  1  0
 35 36  2  0
 36 37  1  0
 36 38  1  0
 38 39  2  0
 39 40  1  0
 40 41  2  0
 41 42  1  0
 34 43  1  0
 43 44  2  0
 43 45  1  0
  6 46  2  0
 46 47  1  0
 47 48  2  0
 29 24  1  0
 37 32  2  0
 42 38  1  0
 45 12  1  0
 48  4  1  0
M  END
$$$$
