
     RDKit          3D

 48 52  0  0  0  0  0  0  0  0999 V2000
  -14.2702  -33.7895  -11.7106 C   0  0  0  0  0  0  0  0  0  0  0  0
  -15.5328  -34.3031  -11.0316 C   0  0  0  0  0  0  0  0  0  0  0  0
  -15.5486  -34.0430   -9.5653 C   0  0  0  0  0  0  0  0  0  0  0  0
  -15.6814  -35.7546  -11.3030 C   0  0  0  0  0  0  0  0  0  0  0  0
  -14.8323  -36.7063  -10.8199 C   0  0  0  0  0  0  0  0  0  0  0  0
  -14.9656  -38.0491  -11.0847 C   0  0  0  0  0  0  0  0  0  0  0  0
  -14.0079  -39.0445  -10.5164 C   0  0  0  0  0  0  0  0  0  0  0  0
  -14.3046  -39.2771   -9.1568 N   0  0  0  0  0  0  0  0  0  0  0  0
  -14.7606  -40.5489   -8.7537 C   0  0  0  0  0  0  0  0  0  0  0  0
  -15.7005  -40.5494   -7.5484 C   0  0  1  0  0  0  0  0  0  0  0  0
  -15.1514  -39.7459   -6.5716 O   0  0  0  0  0  0  0  0  0  0  0  0
  -17.0539  -39.9968   -7.9761 C   0  0  2  0  0  0  0  0  0  0  0  0
  -17.9486  -39.8629   -6.7983 C   0  0  0  0  0  0  0  0  0  0  0  0
  -19.1143  -38.9651   -7.1280 C   0  0  2  0  0  0  0  0  0  0  0  0
  -18.5459  -37.7364   -7.8312 C   0  0  0  0  0  0  0  0  0  0  0  0
  -19.7335  -38.4772   -5.8512 C   0  0  0  0  0  0  0  0  0  0  0  0
  -20.3832  -39.6309   -5.1396 C   0  0  0  0  0  0  0  0  0  0  0  0
  -21.7057  -39.9295   -5.8506 C   0  0  0  0  0  0  0  0  0  0  0  0
  -22.1973  -41.2429   -5.2973 C   0  0  0  0  0  0  0  0  0  0  0  0
  -22.9600  -41.9962   -6.3512 C   0  0  0  0  0  0  0  0  0  0  0  0
  -22.8217  -43.4574   -6.1808 N   0  0  0  0  0  0  0  0  0  0  0  0
  -24.0949  -44.1716   -6.0502 C   0  0  2  0  0  0  0  0  0  0  0  0
  -25.2316  -43.3555   -6.6298 C   0  0  0  0  0  0  0  0  0  0  0  0
  -24.4113  -44.4586   -4.6491 C   0  0  0  0  0  0  0  0  0  0  0  0
  -24.8444  -45.6973   -4.2357 C   0  0  0  0  0  0  0  0  0  0  0  0
  -25.1390  -45.9454   -2.8883 C   0  0  0  0  0  0  0  0  0  0  0  0
  -25.0085  -44.9778   -1.9454 C   0  0  0  0  0  0  0  0  0  0  0  0
  -24.5721  -43.7240   -2.3520 C   0  0  0  0  0  0  0  0  0  0  0  0
  -24.2812  -43.4818   -3.6891 C   0  0  0  0  0  0  0  0  0  0  0  0
  -21.5455  -44.0670   -6.1524 C   0  0  0  0  0  0  0  0  0  0  0  0
  -21.5363  -44.9390   -5.1522 O   0  0  0  0  0  0  0  0  0  0  0  0
  -20.3341  -43.9143   -6.9717 C   0  0  0  0  0  0  0  0  0  0  0  0
  -19.8368  -42.8411   -7.6792 C   0  0  0  0  0  0  0  0  0  0  0  0
  -18.6522  -42.9837   -8.3769 C   0  0  0  0  0  0  0  0  0  0  0  0
  -17.9745  -44.2353   -8.3463 C   0  0  0  0  0  0  0  0  0  0  0  0
  -18.4300  -45.3211   -7.6593 C   0  0  0  0  0  0  0  0  0  0  0  0
  -19.6042  -45.1371   -6.9850 C   0  0  0  0  0  0  0  0  0  0  0  0
  -17.7089  -46.5865   -7.6329 C   0  0  0  0  0  0  0  0  0  0  0  0
  -16.4033  -46.7050   -7.9092 N   0  0  0  0  0  0  0  0  0  0  0  0
  -16.0413  -48.0119   -7.7941 C   0  0  0  0  0  0  0  0  0  0  0  0
  -17.2071  -48.6692   -7.4325 C   0  0  0  0  0  0  0  0  0  0  0  0
  -18.1437  -47.7771   -7.3556 O   0  0  0  0  0  0  0  0  0  0  0  0
  -17.9016  -42.0595   -9.2269 C   0  0  0  0  0  0  0  0  0  0  0  0
  -17.3568  -42.5366  -10.3502 O   0  0  0  0  0  0  0  0  0  0  0  0
  -17.5996  -40.6717   -9.1155 N   0  0  0  0  0  0  0  0  0  0  0  0
  -16.0295  -38.4436  -11.8914 C   0  0  0  0  0  0  0  0  0  0  0  0
  -16.8964  -37.4923  -12.3870 C   0  0  0  0  0  0  0  0  0  0  0  0
  -16.7399  -36.1511  -12.1053 C   0  0  0  0  0  0  0  0  0  0  0  0
  1  2  1  0
  2  3  1  0
  2  4  1  0
  4  5  2  0
  5  6  1  0
  6  7  1  0
  7  8  1  0
  8  9  1  0
  9 10  1  0
 10 11  1  1
 10 12  1  0
 12 13  1  1
 13 14  1  0
 14 15  1  6
 14 16  1  0
 16 17  1  0
 17 18  1  0
 18 19  1  0
 19 20  1  0
 20 21  1  0
 21 22  1  0
 22 23  1  1
 22 24  1  0
 24 25  2  0
 25 26  1  0
 26 27  2  0
 27 28  1  0
 28 29  2  0
 21 30  1  0
 30 31  2  0
 30 32  1  0
 32 33  1  0
 33 34  2  0
 34 35  1  0
 35 36  2  0
 36 37  1  0
 36 38  1  0
 38 39  2  0
 39 40  1  0
 40 41  2  0
 41 42  1  0
 34 43  1  0
 43 44  2  0
 43 45  1  0
  6 46  2  0
 46 47  1  0
 47 48  2  0
 29 24  1  0
 37 32  2  0
 42 38  1  0
 45 12  1  0
 48  4  1  0
M  END
$$$$
