
     RDKit          3D

 48 52  0  0  0  0  0  0  0  0999 V2000
  -11.8875  -35.4965  -12.0656 C   0  0  0  0  0  0  0  0  0  0  0  0
  -12.3731  -36.3030  -10.8686 C   0  0  0  0  0  0  0  0  0  0  0  0
  -11.6084  -36.0109   -9.6246 C   0  0  0  0  0  0  0  0  0  0  0  0
  -12.3066  -37.7501  -11.1911 C   0  0  0  0  0  0  0  0  0  0  0  0
  -13.0438  -38.7033  -10.5523 C   0  0  0  0  0  0  0  0  0  0  0  0
  -12.9695  -40.0449  -10.8450 C   0  0  0  0  0  0  0  0  0  0  0  0
  -13.8120  -41.0396  -10.1159 C   0  0  0  0  0  0  0  0  0  0  0  0
  -14.6593  -40.3766   -9.2030 N   0  0  0  0  0  0  0  0  0  0  0  0
  -16.0087  -40.1532   -9.5451 C   0  0  0  0  0  0  0  0  0  0  0  0
  -16.2549  -39.7848  -11.0080 C   0  0  1  0  0  0  0  0  0  0  0  0
  -15.9004  -40.8629  -11.7909 O   0  0  0  0  0  0  0  0  0  0  0  0
  -17.7330  -39.4688  -11.1966 C   0  0  2  0  0  0  0  0  0  0  0  0
  -18.3034  -38.9158   -9.9419 C   0  0  0  0  0  0  0  0  0  0  0  0
  -19.6214  -38.2391  -10.2217 C   0  0  2  0  0  0  0  0  0  0  0  0
  -19.4188  -37.3595  -11.4515 C   0  0  0  0  0  0  0  0  0  0  0  0
  -19.9487  -37.3149   -9.0858 C   0  0  0  0  0  0  0  0  0  0  0  0
  -20.2368  -38.1239   -7.8521 C   0  0  0  0  0  0  0  0  0  0  0  0
  -21.6473  -38.7018   -7.9948 C   0  0  0  0  0  0  0  0  0  0  0  0
  -21.8039  -39.7152   -6.8897 C   0  0  0  0  0  0  0  0  0  0  0  0
  -22.7075  -40.8312   -7.3344 C   0  0  0  0  0  0  0  0  0  0  0  0
  -22.3406  -42.1129   -6.6973 N   0  0  0  0  0  0  0  0  0  0  0  0
  -23.4327  -42.7522   -5.9578 C   0  0  2  0  0  0  0  0  0  0  0  0
  -24.7741  -42.3964   -6.5646 C   0  0  0  0  0  0  0  0  0  0  0  0
  -23.4470  -42.3393   -4.5524 C   0  0  0  0  0  0  0  0  0  0  0  0
  -23.0090  -43.1648   -3.5427 C   0  0  0  0  0  0  0  0  0  0  0  0
  -23.0323  -42.7440   -2.2063 C   0  0  0  0  0  0  0  0  0  0  0  0
  -23.4854  -41.5123   -1.8597 C   0  0  0  0  0  0  0  0  0  0  0  0
  -23.9298  -40.6713   -2.8712 C   0  0  0  0  0  0  0  0  0  0  0  0
  -23.9053  -41.0923   -4.1953 C   0  0  0  0  0  0  0  0  0  0  0  0
  -21.0320  -42.6360   -6.8203 C   0  0  0  0  0  0  0  0  0  0  0  0
  -20.6517  -43.0593   -5.6216 O   0  0  0  0  0  0  0  0  0  0  0  0
  -20.1034  -42.7799   -7.9512 C   0  0  0  0  0  0  0  0  0  0  0  0
  -19.9497  -42.0473   -9.1084 C   0  0  0  0  0  0  0  0  0  0  0  0
  -18.9769  -42.4183  -10.0175 C   0  0  0  0  0  0  0  0  0  0  0  0
  -18.1569  -43.5473   -9.7352 C   0  0  0  0  0  0  0  0  0  0  0  0
  -18.2743  -44.2985   -8.6037 C   0  0  0  0  0  0  0  0  0  0  0  0
  -19.2485  -43.8979   -7.7333 C   0  0  0  0  0  0  0  0  0  0  0  0
  -17.4120  -45.4409   -8.3327 C   0  0  0  0  0  0  0  0  0  0  0  0
  -16.7310  -46.1006   -9.2793 N   0  0  0  0  0  0  0  0  0  0  0  0
  -16.0250  -47.1085   -8.6983 C   0  0  0  0  0  0  0  0  0  0  0  0
  -16.3231  -47.0137   -7.3477 C   0  0  0  0  0  0  0  0  0  0  0  0
  -17.1393  -46.0178   -7.2029 O   0  0  0  0  0  0  0  0  0  0  0  0
  -18.5979  -41.8718  -11.3205 C   0  0  0  0  0  0  0  0  0  0  0  0
  -18.3037  -42.7291  -12.3026 O   0  0  0  0  0  0  0  0  0  0  0  0
  -18.4610  -40.5402  -11.8079 N   0  0  0  0  0  0  0  0  0  0  0  0
  -12.0893  -40.4366  -11.8501 C   0  0  0  0  0  0  0  0  0  0  0  0
  -11.3374  -39.4837  -12.5050 C   0  0  0  0  0  0  0  0  0  0  0  0
  -11.4318  -38.1438  -12.1918 C   0  0  0  0  0  0  0  0  0  0  0  0
  1  2  1  0
  2  3  1  0
  2  4  1  0
  4  5  2  0
  5  6  1  0
  6  7  1  0
  7  8  1  0
  8  9  1  0
  9 10  1  0
 10 11  1  6
 10 12  1  0
 12 13  1  1
 13 14  1  0
 14 15  1  6
 14 16  1  0
 16 17  1  0
 17 18  1  0
 18 19  1  0
 19 20  1  0
 20 21  1  0
 21 22  1  0
 22 23  1  6
 22 24  1  0
 24 25  2  0
 25 26  1  0
 26 27  2  0
 27 28  1  0
 28 29  2  0
 21 30  1  0
 30 31  2  0
 30 32  1  0
 32 33  1  0
 33 34  2  0
 34 35  1  0
 35 36  2  0
 36 37  1  0
 36 38  1  0
 38 39  2  0
 39 40  1  0
 40 41  2  0
 41 42  1  0
 34 43  1  0
 43 44  2  0
 43 45  1  0
  6 46  2  0
 46 47  1  0
 47 48  2  0
 29 24  1  0
 37 32  2  0
 42 38  1  0
 45 12  1  0
 48  4  1  0
M  END
$$$$
