
     RDKit          3D

 48 52  0  0  0  0  0  0  0  0999 V2000
  -12.7441  -33.9267   -9.5200 C   0  0  0  0  0  0  0  0  0  0  0  0
  -13.9705  -34.1936  -10.3824 C   0  0  0  0  0  0  0  0  0  0  0  0
  -15.2441  -33.8103   -9.7128 C   0  0  0  0  0  0  0  0  0  0  0  0
  -13.9977  -35.6264  -10.7684 C   0  0  0  0  0  0  0  0  0  0  0  0
  -13.5829  -36.6385   -9.9536 C   0  0  0  0  0  0  0  0  0  0  0  0
  -13.5972  -37.9639  -10.3198 C   0  0  0  0  0  0  0  0  0  0  0  0
  -13.1393  -39.0280   -9.3769 C   0  0  0  0  0  0  0  0  0  0  0  0
  -14.2421  -39.7923   -8.9406 N   0  0  0  0  0  0  0  0  0  0  0  0
  -14.8525  -39.4880   -7.7066 C   0  0  0  0  0  0  0  0  0  0  0  0
  -16.0679  -40.3456   -7.3548 C   0  0  1  0  0  0  0  0  0  0  0  0
  -16.2233  -40.3341   -5.9849 O   0  0  0  0  0  0  0  0  0  0  0  0
  -17.3017  -39.7529   -8.0232 C   0  0  2  0  0  0  0  0  0  0  0  0
  -18.4211  -39.6686   -7.0508 C   0  0  0  0  0  0  0  0  0  0  0  0
  -19.4906  -38.7390   -7.5657 C   0  0  2  0  0  0  0  0  0  0  0  0
  -18.7856  -37.4831   -8.0685 C   0  0  0  0  0  0  0  0  0  0  0  0
  -20.3601  -38.3102   -6.4204 C   0  0  0  0  0  0  0  0  0  0  0  0
  -21.1464  -39.4905   -5.9222 C   0  0  0  0  0  0  0  0  0  0  0  0
  -22.2932  -39.7334   -6.9069 C   0  0  0  0  0  0  0  0  0  0  0  0
  -22.8922  -41.0671   -6.5392 C   0  0  0  0  0  0  0  0  0  0  0  0
  -23.4214  -41.7537   -7.7673 C   0  0  0  0  0  0  0  0  0  0  0  0
  -23.3252  -43.2236   -7.6512 N   0  0  0  0  0  0  0  0  0  0  0  0
  -24.5996  -43.9262   -7.8260 C   0  0  2  0  0  0  0  0  0  0  0  0
  -25.6353  -43.0146   -8.4507 C   0  0  0  0  0  0  0  0  0  0  0  0
  -25.1303  -44.4070   -6.5482 C   0  0  0  0  0  0  0  0  0  0  0  0
  -24.7015  -45.5809   -5.9730 C   0  0  0  0  0  0  0  0  0  0  0  0
  -25.2252  -46.0171   -4.7486 C   0  0  0  0  0  0  0  0  0  0  0  0
  -26.1702  -45.3012   -4.0875 C   0  0  0  0  0  0  0  0  0  0  0  0
  -26.6099  -44.1149   -4.6595 C   0  0  0  0  0  0  0  0  0  0  0  0
  -26.0883  -43.6857   -5.8739 C   0  0  0  0  0  0  0  0  0  0  0  0
  -22.0842  -43.8512   -7.3921 C   0  0  0  0  0  0  0  0  0  0  0  0
  -22.2851  -44.7744   -6.4603 O   0  0  0  0  0  0  0  0  0  0  0  0
  -20.7288  -43.6724   -7.9332 C   0  0  0  0  0  0  0  0  0  0  0  0
  -20.0928  -42.5706   -8.4633 C   0  0  0  0  0  0  0  0  0  0  0  0
  -18.7895  -42.6926   -8.9072 C   0  0  0  0  0  0  0  0  0  0  0  0
  -18.1360  -43.9532   -8.8046 C   0  0  0  0  0  0  0  0  0  0  0  0
  -18.7269  -45.0672   -8.2865 C   0  0  0  0  0  0  0  0  0  0  0  0
  -20.0150  -44.9027   -7.8611 C   0  0  0  0  0  0  0  0  0  0  0  0
  -18.0301  -46.3420   -8.1797 C   0  0  0  0  0  0  0  0  0  0  0  0
  -17.3046  -46.8789   -9.1698 N   0  0  0  0  0  0  0  0  0  0  0  0
  -16.7880  -48.0656   -8.7494 C   0  0  0  0  0  0  0  0  0  0  0  0
  -17.2469  -48.2080   -7.4490 C   0  0  0  0  0  0  0  0  0  0  0  0
  -17.9672  -47.1653   -7.1789 O   0  0  0  0  0  0  0  0  0  0  0  0
  -17.8765  -41.7355   -9.5321 C   0  0  0  0  0  0  0  0  0  0  0  0
  -17.1116  -42.1606  -10.5422 O   0  0  0  0  0  0  0  0  0  0  0  0
  -17.6006  -40.3597   -9.2857 N   0  0  0  0  0  0  0  0  0  0  0  0
  -14.0626  -38.2743  -11.5947 C   0  0  0  0  0  0  0  0  0  0  0  0
  -14.4854  -37.2614  -12.4298 C   0  0  0  0  0  0  0  0  0  0  0  0
  -14.4610  -35.9395  -12.0368 C   0  0  0  0  0  0  0  0  0  0  0  0
  1  2  1  0
  2  3  1  0
  2  4  1  0
  4  5  2  0
  5  6  1  0
  6  7  1  0
  7  8  1  0
  8  9  1  0
  9 10  1  0
 10 11  1  1
 10 12  1  0
 12 13  1  1
 13 14  1  0
 14 15  1  1
 14 16  1  0
 16 17  1  0
 17 18  1  0
 18 19  1  0
 19 20  1  0
 20 21  1  0
 21 22  1  0
 22 23  1  1
 22 24  1  0
 24 25  2  0
 25 26  1  0
 26 27  2  0
 27 28  1  0
 28 29  2  0
 21 30  1  0
 30 31  2  0
 30 32  1  0
 32 33  1  0
 33 34  2  0
 34 35  1  0
 35 36  2  0
 36 37  1  0
 36 38  1  0
 38 39  2  0
 39 40  1  0
 40 41  2  0
 41 42  1  0
 34 43  1  0
 43 44  2  0
 43 45  1  0
  6 46  2  0
 46 47  1  0
 47 48  2  0
 29 24  1  0
 37 32  2  0
 42 38  1  0
 45 12  1  0
 48  4  1  0
M  END
$$$$
