
     RDKit          3D

 48 52  0  0  0  0  0  0  0  0999 V2000
  -14.3655  -36.1949  -11.8085 C   0  0  0  0  0  0  0  0  0  0  0  0
  -13.0597  -36.9525  -12.0081 C   0  0  0  0  0  0  0  0  0  0  0  0
  -12.3971  -36.6336  -13.3030 C   0  0  0  0  0  0  0  0  0  0  0  0
  -13.3158  -38.4104  -11.9012 C   0  0  0  0  0  0  0  0  0  0  0  0
  -12.9632  -39.1642  -10.8206 C   0  0  0  0  0  0  0  0  0  0  0  0
  -13.1903  -40.5175  -10.7310 C   0  0  0  0  0  0  0  0  0  0  0  0
  -12.7898  -41.2863   -9.5146 C   0  0  0  0  0  0  0  0  0  0  0  0
  -13.7273  -41.0761   -8.4813 N   0  0  0  0  0  0  0  0  0  0  0  0
  -15.0364  -40.6647   -8.8051 C   0  0  0  0  0  0  0  0  0  0  0  0
  -15.9252  -40.3267   -7.6085 C   0  0  1  0  0  0  0  0  0  0  0  0
  -15.2951  -39.3528   -6.8632 O   0  0  0  0  0  0  0  0  0  0  0  0
  -17.2637  -39.8075   -8.1173 C   0  0  2  0  0  0  0  0  0  0  0  0
  -18.2058  -39.6213   -6.9845 C   0  0  0  0  0  0  0  0  0  0  0  0
  -19.3627  -38.7508   -7.4056 C   0  0  2  0  0  0  0  0  0  0  0  0
  -18.7740  -37.5549   -8.1474 C   0  0  0  0  0  0  0  0  0  0  0  0
  -20.0355  -38.2038   -6.1810 C   0  0  0  0  0  0  0  0  0  0  0  0
  -20.7064  -39.3251   -5.4379 C   0  0  0  0  0  0  0  0  0  0  0  0
  -21.9974  -39.6700   -6.1848 C   0  0  0  0  0  0  0  0  0  0  0  0
  -22.5028  -40.9576   -5.5851 C   0  0  0  0  0  0  0  0  0  0  0  0
  -23.2181  -41.7695   -6.6287 C   0  0  0  0  0  0  0  0  0  0  0  0
  -23.0779  -43.2190   -6.3787 N   0  0  0  0  0  0  0  0  0  0  0  0
  -24.3510  -43.9359   -6.2625 C   0  0  2  0  0  0  0  0  0  0  0  0
  -24.5658  -44.8474   -7.4529 C   0  0  0  0  0  0  0  0  0  0  0  0
  -25.4855  -43.0124   -6.1881 C   0  0  0  0  0  0  0  0  0  0  0  0
  -25.8117  -42.1689   -7.2249 C   0  0  0  0  0  0  0  0  0  0  0  0
  -26.9036  -41.2960   -7.1279 C   0  0  0  0  0  0  0  0  0  0  0  0
  -27.6766  -41.2503   -6.0130 C   0  0  0  0  0  0  0  0  0  0  0  0
  -27.3560  -42.0975   -4.9608 C   0  0  0  0  0  0  0  0  0  0  0  0
  -26.2723  -42.9617   -5.0607 C   0  0  0  0  0  0  0  0  0  0  0  0
  -21.8002  -43.8161   -6.2685 C   0  0  0  0  0  0  0  0  0  0  0  0
  -21.8260  -44.6361   -5.2255 O   0  0  0  0  0  0  0  0  0  0  0  0
  -20.5579  -43.6954   -7.0457 C   0  0  0  0  0  0  0  0  0  0  0  0
  -20.0391  -42.6555   -7.7866 C   0  0  0  0  0  0  0  0  0  0  0  0
  -18.8266  -42.8238   -8.4285 C   0  0  0  0  0  0  0  0  0  0  0  0
  -18.1431  -44.0666   -8.3072 C   0  0  0  0  0  0  0  0  0  0  0  0
  -18.6193  -45.1199   -7.5843 C   0  0  0  0  0  0  0  0  0  0  0  0
  -19.8206  -44.9113   -6.9675 C   0  0  0  0  0  0  0  0  0  0  0  0
  -17.8921  -46.3764   -7.4647 C   0  0  0  0  0  0  0  0  0  0  0  0
  -18.4835  -47.5632   -7.2732 N   0  0  0  0  0  0  0  0  0  0  0  0
  -17.5283  -48.5304   -7.2070 C   0  0  0  0  0  0  0  0  0  0  0  0
  -16.3299  -47.8529   -7.3703 C   0  0  0  0  0  0  0  0  0  0  0  0
  -16.6146  -46.5973   -7.5160 O   0  0  0  0  0  0  0  0  0  0  0  0
  -18.0481  -41.9378   -9.2940 C   0  0  0  0  0  0  0  0  0  0  0  0
  -17.4558  -42.4669  -10.3689 O   0  0  0  0  0  0  0  0  0  0  0  0
  -17.7591  -40.5438   -9.2416 N   0  0  0  0  0  0  0  0  0  0  0  0
  -13.8144  -41.1383  -11.8096 C   0  0  0  0  0  0  0  0  0  0  0  0
  -14.1768  -40.3887  -12.9092 C   0  0  0  0  0  0  0  0  0  0  0  0
  -13.9376  -39.0318  -12.9730 C   0  0  0  0  0  0  0  0  0  0  0  0
  1  2  1  0
  2  3  1  0
  2  4  1  0
  4  5  2  0
  5  6  1  0
  6  7  1  0
  7  8  1  0
  8  9  1  0
  9 10  1  0
 10 11  1  1
 10 12  1  0
 12 13  1  1
 13 14  1  0
 14 15  1  6
 14 16  1  0
 16 17  1  0
 17 18  1  0
 18 19  1  0
 19 20  1  0
 20 21  1  0
 21 22  1  0
 22 23  1  6
 22 24  1  0
 24 25  2  0
 25 26  1  0
 26 27  2  0
 27 28  1  0
 28 29  2  0
 21 30  1  0
 30 31  2  0
 30 32  1  0
 32 33  1  0
 33 34  2  0
 34 35  1  0
 35 36  2  0
 36 37  1  0
 36 38  1  0
 38 39  2  0
 39 40  1  0
 40 41  2  0
 41 42  1  0
 34 43  1  0
 43 44  2  0
 43 45  1  0
  6 46  2  0
 46 47  1  0
 47 48  2  0
 29 24  1  0
 37 32  2  0
 42 38  1  0
 45 12  1  0
 48  4  1  0
M  END
$$$$
