
     RDKit          3D

 48 52  0  0  0  0  0  0  0  0999 V2000
   -8.8381  -40.8007  -11.7742 C   0  0  0  0  0  0  0  0  0  0  0  0
  -10.0293  -41.6310  -11.3152 C   0  0  0  0  0  0  0  0  0  0  0  0
   -9.8470  -43.0890  -11.5579 C   0  0  0  0  0  0  0  0  0  0  0  0
  -11.2581  -41.1423  -11.9888 C   0  0  0  0  0  0  0  0  0  0  0  0
  -12.1150  -40.2360  -11.4370 C   0  0  0  0  0  0  0  0  0  0  0  0
  -13.2597  -39.7956  -12.0588 C   0  0  0  0  0  0  0  0  0  0  0  0
  -14.1530  -38.7922  -11.4058 C   0  0  0  0  0  0  0  0  0  0  0  0
  -14.8739  -39.3996  -10.3560 N   0  0  0  0  0  0  0  0  0  0  0  0
  -15.3906  -38.6004   -9.3158 C   0  0  0  0  0  0  0  0  0  0  0  0
  -16.3930  -39.2989   -8.3974 C   0  0  1  0  0  0  0  0  0  0  0  0
  -16.1831  -38.8532   -7.1096 O   0  0  0  0  0  0  0  0  0  0  0  0
  -17.8050  -38.9456   -8.8463 C   0  0  2  0  0  0  0  0  0  0  0  0
  -18.6955  -38.7954   -7.6673 C   0  0  0  0  0  0  0  0  0  0  0  0
  -19.9587  -38.0700   -8.0566 C   0  0  2  0  0  0  0  0  0  0  0  0
  -19.5408  -36.8620   -8.8891 C   0  0  0  0  0  0  0  0  0  0  0  0
  -20.6143  -37.5293   -6.8199 C   0  0  0  0  0  0  0  0  0  0  0  0
  -21.1215  -38.6714   -5.9845 C   0  0  0  0  0  0  0  0  0  0  0  0
  -22.4099  -39.1844   -6.6328 C   0  0  0  0  0  0  0  0  0  0  0  0
  -22.7437  -40.4827   -5.9429 C   0  0  0  0  0  0  0  0  0  0  0  0
  -23.4286  -41.4173   -6.9007 C   0  0  0  0  0  0  0  0  0  0  0  0
  -23.1243  -42.8298   -6.5916 N   0  0  0  0  0  0  0  0  0  0  0  0
  -24.3072  -43.6645   -6.3630 C   0  0  2  0  0  0  0  0  0  0  0  0
  -25.4705  -43.1928   -7.2105 C   0  0  0  0  0  0  0  0  0  0  0  0
  -24.7266  -43.6336   -4.9599 C   0  0  0  0  0  0  0  0  0  0  0  0
  -24.8772  -42.4546   -4.2670 C   0  0  0  0  0  0  0  0  0  0  0  0
  -25.2812  -42.4535   -2.9252 C   0  0  0  0  0  0  0  0  0  0  0  0
  -25.5379  -43.6099   -2.2622 C   0  0  0  0  0  0  0  0  0  0  0  0
  -25.3888  -44.8054   -2.9524 C   0  0  0  0  0  0  0  0  0  0  0  0
  -24.9879  -44.8023   -4.2829 C   0  0  0  0  0  0  0  0  0  0  0  0
  -21.7872  -43.2879   -6.5327 C   0  0  0  0  0  0  0  0  0  0  0  0
  -21.6683  -44.0495   -5.4525 O   0  0  0  0  0  0  0  0  0  0  0  0
  -20.6104  -43.0838   -7.3901 C   0  0  0  0  0  0  0  0  0  0  0  0
  -20.2456  -42.0379   -8.2101 C   0  0  0  0  0  0  0  0  0  0  0  0
  -19.0605  -42.1167   -8.9172 C   0  0  0  0  0  0  0  0  0  0  0  0
  -18.2456  -43.2758   -8.7799 C   0  0  0  0  0  0  0  0  0  0  0  0
  -18.5677  -44.3317   -7.9800 C   0  0  0  0  0  0  0  0  0  0  0  0
  -19.7473  -44.2131   -7.3004 C   0  0  0  0  0  0  0  0  0  0  0  0
  -17.7081  -45.5001   -7.8464 C   0  0  0  0  0  0  0  0  0  0  0  0
  -16.7854  -45.8527   -8.7516 N   0  0  0  0  0  0  0  0  0  0  0  0
  -16.1572  -46.9835   -8.3288 C   0  0  0  0  0  0  0  0  0  0  0  0
  -16.7579  -47.2874   -7.1170 C   0  0  0  0  0  0  0  0  0  0  0  0
  -17.6557  -46.3801   -6.8943 O   0  0  0  0  0  0  0  0  0  0  0  0
  -18.4289  -41.2040   -9.8702 C   0  0  0  0  0  0  0  0  0  0  0  0
  -17.8467  -41.7270  -10.9535 O   0  0  0  0  0  0  0  0  0  0  0  0
  -18.2841  -39.7871   -9.9017 N   0  0  0  0  0  0  0  0  0  0  0  0
  -13.5468  -40.3119  -13.3195 C   0  0  0  0  0  0  0  0  0  0  0  0
  -12.6893  -41.2291  -13.8902 C   0  0  0  0  0  0  0  0  0  0  0  0
  -11.5468  -41.6536  -13.2444 C   0  0  0  0  0  0  0  0  0  0  0  0
  1  2  1  0
  2  3  1  0
  2  4  1  0
  4  5  2  0
  5  6  1  0
  6  7  1  0
  7  8  1  0
  8  9  1  0
  9 10  1  0
 10 11  1  1
 10 12  1  0
 12 13  1  1
 13 14  1  0
 14 15  1  6
 14 16  1  0
 16 17  1  0
 17 18  1  0
 18 19  1  0
 19 20  1  0
 20 21  1  0
 21 22  1  0
 22 23  1  6
 22 24  1  0
 24 25  2  0
 25 26  1  0
 26 27  2  0
 27 28  1  0
 28 29  2  0
 21 30  1  0
 30 31  2  0
 30 32  1  0
 32 33  1  0
 33 34  2  0
 34 35  1  0
 35 36  2  0
 36 37  1  0
 36 38  1  0
 38 39  2  0
 39 40  1  0
 40 41  2  0
 41 42  1  0
 34 43  1  0
 43 44  2  0
 43 45  1  0
  6 46  2  0
 46 47  1  0
 47 48  2  0
 29 24  1  0
 37 32  2  0
 42 38  1  0
 45 12  1  0
 48  4  1  0
M  END
$$$$
