
     RDKit          3D

 48 52  0  0  0  0  0  0  0  0999 V2000
  -13.1695  -34.1247  -11.8099 C   0  0  0  0  0  0  0  0  0  0  0  0
  -12.3564  -35.2120  -11.1202 C   0  0  0  0  0  0  0  0  0  0  0  0
  -10.8952  -35.0976  -11.3833 C   0  0  0  0  0  0  0  0  0  0  0  0
  -12.8574  -36.5435  -11.5432 C   0  0  0  0  0  0  0  0  0  0  0  0
  -12.9264  -37.6250  -10.7151 C   0  0  0  0  0  0  0  0  0  0  0  0
  -13.3787  -38.8607  -11.1144 C   0  0  0  0  0  0  0  0  0  0  0  0
  -13.4404  -40.0044  -10.1557 C   0  0  0  0  0  0  0  0  0  0  0  0
  -14.2735  -39.6752   -9.0656 N   0  0  0  0  0  0  0  0  0  0  0  0
  -15.0533  -40.6814   -8.4595 C   0  0  0  0  0  0  0  0  0  0  0  0
  -15.9068  -40.2182   -7.2791 C   0  0  1  0  0  0  0  0  0  0  0  0
  -15.2487  -39.1830   -6.6495 O   0  0  0  0  0  0  0  0  0  0  0  0
  -17.2541  -39.7366   -7.8017 C   0  0  2  0  0  0  0  0  0  0  0  0
  -18.2296  -39.6339   -6.6866 C   0  0  0  0  0  0  0  0  0  0  0  0
  -19.4127  -38.7973   -7.1038 C   0  0  2  0  0  0  0  0  0  0  0  0
  -18.8587  -37.5500   -7.7853 C   0  0  0  0  0  0  0  0  0  0  0  0
  -20.1371  -38.3267   -5.8769 C   0  0  0  0  0  0  0  0  0  0  0  0
  -20.7764  -39.5030   -5.1934 C   0  0  0  0  0  0  0  0  0  0  0  0
  -22.0335  -39.8730   -5.9849 C   0  0  0  0  0  0  0  0  0  0  0  0
  -22.4970  -41.2028   -5.4469 C   0  0  0  0  0  0  0  0  0  0  0  0
  -23.1519  -42.0033   -6.5378 C   0  0  0  0  0  0  0  0  0  0  0  0
  -22.9554  -43.4542   -6.3388 N   0  0  0  0  0  0  0  0  0  0  0  0
  -24.1989  -44.2280   -6.2817 C   0  0  2  0  0  0  0  0  0  0  0  0
  -25.1331  -43.8289   -7.4051 C   0  0  0  0  0  0  0  0  0  0  0  0
  -24.9027  -44.0254   -5.0131 C   0  0  0  0  0  0  0  0  0  0  0  0
  -25.8509  -43.0417   -4.8514 C   0  0  0  0  0  0  0  0  0  0  0  0
  -26.5104  -42.8706   -3.6269 C   0  0  0  0  0  0  0  0  0  0  0  0
  -26.2400  -43.6651   -2.5600 C   0  0  0  0  0  0  0  0  0  0  0  0
  -25.2847  -44.6610   -2.7127 C   0  0  0  0  0  0  0  0  0  0  0  0
  -24.6327  -44.8274   -3.9285 C   0  0  0  0  0  0  0  0  0  0  0  0
  -21.6562  -44.0008   -6.2190 C   0  0  0  0  0  0  0  0  0  0  0  0
  -21.6712  -44.8607   -5.2085 O   0  0  0  0  0  0  0  0  0  0  0  0
  -20.4023  -43.7980   -6.9596 C   0  0  0  0  0  0  0  0  0  0  0  0
  -19.9114  -42.7095   -7.6478 C   0  0  0  0  0  0  0  0  0  0  0  0
  -18.6780  -42.8017   -8.2648 C   0  0  0  0  0  0  0  0  0  0  0  0
  -17.9447  -44.0185   -8.1730 C   0  0  0  0  0  0  0  0  0  0  0  0
  -18.3920  -45.1179   -7.5024 C   0  0  0  0  0  0  0  0  0  0  0  0
  -19.6154  -44.9840   -6.9085 C   0  0  0  0  0  0  0  0  0  0  0  0
  -17.6145  -46.3464   -7.4117 C   0  0  0  0  0  0  0  0  0  0  0  0
  -16.8753  -46.8353   -8.4164 N   0  0  0  0  0  0  0  0  0  0  0  0
  -16.2773  -47.9877   -8.0086 C   0  0  0  0  0  0  0  0  0  0  0  0
  -16.7018  -48.1603   -6.7002 C   0  0  0  0  0  0  0  0  0  0  0  0
  -17.4811  -47.1654   -6.4142 O   0  0  0  0  0  0  0  0  0  0  0  0
  -17.9182  -41.8511   -9.0767 C   0  0  0  0  0  0  0  0  0  0  0  0
  -17.2785  -42.3130  -10.1554 O   0  0  0  0  0  0  0  0  0  0  0  0
  -17.6907  -40.4492   -8.9649 N   0  0  0  0  0  0  0  0  0  0  0  0
  -13.7845  -39.0004  -12.4388 C   0  0  0  0  0  0  0  0  0  0  0  0
  -13.7205  -37.9154  -13.2879 C   0  0  0  0  0  0  0  0  0  0  0  0
  -13.2629  -36.6862  -12.8610 C   0  0  0  0  0  0  0  0  0  0  0  0
  1  2  1  0
  2  3  1  0
  2  4  1  0
  4  5  2  0
  5  6  1  0
  6  7  1  0
  7  8  1  0
  8  9  1  0
  9 10  1  0
 10 11  1  6
 10 12  1  0
 12 13  1  1
 13 14  1  0
 14 15  1  1
 14 16  1  0
 16 17  1  0
 17 18  1  0
 18 19  1  0
 19 20  1  0
 20 21  1  0
 21 22  1  0
 22 23  1  6
 22 24  1  0
 24 25  2  0
 25 26  1  0
 26 27  2  0
 27 28  1  0
 28 29  2  0
 21 30  1  0
 30 31  2  0
 30 32  1  0
 32 33  1  0
 33 34  2  0
 34 35  1  0
 35 36  2  0
 36 37  1  0
 36 38  1  0
 38 39  2  0
 39 40  1  0
 40 41  2  0
 41 42  1  0
 34 43  1  0
 43 44  2  0
 43 45  1  0
  6 46  2  0
 46 47  1  0
 47 48  2  0
 29 24  1  0
 37 32  2  0
 42 38  1  0
 45 12  1  0
 48  4  1  0
M  END
$$$$
