
     RDKit          3D

 48 52  0  0  0  0  0  0  0  0999 V2000
  -16.5444  -35.3280  -10.0553 C   0  0  0  0  0  0  0  0  0  0  0  0
  -16.2585  -35.2278  -11.5477 C   0  0  0  0  0  0  0  0  0  0  0  0
  -17.4600  -34.8533  -12.3438 C   0  0  0  0  0  0  0  0  0  0  0  0
  -15.6978  -36.5151  -12.0284 C   0  0  0  0  0  0  0  0  0  0  0  0
  -14.9928  -37.3759  -11.2397 C   0  0  0  0  0  0  0  0  0  0  0  0
  -14.4634  -38.5616  -11.6922 C   0  0  0  0  0  0  0  0  0  0  0  0
  -13.7092  -39.4676  -10.7749 C   0  0  0  0  0  0  0  0  0  0  0  0
  -14.2874  -39.4408   -9.4882 N   0  0  0  0  0  0  0  0  0  0  0  0
  -15.2987  -40.3676   -9.1624 C   0  0  0  0  0  0  0  0  0  0  0  0
  -16.0368  -40.0893   -7.8532 C   0  0  1  0  0  0  0  0  0  0  0  0
  -15.3503  -39.1079   -7.1700 O   0  0  0  0  0  0  0  0  0  0  0  0
  -17.4473  -39.6111   -8.1723 C   0  0  2  0  0  0  0  0  0  0  0  0
  -18.2909  -39.6506   -6.9507 C   0  0  0  0  0  0  0  0  0  0  0  0
  -19.5356  -38.8231   -7.1492 C   0  0  2  0  0  0  0  0  0  0  0  0
  -19.0965  -37.4973   -7.7628 C   0  0  0  0  0  0  0  0  0  0  0  0
  -20.1267  -38.4977   -5.8090 C   0  0  0  0  0  0  0  0  0  0  0  0
  -20.6521  -39.7563   -5.1769 C   0  0  0  0  0  0  0  0  0  0  0  0
  -21.9815  -40.0966   -5.8556 C   0  0  0  0  0  0  0  0  0  0  0  0
  -22.3450  -41.4876   -5.4021 C   0  0  0  0  0  0  0  0  0  0  0  0
  -23.0994  -42.2055   -6.4862 C   0  0  0  0  0  0  0  0  0  0  0  0
  -22.8432  -43.6603   -6.4535 N   0  0  0  0  0  0  0  0  0  0  0  0
  -24.0511  -44.4819   -6.3340 C   0  0  2  0  0  0  0  0  0  0  0  0
  -25.1820  -43.8987   -7.1556 C   0  0  0  0  0  0  0  0  0  0  0  0
  -24.5031  -44.5779   -4.9440 C   0  0  0  0  0  0  0  0  0  0  0  0
  -24.5072  -45.7696   -4.2565 C   0  0  0  0  0  0  0  0  0  0  0  0
  -24.9437  -45.8330   -2.9264 C   0  0  0  0  0  0  0  0  0  0  0  0
  -25.3764  -44.7265   -2.2698 C   0  0  0  0  0  0  0  0  0  0  0  0
  -25.3763  -43.5187   -2.9546 C   0  0  0  0  0  0  0  0  0  0  0  0
  -24.9429  -43.4599   -4.2737 C   0  0  0  0  0  0  0  0  0  0  0  0
  -21.5248  -44.1669   -6.5336 C   0  0  0  0  0  0  0  0  0  0  0  0
  -21.4011  -45.1183   -5.6168 O   0  0  0  0  0  0  0  0  0  0  0  0
  -20.3699  -43.8485   -7.3861 C   0  0  0  0  0  0  0  0  0  0  0  0
  -19.9901  -42.6824   -8.0148 C   0  0  0  0  0  0  0  0  0  0  0  0
  -18.8337  -42.6699   -8.7717 C   0  0  0  0  0  0  0  0  0  0  0  0
  -18.0629  -43.8616   -8.8820 C   0  0  0  0  0  0  0  0  0  0  0  0
  -18.4011  -45.0354   -8.2766 C   0  0  0  0  0  0  0  0  0  0  0  0
  -19.5514  -45.0038   -7.5396 C   0  0  0  0  0  0  0  0  0  0  0  0
  -17.5862  -46.2371   -8.3940 C   0  0  0  0  0  0  0  0  0  0  0  0
  -16.9772  -46.6157   -9.5257 N   0  0  0  0  0  0  0  0  0  0  0  0
  -16.2991  -47.7738   -9.2998 C   0  0  0  0  0  0  0  0  0  0  0  0
  -16.5378  -48.0665   -7.9659 C   0  0  0  0  0  0  0  0  0  0  0  0
  -17.2973  -47.1278   -7.4959 O   0  0  0  0  0  0  0  0  0  0  0  0
  -18.1973  -41.6192   -9.5663 C   0  0  0  0  0  0  0  0  0  0  0  0
  -17.6737  -41.9531  -10.7497 O   0  0  0  0  0  0  0  0  0  0  0  0
  -17.9956  -40.2266   -9.3437 N   0  0  0  0  0  0  0  0  0  0  0  0
  -14.6657  -38.8877  -13.0305 C   0  0  0  0  0  0  0  0  0  0  0  0
  -15.3769  -38.0270  -13.8401 C   0  0  0  0  0  0  0  0  0  0  0  0
  -15.8978  -36.8434  -13.3602 C   0  0  0  0  0  0  0  0  0  0  0  0
  1  2  1  0
  2  3  1  0
  2  4  1  0
  4  5  2  0
  5  6  1  0
  6  7  1  0
  7  8  1  0
  8  9  1  0
  9 10  1  0
 10 11  1  6
 10 12  1  0
 12 13  1  1
 13 14  1  0
 14 15  1  1
 14 16  1  0
 16 17  1  0
 17 18  1  0
 18 19  1  0
 19 20  1  0
 20 21  1  0
 21 22  1  0
 22 23  1  6
 22 24  1  0
 24 25  2  0
 25 26  1  0
 26 27  2  0
 27 28  1  0
 28 29  2  0
 21 30  1  0
 30 31  2  0
 30 32  1  0
 32 33  1  0
 33 34  2  0
 34 35  1  0
 35 36  2  0
 36 37  1  0
 36 38  1  0
 38 39  2  0
 39 40  1  0
 40 41  2  0
 41 42  1  0
 34 43  1  0
 43 44  2  0
 43 45  1  0
  6 46  2  0
 46 47  1  0
 47 48  2  0
 29 24  1  0
 37 32  2  0
 42 38  1  0
 45 12  1  0
 48  4  1  0
M  END
$$$$
