
     RDKit          3D

 48 52  0  0  0  0  0  0  0  0999 V2000
  -15.2762  -34.2351  -10.9298 C   0  0  0  0  0  0  0  0  0  0  0  0
  -15.8217  -34.7901  -12.2388 C   0  0  0  0  0  0  0  0  0  0  0  0
  -17.2409  -34.4102  -12.4823 C   0  0  0  0  0  0  0  0  0  0  0  0
  -15.6706  -36.2665  -12.2479 C   0  0  0  0  0  0  0  0  0  0  0  0
  -14.9606  -36.9610  -11.3132 C   0  0  0  0  0  0  0  0  0  0  0  0
  -14.8118  -38.3279  -11.3326 C   0  0  0  0  0  0  0  0  0  0  0  0
  -14.0296  -39.0322  -10.2727 C   0  0  0  0  0  0  0  0  0  0  0  0
  -14.8984  -39.7766   -9.4470 N   0  0  0  0  0  0  0  0  0  0  0  0
  -14.8203  -39.6300   -8.0469 C   0  0  0  0  0  0  0  0  0  0  0  0
  -15.8823  -40.3918   -7.2544 C   0  0  1  0  0  0  0  0  0  0  0  0
  -15.6926  -40.1295   -5.9141 O   0  0  0  0  0  0  0  0  0  0  0  0
  -17.2617  -39.9126   -7.6879 C   0  0  2  0  0  0  0  0  0  0  0  0
  -18.1936  -39.9187   -6.5316 C   0  0  0  0  0  0  0  0  0  0  0  0
  -19.4137  -39.0886   -6.8404 C   0  0  2  0  0  0  0  0  0  0  0  0
  -18.9203  -37.7799   -7.4495 C   0  0  0  0  0  0  0  0  0  0  0  0
  -20.0997  -38.7287   -5.5553 C   0  0  0  0  0  0  0  0  0  0  0  0
  -20.6801  -39.9691   -4.9356 C   0  0  0  0  0  0  0  0  0  0  0  0
  -21.9583  -40.3170   -5.7030 C   0  0  0  0  0  0  0  0  0  0  0  0
  -22.3651  -41.6950   -5.2464 C   0  0  0  0  0  0  0  0  0  0  0  0
  -23.0428  -42.4331   -6.3669 C   0  0  0  0  0  0  0  0  0  0  0  0
  -22.8010  -43.8883   -6.2825 N   0  0  0  0  0  0  0  0  0  0  0  0
  -24.0207  -44.6996   -6.2342 C   0  0  2  0  0  0  0  0  0  0  0  0
  -24.8238  -44.5400   -7.5084 C   0  0  0  0  0  0  0  0  0  0  0  0
  -24.8770  -44.3202   -5.1080 C   0  0  0  0  0  0  0  0  0  0  0  0
  -25.7801  -43.2856   -5.1915 C   0  0  0  0  0  0  0  0  0  0  0  0
  -26.5884  -42.9443   -4.0989 C   0  0  0  0  0  0  0  0  0  0  0  0
  -26.5113  -43.6185   -2.9233 C   0  0  0  0  0  0  0  0  0  0  0  0
  -25.6031  -44.6644   -2.8285 C   0  0  0  0  0  0  0  0  0  0  0  0
  -24.8031  -44.9997   -3.9142 C   0  0  0  0  0  0  0  0  0  0  0  0
  -21.4843  -44.4046   -6.2532 C   0  0  0  0  0  0  0  0  0  0  0  0
  -21.4360  -45.3352   -5.3085 O   0  0  0  0  0  0  0  0  0  0  0  0
  -20.2671  -44.1130   -7.0248 C   0  0  0  0  0  0  0  0  0  0  0  0
  -19.8328  -42.9640   -7.6498 C   0  0  0  0  0  0  0  0  0  0  0  0
  -18.6235  -42.9759   -8.3190 C   0  0  0  0  0  0  0  0  0  0  0  0
  -17.8559  -44.1746   -8.3449 C   0  0  0  0  0  0  0  0  0  0  0  0
  -18.2471  -45.3319   -7.7399 C   0  0  0  0  0  0  0  0  0  0  0  0
  -19.4484  -45.2764   -7.0911 C   0  0  0  0  0  0  0  0  0  0  0  0
  -17.4350  -46.5409   -7.7695 C   0  0  0  0  0  0  0  0  0  0  0  0
  -17.0692  -47.1644   -8.8975 N   0  0  0  0  0  0  0  0  0  0  0  0
  -16.3189  -48.2544   -8.5798 C   0  0  0  0  0  0  0  0  0  0  0  0
  -16.2567  -48.2470   -7.1948 C   0  0  0  0  0  0  0  0  0  0  0  0
  -16.9302  -47.2187   -6.7850 O   0  0  0  0  0  0  0  0  0  0  0  0
  -17.9221  -41.9478   -9.0878 C   0  0  0  0  0  0  0  0  0  0  0  0
  -17.3149  -42.3120  -10.2213 O   0  0  0  0  0  0  0  0  0  0  0  0
  -17.7266  -40.5517   -8.8825 N   0  0  0  0  0  0  0  0  0  0  0  0
  -15.4245  -39.0275  -12.3687 C   0  0  0  0  0  0  0  0  0  0  0  0
  -16.1459  -38.3385  -13.3211 C   0  0  0  0  0  0  0  0  0  0  0  0
  -16.2798  -36.9664  -13.2777 C   0  0  0  0  0  0  0  0  0  0  0  0
  1  2  1  0
  2  3  1  0
  2  4  1  0
  4  5  2  0
  5  6  1  0
  6  7  1  0
  7  8  1  0
  8  9  1  0
  9 10  1  0
 10 11  1  1
 10 12  1  0
 12 13  1  1
 13 14  1  0
 14 15  1  1
 14 16  1  0
 16 17  1  0
 17 18  1  0
 18 19  1  0
 19 20  1  0
 20 21  1  0
 21 22  1  0
 22 23  1  6
 22 24  1  0
 24 25  2  0
 25 26  1  0
 26 27  2  0
 27 28  1  0
 28 29  2  0
 21 30  1  0
 30 31  2  0
 30 32  1  0
 32 33  1  0
 33 34  2  0
 34 35  1  0
 35 36  2  0
 36 37  1  0
 36 38  1  0
 38 39  2  0
 39 40  1  0
 40 41  2  0
 41 42  1  0
 34 43  1  0
 43 44  2  0
 43 45  1  0
  6 46  2  0
 46 47  1  0
 47 48  2  0
 29 24  1  0
 37 32  2  0
 42 38  1  0
 45 12  1  0
 48  4  1  0
M  END
$$$$
