
     RDKit          3D

 48 52  0  0  0  0  0  0  0  0999 V2000
  -14.1403  -44.3943  -13.3212 C   0  0  0  0  0  0  0  0  0  0  0  0
  -12.7368  -43.8719  -13.0445 C   0  0  0  0  0  0  0  0  0  0  0  0
  -11.9854  -44.7160  -12.0746 C   0  0  0  0  0  0  0  0  0  0  0  0
  -12.8202  -42.4720  -12.5587 C   0  0  0  0  0  0  0  0  0  0  0  0
  -12.5568  -42.0992  -11.2736 C   0  0  0  0  0  0  0  0  0  0  0  0
  -12.6481  -40.8028  -10.8241 C   0  0  0  0  0  0  0  0  0  0  0  0
  -12.3357  -40.4562   -9.4052 C   0  0  0  0  0  0  0  0  0  0  0  0
  -13.2945  -41.0332   -8.5458 N   0  0  0  0  0  0  0  0  0  0  0  0
  -14.6659  -40.8864   -8.8381 C   0  0  0  0  0  0  0  0  0  0  0  0
  -15.4502  -40.0192   -7.8537 C   0  0  1  0  0  0  0  0  0  0  0  0
  -14.6682  -38.9356   -7.5139 O   0  0  0  0  0  0  0  0  0  0  0  0
  -16.7326  -39.5450   -8.5249 C   0  0  2  0  0  0  0  0  0  0  0  0
  -17.7427  -39.1782   -7.4998 C   0  0  0  0  0  0  0  0  0  0  0  0
  -18.8381  -38.3483   -8.1202 C   0  0  2  0  0  0  0  0  0  0  0  0
  -18.1601  -37.2835   -8.9767 C   0  0  0  0  0  0  0  0  0  0  0  0
  -19.5737  -37.6180   -7.0353 C   0  0  0  0  0  0  0  0  0  0  0  0
  -20.3312  -38.6068   -6.1937 C   0  0  0  0  0  0  0  0  0  0  0  0
  -21.5794  -39.0225   -6.9765 C   0  0  0  0  0  0  0  0  0  0  0  0
  -22.1677  -40.2001   -6.2417 C   0  0  0  0  0  0  0  0  0  0  0  0
  -22.8375  -41.1337   -7.2111 C   0  0  0  0  0  0  0  0  0  0  0  0
  -22.7639  -42.5364   -6.7524 N   0  0  0  0  0  0  0  0  0  0  0  0
  -24.0655  -43.1990   -6.6298 C   0  0  2  0  0  0  0  0  0  0  0  0
  -25.1413  -42.4080   -7.3445 C   0  0  0  0  0  0  0  0  0  0  0  0
  -24.4662  -43.3461   -5.2286 C   0  0  0  0  0  0  0  0  0  0  0  0
  -24.9017  -44.5455   -4.7141 C   0  0  0  0  0  0  0  0  0  0  0  0
  -25.2778  -44.6589   -3.3690 C   0  0  0  0  0  0  0  0  0  0  0  0
  -25.2268  -43.5950   -2.5275 C   0  0  0  0  0  0  0  0  0  0  0  0
  -24.7888  -42.3798   -3.0368 C   0  0  0  0  0  0  0  0  0  0  0  0
  -24.4167  -42.2713   -4.3713 C   0  0  0  0  0  0  0  0  0  0  0  0
  -21.5176  -43.1425   -6.4685 C   0  0  0  0  0  0  0  0  0  0  0  0
  -21.6420  -43.8063   -5.3262 O   0  0  0  0  0  0  0  0  0  0  0  0
  -20.2219  -43.1625   -7.1633 C   0  0  0  0  0  0  0  0  0  0  0  0
  -19.6190  -42.2503   -8.0023 C   0  0  0  0  0  0  0  0  0  0  0  0
  -18.3721  -42.5365   -8.5255 C   0  0  0  0  0  0  0  0  0  0  0  0
  -17.7409  -43.7659   -8.1836 C   0  0  0  0  0  0  0  0  0  0  0  0
  -18.3005  -44.6949   -7.3575 C   0  0  0  0  0  0  0  0  0  0  0  0
  -19.5333  -44.3726   -6.8639 C   0  0  0  0  0  0  0  0  0  0  0  0
  -17.6262  -45.9391   -7.0123 C   0  0  0  0  0  0  0  0  0  0  0  0
  -17.6068  -46.4572   -5.7769 N   0  0  0  0  0  0  0  0  0  0  0  0
  -16.8980  -47.6188   -5.7930 C   0  0  0  0  0  0  0  0  0  0  0  0
  -16.4940  -47.7661   -7.1110 C   0  0  0  0  0  0  0  0  0  0  0  0
  -16.9536  -46.7496   -7.7701 O   0  0  0  0  0  0  0  0  0  0  0  0
  -17.5069  -41.8005   -9.4474 C   0  0  0  0  0  0  0  0  0  0  0  0
  -16.8612  -42.4900  -10.3928 O   0  0  0  0  0  0  0  0  0  0  0  0
  -17.1751  -40.4204   -9.5687 N   0  0  0  0  0  0  0  0  0  0  0  0
  -13.0318  -39.8288  -11.7420 C   0  0  0  0  0  0  0  0  0  0  0  0
  -13.3012  -40.1910  -13.0452 C   0  0  0  0  0  0  0  0  0  0  0  0
  -13.2013  -41.4994  -13.4700 C   0  0  0  0  0  0  0  0  0  0  0  0
  1  2  1  0
  2  3  1  0
  2  4  1  0
  4  5  2  0
  5  6  1  0
  6  7  1  0
  7  8  1  0
  8  9  1  0
  9 10  1  0
 10 11  1  6
 10 12  1  0
 12 13  1  1
 13 14  1  0
 14 15  1  6
 14 16  1  0
 16 17  1  0
 17 18  1  0
 18 19  1  0
 19 20  1  0
 20 21  1  0
 21 22  1  0
 22 23  1  6
 22 24  1  0
 24 25  2  0
 25 26  1  0
 26 27  2  0
 27 28  1  0
 28 29  2  0
 21 30  1  0
 30 31  2  0
 30 32  1  0
 32 33  1  0
 33 34  2  0
 34 35  1  0
 35 36  2  0
 36 37  1  0
 36 38  1  0
 38 39  2  0
 39 40  1  0
 40 41  2  0
 41 42  1  0
 34 43  1  0
 43 44  2  0
 43 45  1  0
  6 46  2  0
 46 47  1  0
 47 48  2  0
 29 24  1  0
 37 32  2  0
 42 38  1  0
 45 12  1  0
 48  4  1  0
M  END
$$$$
