
     RDKit          3D

 39 40  0  0  0  0  0  0  0  0999 V2000
  -20.2462  -34.7717  -12.7430 C   0  0  0  0  0  0  0  0  0  0  0  0
  -18.7844  -34.6919  -12.4072 C   0  0  0  0  0  0  0  0  0  0  0  0
  -18.1920  -35.9370  -12.1304 O   0  0  0  0  0  0  0  0  0  0  0  0
  -16.8526  -36.1129  -11.8434 C   0  0  0  0  0  0  0  0  0  0  0  0
  -16.3530  -36.3694  -10.5961 C   0  0  0  0  0  0  0  0  0  0  0  0
  -14.9888  -36.5402  -10.3536 C   0  0  0  0  0  0  0  0  0  0  0  0
  -14.4357  -36.8143   -9.0274 C   0  0  0  0  0  0  0  0  0  0  0  0
  -14.2860  -38.2234   -8.7164 N   0  0  0  0  0  0  0  0  0  0  0  0
  -15.5465  -38.6426   -8.1118 C   0  0  0  0  0  0  0  0  0  0  0  0
  -16.0924  -39.9073   -8.7231 C   0  0  1  0  0  0  0  0  0  0  0  0
  -15.4403  -40.9719   -8.1618 O   0  0  0  0  0  0  0  0  0  0  0  0
  -17.5921  -40.0498   -8.4826 C   0  0  2  0  0  0  0  0  0  0  0  0
  -18.1721  -38.7712   -7.9377 C   0  0  0  0  0  0  0  0  0  0  0  0
  -19.6523  -38.6383   -8.1608 C   0  0  2  0  0  0  0  0  0  0  0  0
  -20.0042  -37.1583   -8.3490 C   0  0  0  0  0  0  0  0  0  0  0  0
  -20.4486  -39.2147   -7.0043 C   0  0  0  0  0  0  0  0  0  0  0  0
  -21.8573  -39.5291   -7.4083 C   0  0  0  0  0  0  0  0  0  0  0  0
  -22.7034  -39.9869   -6.2554 C   0  0  0  0  0  0  0  0  0  0  0  0
  -22.2178  -41.2228   -5.5920 C   0  0  0  0  0  0  0  0  0  0  0  0
  -23.0012  -42.4810   -6.0056 C   0  0  0  0  0  0  0  0  0  0  0  0
  -22.1771  -43.6411   -5.4954 C   0  0  0  0  0  0  0  0  0  0  0  0
  -22.3381  -44.9098   -6.2287 C   0  0  0  0  0  0  0  0  0  0  0  0
  -21.4174  -45.1458   -7.3950 C   0  0  0  0  0  0  0  0  0  0  0  0
  -19.9833  -45.0515   -7.0721 C   0  0  0  0  0  0  0  0  0  0  0  0
  -19.6907  -45.4943   -5.8941 O   0  0  0  0  0  0  0  0  0  0  0  0
  -18.9180  -44.5617   -7.8486 N   0  0  0  0  0  0  0  0  0  0  0  0
  -17.7714  -45.4559   -8.1400 C   0  0  0  0  0  0  0  0  0  0  0  0
  -18.7790  -43.2224   -8.4107 C   0  0  1  0  0  0  0  0  0  0  0  0
  -20.0812  -42.5425   -8.6242 C   0  0  0  0  0  0  0  0  0  0  0  0
  -17.8388  -42.4407   -7.5866 C   0  0  0  0  0  0  0  0  0  0  0  0
  -17.0112  -43.1331   -6.8760 O   0  0  0  0  0  0  0  0  0  0  0  0
  -17.7179  -41.0661   -7.4657 N   0  0  0  0  0  0  0  0  0  0  0  0
  -14.1490  -36.4390  -11.4368 C   0  0  0  0  0  0  0  0  0  0  0  0
  -14.6357  -36.1784  -12.7156 C   0  0  0  0  0  0  0  0  0  0  0  0
  -15.9784  -36.0165  -12.9175 C   0  0  0  0  0  0  0  0  0  0  0  0
  -12.6947  -36.6087  -11.2576 C   0  0  0  0  0  0  0  0  0  0  0  0
  -12.1521  -35.4541  -10.6803 F   0  0  0  0  0  0  0  0  0  0  0  0
  -12.0122  -36.8137  -12.4256 F   0  0  0  0  0  0  0  0  0  0  0  0
  -12.4951  -37.6147  -10.3262 F   0  0  0  0  0  0  0  0  0  0  0  0
  1  2  1  0
  2  3  1  0
  3  4  1  0
  4  5  2  0
  5  6  1  0
  6  7  1  0
  7  8  1  0
  8  9  1  0
  9 10  1  0
 10 11  1  1
 10 12  1  0
 12 13  1  1
 13 14  1  0
 14 15  1  1
 14 16  1  0
 16 17  1  0
 17 18  1  0
 18 19  1  0
 19 20  1  0
 20 21  1  0
 21 22  1  0
 22 23  1  0
 23 24  1  0
 24 25  2  0
 24 26  1  0
 26 27  1  0
 26 28  1  0
 28 29  1  1
 28 30  1  0
 30 31  2  0
 30 32  1  0
  6 33  2  0
 33 34  1  0
 34 35  2  0
 33 36  1  0
 36 37  1  0
 36 38  1  0
 36 39  1  0
 32 12  1  0
 35  4  1  0
M  END
$$$$
