
     RDKit          3D

 39 40  0  0  0  0  0  0  0  0999 V2000
  -11.1972  -32.8181   -8.1571 C   0  0  0  0  0  0  0  0  0  0  0  0
  -11.8487  -33.4407   -9.3588 C   0  0  0  0  0  0  0  0  0  0  0  0
  -12.8720  -34.3535   -9.0463 O   0  0  0  0  0  0  0  0  0  0  0  0
  -13.6337  -35.0179   -9.9873 C   0  0  0  0  0  0  0  0  0  0  0  0
  -13.9365  -36.3510   -9.9405 C   0  0  0  0  0  0  0  0  0  0  0  0
  -14.7115  -36.9803  -10.9163 C   0  0  0  0  0  0  0  0  0  0  0  0
  -15.0453  -38.4042  -10.8838 C   0  0  0  0  0  0  0  0  0  0  0  0
  -14.4861  -39.1286   -9.7582 N   0  0  0  0  0  0  0  0  0  0  0  0
  -15.6214  -39.6778   -9.0235 C   0  0  0  0  0  0  0  0  0  0  0  0
  -16.8048  -39.9645   -9.9114 C   0  0  1  0  0  0  0  0  0  0  0  0
  -16.5565  -41.1226  -10.5974 O   0  0  0  0  0  0  0  0  0  0  0  0
  -18.0911  -40.1205   -9.1060 C   0  0  2  0  0  0  0  0  0  0  0  0
  -18.4344  -38.8409   -8.3899 C   0  0  0  0  0  0  0  0  0  0  0  0
  -19.8870  -38.7280   -8.0217 C   0  0  2  0  0  0  0  0  0  0  0  0
  -20.3080  -37.2549   -8.0714 C   0  0  0  0  0  0  0  0  0  0  0  0
  -20.1624  -39.2966   -6.6417 C   0  0  0  0  0  0  0  0  0  0  0  0
  -21.6123  -39.6328   -6.4639 C   0  0  0  0  0  0  0  0  0  0  0  0
  -21.9370  -40.0835   -5.0690 C   0  0  0  0  0  0  0  0  0  0  0  0
  -21.2122  -41.3042   -4.6354 C   0  0  0  0  0  0  0  0  0  0  0  0
  -22.0744  -42.5770   -4.7012 C   0  0  0  0  0  0  0  0  0  0  0  0
  -21.0985  -43.7203   -4.5409 C   0  0  0  0  0  0  0  0  0  0  0  0
  -21.5113  -45.0011   -5.1429 C   0  0  0  0  0  0  0  0  0  0  0  0
  -21.1120  -45.2434   -6.5731 C   0  0  0  0  0  0  0  0  0  0  0  0
  -19.6667  -45.1282   -6.8334 C   0  0  0  0  0  0  0  0  0  0  0  0
  -18.9327  -45.5508   -5.8577 O   0  0  0  0  0  0  0  0  0  0  0  0
  -18.9944  -44.6376   -7.9671 N   0  0  0  0  0  0  0  0  0  0  0  0
  -18.0368  -45.5228   -8.6731 C   0  0  0  0  0  0  0  0  0  0  0  0
  -19.1060  -43.3050   -8.5508 C   0  0  1  0  0  0  0  0  0  0  0  0
  -20.3996  -42.6430   -8.2477 C   0  0  0  0  0  0  0  0  0  0  0  0
  -17.9322  -42.5009   -8.1635 C   0  0  0  0  0  0  0  0  0  0  0  0
  -16.8827  -43.1736   -7.8240 O   0  0  0  0  0  0  0  0  0  0  0  0
  -17.7959  -41.1234   -8.1111 N   0  0  0  0  0  0  0  0  0  0  0  0
  -15.1685  -36.1946  -11.9472 C   0  0  0  0  0  0  0  0  0  0  0  0
  -14.8725  -34.8352  -12.0151 C   0  0  0  0  0  0  0  0  0  0  0  0
  -14.1102  -34.2509  -11.0417 C   0  0  0  0  0  0  0  0  0  0  0  0
  -15.9941  -36.7899  -13.0147 C   0  0  0  0  0  0  0  0  0  0  0  0
  -15.1916  -37.5785  -13.8483 F   0  0  0  0  0  0  0  0  0  0  0  0
  -16.6031  -35.8694  -13.8233 F   0  0  0  0  0  0  0  0  0  0  0  0
  -16.8859  -37.6695  -12.4226 F   0  0  0  0  0  0  0  0  0  0  0  0
  1  2  1  0
  2  3  1  0
  3  4  1  0
  4  5  2  0
  5  6  1  0
  6  7  1  0
  7  8  1  0
  8  9  1  0
  9 10  1  0
 10 11  1  1
 10 12  1  0
 12 13  1  1
 13 14  1  0
 14 15  1  1
 14 16  1  0
 16 17  1  0
 17 18  1  0
 18 19  1  0
 19 20  1  0
 20 21  1  0
 21 22  1  0
 22 23  1  0
 23 24  1  0
 24 25  2  0
 24 26  1  0
 26 27  1  0
 26 28  1  0
 28 29  1  1
 28 30  1  0
 30 31  2  0
 30 32  1  0
  6 33  2  0
 33 34  1  0
 34 35  2  0
 33 36  1  0
 36 37  1  0
 36 38  1  0
 36 39  1  0
 32 12  1  0
 35  4  1  0
M  END
$$$$
