
     RDKit          3D

 39 40  0  0  0  0  0  0  0  0999 V2000
  -14.0737  -41.2134  -16.2412 C   0  0  0  0  0  0  0  0  0  0  0  0
  -13.4775  -40.1001  -15.4282 C   0  0  0  0  0  0  0  0  0  0  0  0
  -14.2053  -39.7870  -14.2661 O   0  0  0  0  0  0  0  0  0  0  0  0
  -13.8497  -38.7980  -13.3703 C   0  0  0  0  0  0  0  0  0  0  0  0
  -13.9073  -38.9257  -12.0096 C   0  0  0  0  0  0  0  0  0  0  0  0
  -13.5368  -37.8966  -11.1420 C   0  0  0  0  0  0  0  0  0  0  0  0
  -13.5920  -38.0140   -9.6849 C   0  0  0  0  0  0  0  0  0  0  0  0
  -13.9401  -39.3360   -9.1996 N   0  0  0  0  0  0  0  0  0  0  0  0
  -15.3962  -39.4194   -9.2557 C   0  0  0  0  0  0  0  0  0  0  0  0
  -16.0395  -39.2766   -7.9005 C   0  0  1  0  0  0  0  0  0  0  0  0
  -15.9667  -37.9618   -7.5269 O   0  0  0  0  0  0  0  0  0  0  0  0
  -17.5003  -39.7162   -7.9190 C   0  0  2  0  0  0  0  0  0  0  0  0
  -18.3757  -38.6983   -7.2369 C   0  0  0  0  0  0  0  0  0  0  0  0
  -19.8186  -38.7710   -7.6506 C   0  0  2  0  0  0  0  0  0  0  0  0
  -20.4282  -37.3652   -7.6079 C   0  0  0  0  0  0  0  0  0  0  0  0
  -20.6130  -39.7049   -6.7559 C   0  0  0  0  0  0  0  0  0  0  0  0
  -21.8788  -40.1580   -7.4186 C   0  0  0  0  0  0  0  0  0  0  0  0
  -22.7445  -40.9852   -6.5126 C   0  0  0  0  0  0  0  0  0  0  0  0
  -22.1058  -42.2345   -6.0280 C   0  0  0  0  0  0  0  0  0  0  0  0
  -22.5776  -43.4893   -6.7836 C   0  0  0  0  0  0  0  0  0  0  0  0
  -21.6066  -44.5764   -6.3827 C   0  0  0  0  0  0  0  0  0  0  0  0
  -21.4338  -45.6690   -7.3571 C   0  0  0  0  0  0  0  0  0  0  0  0
  -20.3589  -45.4944   -8.3953 C   0  0  0  0  0  0  0  0  0  0  0  0
  -19.0164  -45.2318   -7.8489 C   0  0  0  0  0  0  0  0  0  0  0  0
  -18.7784  -45.8592   -6.7448 O   0  0  0  0  0  0  0  0  0  0  0  0
  -17.9859  -44.4168   -8.3506 N   0  0  0  0  0  0  0  0  0  0  0  0
  -16.6618  -45.0236   -8.6294 C   0  0  0  0  0  0  0  0  0  0  0  0
  -18.0476  -42.9848   -8.6236 C   0  0  1  0  0  0  0  0  0  0  0  0
  -19.4245  -42.5031   -8.8986 C   0  0  0  0  0  0  0  0  0  0  0  0
  -17.3767  -42.2496   -7.5356 C   0  0  0  0  0  0  0  0  0  0  0  0
  -16.5159  -42.9283   -6.8518 O   0  0  0  0  0  0  0  0  0  0  0  0
  -17.5400  -40.9316   -7.1418 N   0  0  0  0  0  0  0  0  0  0  0  0
  -13.1031  -36.7263  -11.7174 C   0  0  0  0  0  0  0  0  0  0  0  0
  -13.0364  -36.5741  -13.1004 C   0  0  0  0  0  0  0  0  0  0  0  0
  -13.4072  -37.6031  -13.9212 C   0  0  0  0  0  0  0  0  0  0  0  0
  -12.6941  -35.5950  -10.8638 C   0  0  0  0  0  0  0  0  0  0  0  0
  -11.3043  -35.4353  -10.9252 F   0  0  0  0  0  0  0  0  0  0  0  0
  -13.0061  -35.7568   -9.5416 F   0  0  0  0  0  0  0  0  0  0  0  0
  -13.2223  -34.4366  -11.4105 F   0  0  0  0  0  0  0  0  0  0  0  0
  1  2  1  0
  2  3  1  0
  3  4  1  0
  4  5  2  0
  5  6  1  0
  6  7  1  0
  7  8  1  0
  8  9  1  0
  9 10  1  0
 10 11  1  6
 10 12  1  0
 12 13  1  1
 13 14  1  0
 14 15  1  1
 14 16  1  0
 16 17  1  0
 17 18  1  0
 18 19  1  0
 19 20  1  0
 20 21  1  0
 21 22  1  0
 22 23  1  0
 23 24  1  0
 24 25  2  0
 24 26  1  0
 26 27  1  0
 26 28  1  0
 28 29  1  1
 28 30  1  0
 30 31  2  0
 30 32  1  0
  6 33  2  0
 33 34  1  0
 34 35  2  0
 33 36  1  0
 36 37  1  0
 36 38  1  0
 36 39  1  0
 32 12  1  0
 35  4  1  0
M  END
$$$$
