
     RDKit          3D

 39 40  0  0  0  0  0  0  0  0999 V2000
  -19.9931  -31.6130   -7.4209 C   0  0  0  0  0  0  0  0  0  0  0  0
  -19.4470  -32.7528   -8.2324 C   0  0  0  0  0  0  0  0  0  0  0  0
  -20.3807  -33.7735   -8.4863 O   0  0  0  0  0  0  0  0  0  0  0  0
  -20.1021  -34.9195   -9.2049 C   0  0  0  0  0  0  0  0  0  0  0  0
  -19.0800  -35.7836   -8.9225 C   0  0  0  0  0  0  0  0  0  0  0  0
  -18.8363  -36.9318   -9.6784 C   0  0  0  0  0  0  0  0  0  0  0  0
  -17.7486  -37.8671   -9.3925 C   0  0  0  0  0  0  0  0  0  0  0  0
  -17.9072  -38.6179   -8.1614 N   0  0  0  0  0  0  0  0  0  0  0  0
  -16.5615  -38.9876   -7.7342 C   0  0  0  0  0  0  0  0  0  0  0  0
  -15.7121  -39.5016   -8.8680 C   0  0  1  0  0  0  0  0  0  0  0  0
  -14.4686  -38.9392   -8.7623 O   0  0  0  0  0  0  0  0  0  0  0  0
  -15.5836  -41.0214   -8.8340 C   0  0  2  0  0  0  0  0  0  0  0  0
  -14.3548  -41.4727   -9.5787 C   0  0  0  0  0  0  0  0  0  0  0  0
  -13.8703  -42.8356   -9.1708 C   0  0  2  0  0  0  0  0  0  0  0  0
  -12.3435  -42.8880   -9.2974 C   0  0  0  0  0  0  0  0  0  0  0  0
  -14.4956  -43.9302  -10.0162 C   0  0  0  0  0  0  0  0  0  0  0  0
  -14.4155  -45.2640   -9.3371 C   0  0  0  0  0  0  0  0  0  0  0  0
  -14.9163  -46.3859  -10.2002 C   0  0  0  0  0  0  0  0  0  0  0  0
  -16.3375  -46.2569  -10.6088 C   0  0  0  0  0  0  0  0  0  0  0  0
  -17.2880  -47.1445   -9.7862 C   0  0  0  0  0  0  0  0  0  0  0  0
  -18.6758  -46.6456  -10.1183 C   0  0  0  0  0  0  0  0  0  0  0  0
  -19.7000  -46.8709   -9.0822 C   0  0  0  0  0  0  0  0  0  0  0  0
  -19.8747  -45.7916   -8.0487 C   0  0  0  0  0  0  0  0  0  0  0  0
  -20.1534  -44.4546   -8.6004 C   0  0  0  0  0  0  0  0  0  0  0  0
  -20.8844  -44.4794   -9.6654 O   0  0  0  0  0  0  0  0  0  0  0  0
  -19.7468  -43.1898   -8.1391 N   0  0  0  0  0  0  0  0  0  0  0  0
  -20.7805  -42.1763   -7.8175 C   0  0  0  0  0  0  0  0  0  0  0  0
  -18.3792  -42.7182   -7.9483 C   0  0  1  0  0  0  0  0  0  0  0  0
  -17.4117  -43.8185   -7.7102 C   0  0  0  0  0  0  0  0  0  0  0  0
  -18.0027  -41.8407   -9.0719 C   0  0  0  0  0  0  0  0  0  0  0  0
  -18.9866  -41.2988   -9.7105 O   0  0  0  0  0  0  0  0  0  0  0  0
  -16.7407  -41.5154   -9.5412 N   0  0  0  0  0  0  0  0  0  0  0  0
  -19.6786  -37.1665  -10.7387 C   0  0  0  0  0  0  0  0  0  0  0  0
  -20.7256  -36.3002  -11.0446 C   0  0  0  0  0  0  0  0  0  0  0  0
  -20.9359  -35.1842  -10.2828 C   0  0  0  0  0  0  0  0  0  0  0  0
  -19.4831  -38.3606  -11.5823 C   0  0  0  0  0  0  0  0  0  0  0  0
  -18.3653  -39.0763  -11.1361 F   0  0  0  0  0  0  0  0  0  0  0  0
  -19.2584  -38.0768  -12.9017 F   0  0  0  0  0  0  0  0  0  0  0  0
  -20.5640  -39.2042  -11.3829 F   0  0  0  0  0  0  0  0  0  0  0  0
  1  2  1  0
  2  3  1  0
  3  4  1  0
  4  5  2  0
  5  6  1  0
  6  7  1  0
  7  8  1  0
  8  9  1  0
  9 10  1  0
 10 11  1  1
 10 12  1  0
 12 13  1  6
 13 14  1  0
 14 15  1  6
 14 16  1  0
 16 17  1  0
 17 18  1  0
 18 19  1  0
 19 20  1  0
 20 21  1  0
 21 22  1  0
 22 23  1  0
 23 24  1  0
 24 25  2  0
 24 26  1  0
 26 27  1  0
 26 28  1  0
 28 29  1  6
 28 30  1  0
 30 31  2  0
 30 32  1  0
  6 33  2  0
 33 34  1  0
 34 35  2  0
 33 36  1  0
 36 37  1  0
 36 38  1  0
 36 39  1  0
 32 12  1  0
 35  4  1  0
M  END
$$$$
