
     RDKit          3D

 39 40  0  0  0  0  0  0  0  0999 V2000
  -10.4619  -38.5228  -15.9835 C   0  0  0  0  0  0  0  0  0  0  0  0
  -10.4273  -38.5403  -14.4820 C   0  0  0  0  0  0  0  0  0  0  0  0
  -11.6643  -38.8415  -13.8845 O   0  0  0  0  0  0  0  0  0  0  0  0
  -12.4414  -37.9249  -13.2039 C   0  0  0  0  0  0  0  0  0  0  0  0
  -13.3080  -38.2401  -12.1935 C   0  0  0  0  0  0  0  0  0  0  0  0
  -14.0743  -37.2778  -11.5333 C   0  0  0  0  0  0  0  0  0  0  0  0
  -15.0064  -37.5953  -10.4516 C   0  0  0  0  0  0  0  0  0  0  0  0
  -14.7118  -38.8272   -9.7443 N   0  0  0  0  0  0  0  0  0  0  0  0
  -16.0007  -39.4469   -9.4527 C   0  0  0  0  0  0  0  0  0  0  0  0
  -16.4653  -39.1868   -8.0430 C   0  0  1  0  0  0  0  0  0  0  0  0
  -16.4327  -37.8363   -7.8223 O   0  0  0  0  0  0  0  0  0  0  0  0
  -17.8821  -39.7025   -7.8105 C   0  0  2  0  0  0  0  0  0  0  0  0
  -18.6437  -38.7834   -6.8921 C   0  0  0  0  0  0  0  0  0  0  0  0
  -20.1361  -38.9052   -7.0205 C   0  0  2  0  0  0  0  0  0  0  0  0
  -20.7798  -37.5408   -6.7485 C   0  0  0  0  0  0  0  0  0  0  0  0
  -20.6994  -39.9408   -6.0646 C   0  0  0  0  0  0  0  0  0  0  0  0
  -22.0529  -40.4144   -6.5009 C   0  0  0  0  0  0  0  0  0  0  0  0
  -22.6879  -41.3485   -5.5116 C   0  0  0  0  0  0  0  0  0  0  0  0
  -21.9171  -42.5922   -5.2615 C   0  0  0  0  0  0  0  0  0  0  0  0
  -22.4800  -43.8148   -6.0071 C   0  0  0  0  0  0  0  0  0  0  0  0
  -21.4068  -44.8731   -5.8909 C   0  0  0  0  0  0  0  0  0  0  0  0
  -21.3883  -45.8841   -6.9635 C   0  0  0  0  0  0  0  0  0  0  0  0
  -20.5491  -45.5795   -8.1746 C   0  0  0  0  0  0  0  0  0  0  0  0
  -19.1362  -45.2834   -7.8819 C   0  0  0  0  0  0  0  0  0  0  0  0
  -18.6588  -45.9725   -6.8987 O   0  0  0  0  0  0  0  0  0  0  0  0
  -18.2589  -44.3808   -8.5092 N   0  0  0  0  0  0  0  0  0  0  0  0
  -16.9939  -44.8941   -9.0884 C   0  0  0  0  0  0  0  0  0  0  0  0
  -18.4298  -42.9387   -8.6509 C   0  0  1  0  0  0  0  0  0  0  0  0
  -19.8517  -42.5143   -8.6125 C   0  0  0  0  0  0  0  0  0  0  0  0
  -17.5854  -42.2460   -7.6602 C   0  0  0  0  0  0  0  0  0  0  0  0
  -16.5798  -42.9232   -7.2135 O   0  0  0  0  0  0  0  0  0  0  0  0
  -17.7188  -40.9695   -7.1390 N   0  0  0  0  0  0  0  0  0  0  0  0
  -13.9226  -35.9753  -11.9445 C   0  0  0  0  0  0  0  0  0  0  0  0
  -13.0461  -35.6315  -12.9711 C   0  0  0  0  0  0  0  0  0  0  0  0
  -12.3105  -36.5998  -13.5965 C   0  0  0  0  0  0  0  0  0  0  0  0
  -14.6988  -34.9036  -11.2927 C   0  0  0  0  0  0  0  0  0  0  0  0
  -14.9031  -35.2216   -9.9444 F   0  0  0  0  0  0  0  0  0  0  0  0
  -15.9394  -34.7085  -11.8356 F   0  0  0  0  0  0  0  0  0  0  0  0
  -13.9203  -33.7575  -11.2868 F   0  0  0  0  0  0  0  0  0  0  0  0
  1  2  1  0
  2  3  1  0
  3  4  1  0
  4  5  2  0
  5  6  1  0
  6  7  1  0
  7  8  1  0
  8  9  1  0
  9 10  1  0
 10 11  1  6
 10 12  1  0
 12 13  1  1
 13 14  1  0
 14 15  1  1
 14 16  1  0
 16 17  1  0
 17 18  1  0
 18 19  1  0
 19 20  1  0
 20 21  1  0
 21 22  1  0
 22 23  1  0
 23 24  1  0
 24 25  2  0
 24 26  1  0
 26 27  1  0
 26 28  1  0
 28 29  1  1
 28 30  1  0
 30 31  2  0
 30 32  1  0
  6 33  2  0
 33 34  1  0
 34 35  2  0
 33 36  1  0
 36 37  1  0
 36 38  1  0
 36 39  1  0
 32 12  1  0
 35  4  1  0
M  END
$$$$
