
     RDKit          3D

 39 40  0  0  0  0  0  0  0  0999 V2000
  -19.2737  -35.0329  -13.6332 C   0  0  0  0  0  0  0  0  0  0  0  0
  -17.8346  -35.1339  -13.2152 C   0  0  0  0  0  0  0  0  0  0  0  0
  -17.4420  -36.4262  -12.8228 O   0  0  0  0  0  0  0  0  0  0  0  0
  -16.1399  -36.7901  -12.5411 C   0  0  0  0  0  0  0  0  0  0  0  0
  -15.7830  -37.8207  -11.7156 C   0  0  0  0  0  0  0  0  0  0  0  0
  -14.4511  -38.1522  -11.4603 C   0  0  0  0  0  0  0  0  0  0  0  0
  -14.0499  -39.2498  -10.5805 C   0  0  0  0  0  0  0  0  0  0  0  0
  -14.2273  -38.9837   -9.1655 N   0  0  0  0  0  0  0  0  0  0  0  0
  -15.2819  -39.8847   -8.7113 C   0  0  0  0  0  0  0  0  0  0  0  0
  -15.8989  -39.4475   -7.4078 C   0  0  1  0  0  0  0  0  0  0  0  0
  -15.6536  -38.1109   -7.2435 O   0  0  0  0  0  0  0  0  0  0  0  0
  -17.4048  -39.6910   -7.3854 C   0  0  2  0  0  0  0  0  0  0  0  0
  -18.1301  -38.5127   -6.7909 C   0  0  0  0  0  0  0  0  0  0  0  0
  -19.5756  -38.4297   -7.1937 C   0  0  2  0  0  0  0  0  0  0  0  0
  -19.9952  -36.9573   -7.2700 C   0  0  0  0  0  0  0  0  0  0  0  0
  -20.4733  -39.1719   -6.2205 C   0  0  0  0  0  0  0  0  0  0  0  0
  -21.7963  -39.5089   -6.8392 C   0  0  0  0  0  0  0  0  0  0  0  0
  -22.7506  -40.1355   -5.8638 C   0  0  0  0  0  0  0  0  0  0  0  0
  -22.2745  -41.4125   -5.2756 C   0  0  0  0  0  0  0  0  0  0  0  0
  -22.9166  -42.6536   -5.9200 C   0  0  0  0  0  0  0  0  0  0  0  0
  -22.0910  -43.8213   -5.4298 C   0  0  0  0  0  0  0  0  0  0  0  0
  -22.0759  -45.0055   -6.3075 C   0  0  0  0  0  0  0  0  0  0  0  0
  -21.0015  -45.0621   -7.3593 C   0  0  0  0  0  0  0  0  0  0  0  0
  -19.6289  -44.9333   -6.8404 C   0  0  0  0  0  0  0  0  0  0  0  0
  -19.4602  -45.4910   -5.6872 O   0  0  0  0  0  0  0  0  0  0  0  0
  -18.5075  -44.3063   -7.4123 N   0  0  0  0  0  0  0  0  0  0  0  0
  -17.2781  -45.1034   -7.6412 C   0  0  0  0  0  0  0  0  0  0  0  0
  -18.3847  -42.9069   -7.8067 C   0  0  1  0  0  0  0  0  0  0  0  0
  -19.6904  -42.2732   -8.1187 C   0  0  0  0  0  0  0  0  0  0  0  0
  -17.6088  -42.1771   -6.7870 C   0  0  0  0  0  0  0  0  0  0  0  0
  -16.8351  -42.9030   -6.0496 O   0  0  0  0  0  0  0  0  0  0  0  0
  -17.5929  -40.8206   -6.5070 N   0  0  0  0  0  0  0  0  0  0  0  0
  -13.4920  -37.3890  -12.0819 C   0  0  0  0  0  0  0  0  0  0  0  0
  -13.8325  -36.3349  -12.9263 C   0  0  0  0  0  0  0  0  0  0  0  0
  -15.1476  -36.0375  -13.1544 C   0  0  0  0  0  0  0  0  0  0  0  0
  -12.0632  -37.6807  -11.8604 C   0  0  0  0  0  0  0  0  0  0  0  0
  -11.5786  -38.4846  -12.8995 F   0  0  0  0  0  0  0  0  0  0  0  0
  -11.8087  -38.3569  -10.6985 F   0  0  0  0  0  0  0  0  0  0  0  0
  -11.3647  -36.4884  -11.9609 F   0  0  0  0  0  0  0  0  0  0  0  0
  1  2  1  0
  2  3  1  0
  3  4  1  0
  4  5  2  0
  5  6  1  0
  6  7  1  0
  7  8  1  0
  8  9  1  0
  9 10  1  0
 10 11  1  6
 10 12  1  0
 12 13  1  1
 13 14  1  0
 14 15  1  1
 14 16  1  0
 16 17  1  0
 17 18  1  0
 18 19  1  0
 19 20  1  0
 20 21  1  0
 21 22  1  0
 22 23  1  0
 23 24  1  0
 24 25  2  0
 24 26  1  0
 26 27  1  0
 26 28  1  0
 28 29  1  1
 28 30  1  0
 30 31  2  0
 30 32  1  0
  6 33  2  0
 33 34  1  0
 34 35  2  0
 33 36  1  0
 36 37  1  0
 36 38  1  0
 36 39  1  0
 32 12  1  0
 35  4  1  0
M  END
$$$$
