
     RDKit          3D

 39 40  0  0  0  0  0  0  0  0999 V2000
  -11.3532  -33.3447  -10.9977 C   0  0  0  0  0  0  0  0  0  0  0  0
  -12.3735  -34.2183  -10.3256 C   0  0  0  0  0  0  0  0  0  0  0  0
  -13.6179  -34.2523  -10.9802 O   0  0  0  0  0  0  0  0  0  0  0  0
  -14.3562  -35.4013  -11.1850 C   0  0  0  0  0  0  0  0  0  0  0  0
  -13.9678  -36.6536  -10.7952 C   0  0  0  0  0  0  0  0  0  0  0  0
  -14.7489  -37.7878  -11.0241 C   0  0  0  0  0  0  0  0  0  0  0  0
  -14.3504  -39.1347  -10.6155 C   0  0  0  0  0  0  0  0  0  0  0  0
  -14.3937  -39.3679   -9.1844 N   0  0  0  0  0  0  0  0  0  0  0  0
  -15.6238  -40.1114   -8.9305 C   0  0  0  0  0  0  0  0  0  0  0  0
  -16.1794  -39.8631   -7.5519 C   0  0  1  0  0  0  0  0  0  0  0  0
  -15.9107  -38.5658   -7.2078 O   0  0  0  0  0  0  0  0  0  0  0  0
  -17.6859  -40.0980   -7.4988 C   0  0  2  0  0  0  0  0  0  0  0  0
  -18.3679  -39.0260   -6.6902 C   0  0  0  0  0  0  0  0  0  0  0  0
  -19.8287  -38.8707   -7.0069 C   0  0  2  0  0  0  0  0  0  0  0  0
  -20.2316  -37.4026   -6.8270 C   0  0  0  0  0  0  0  0  0  0  0  0
  -20.6917  -39.7540   -6.1246 C   0  0  0  0  0  0  0  0  0  0  0  0
  -22.0456  -39.9793   -6.7270 C   0  0  0  0  0  0  0  0  0  0  0  0
  -22.9634  -40.7486   -5.8213 C   0  0  0  0  0  0  0  0  0  0  0  0
  -22.4786  -42.1063   -5.4679 C   0  0  0  0  0  0  0  0  0  0  0  0
  -23.1656  -43.2239   -6.2721 C   0  0  0  0  0  0  0  0  0  0  0  0
  -22.3346  -44.4601   -6.0141 C   0  0  0  0  0  0  0  0  0  0  0  0
  -22.3748  -45.4882   -7.0698 C   0  0  0  0  0  0  0  0  0  0  0  0
  -21.3496  -45.3817   -8.1658 C   0  0  0  0  0  0  0  0  0  0  0  0
  -19.9535  -45.3461   -7.6973 C   0  0  0  0  0  0  0  0  0  0  0  0
  -19.7406  -46.0828   -6.6574 O   0  0  0  0  0  0  0  0  0  0  0  0
  -18.8505  -44.6423   -8.2130 N   0  0  0  0  0  0  0  0  0  0  0  0
  -17.6434  -45.3998   -8.6234 C   0  0  0  0  0  0  0  0  0  0  0  0
  -18.7268  -43.1985   -8.3835 C   0  0  1  0  0  0  0  0  0  0  0  0
  -20.0365  -42.5150   -8.5290 C   0  0  0  0  0  0  0  0  0  0  0  0
  -17.8962  -42.6466   -7.2973 C   0  0  0  0  0  0  0  0  0  0  0  0
  -17.1000  -43.4861   -6.7223 O   0  0  0  0  0  0  0  0  0  0  0  0
  -17.8495  -41.3527   -6.8047 N   0  0  0  0  0  0  0  0  0  0  0  0
  -15.9472  -37.5957  -11.6690 C   0  0  0  0  0  0  0  0  0  0  0  0
  -16.3627  -36.3297  -12.0748 C   0  0  0  0  0  0  0  0  0  0  0  0
  -15.5725  -35.2398  -11.8344 C   0  0  0  0  0  0  0  0  0  0  0  0
  -16.8264  -38.7476  -11.9447 C   0  0  0  0  0  0  0  0  0  0  0  0
  -17.9732  -38.3150  -12.6219 F   0  0  0  0  0  0  0  0  0  0  0  0
  -17.2627  -39.3939  -10.8205 F   0  0  0  0  0  0  0  0  0  0  0  0
  -16.1677  -39.5829  -12.8324 F   0  0  0  0  0  0  0  0  0  0  0  0
  1  2  1  0
  2  3  1  0
  3  4  1  0
  4  5  2  0
  5  6  1  0
  6  7  1  0
  7  8  1  0
  8  9  1  0
  9 10  1  0
 10 11  1  6
 10 12  1  0
 12 13  1  1
 13 14  1  0
 14 15  1  1
 14 16  1  0
 16 17  1  0
 17 18  1  0
 18 19  1  0
 19 20  1  0
 20 21  1  0
 21 22  1  0
 22 23  1  0
 23 24  1  0
 24 25  2  0
 24 26  1  0
 26 27  1  0
 26 28  1  0
 28 29  1  1
 28 30  1  0
 30 31  2  0
 30 32  1  0
  6 33  2  0
 33 34  1  0
 34 35  2  0
 33 36  1  0
 36 37  1  0
 36 38  1  0
 36 39  1  0
 32 12  1  0
 35  4  1  0
M  END
$$$$
