
     RDKit          3D

 39 40  0  0  0  0  0  0  0  0999 V2000
   -8.7302  -35.3154  -11.3242 C   0  0  0  0  0  0  0  0  0  0  0  0
  -10.0763  -35.8802  -10.9707 C   0  0  0  0  0  0  0  0  0  0  0  0
  -11.1385  -35.3363  -11.7150 O   0  0  0  0  0  0  0  0  0  0  0  0
  -12.4683  -35.6493  -11.5129 C   0  0  0  0  0  0  0  0  0  0  0  0
  -12.9248  -36.5237  -10.5653 C   0  0  0  0  0  0  0  0  0  0  0  0
  -14.2810  -36.8093  -10.3976 C   0  0  0  0  0  0  0  0  0  0  0  0
  -14.7882  -37.7415   -9.3908 C   0  0  0  0  0  0  0  0  0  0  0  0
  -15.2257  -39.0198   -9.9190 N   0  0  0  0  0  0  0  0  0  0  0  0
  -16.0290  -39.6399   -8.8700 C   0  0  0  0  0  0  0  0  0  0  0  0
  -16.8186  -40.8239   -9.3655 C   0  0  1  0  0  0  0  0  0  0  0  0
  -16.3881  -41.9377   -8.6963 O   0  0  0  0  0  0  0  0  0  0  0  0
  -18.3154  -40.6424   -9.1334 C   0  0  2  0  0  0  0  0  0  0  0  0
  -18.7725  -39.2897   -9.6121 C   0  0  0  0  0  0  0  0  0  0  0  0
  -20.2445  -39.2211   -9.9070 C   0  0  2  0  0  0  0  0  0  0  0  0
  -20.4845  -38.2348  -11.0556 C   0  0  0  0  0  0  0  0  0  0  0  0
  -21.0424  -38.7966   -8.6876 C   0  0  0  0  0  0  0  0  0  0  0  0
  -22.4851  -39.1838   -8.8113 C   0  0  0  0  0  0  0  0  0  0  0  0
  -23.3233  -38.6708   -7.6761 C   0  0  0  0  0  0  0  0  0  0  0  0
  -22.9139  -39.1682   -6.3388 C   0  0  0  0  0  0  0  0  0  0  0  0
  -23.8087  -40.3050   -5.8146 C   0  0  0  0  0  0  0  0  0  0  0  0
  -23.0616  -40.8783   -4.6320 C   0  0  0  0  0  0  0  0  0  0  0  0
  -23.3485  -42.2900   -4.3191 C   0  0  0  0  0  0  0  0  0  0  0  0
  -22.4914  -43.3267   -4.9932 C   0  0  0  0  0  0  0  0  0  0  0  0
  -21.0438  -43.1576   -4.7796 C   0  0  0  0  0  0  0  0  0  0  0  0
  -20.7456  -42.7104   -3.6047 O   0  0  0  0  0  0  0  0  0  0  0  0
  -19.9712  -43.4109   -5.6533 N   0  0  0  0  0  0  0  0  0  0  0  0
  -18.9102  -44.3575   -5.2321 C   0  0  0  0  0  0  0  0  0  0  0  0
  -19.7466  -42.8208   -6.9687 C   0  0  1  0  0  0  0  0  0  0  0  0
  -20.9976  -42.3595   -7.6213 C   0  0  0  0  0  0  0  0  0  0  0  0
  -18.7188  -41.7687   -6.8642 C   0  0  0  0  0  0  0  0  0  0  0  0
  -17.9239  -41.8641   -5.8501 O   0  0  0  0  0  0  0  0  0  0  0  0
  -18.4851  -40.6897   -7.7009 N   0  0  0  0  0  0  0  0  0  0  0  0
  -15.1586  -36.1662  -11.2373 C   0  0  0  0  0  0  0  0  0  0  0  0
  -14.7161  -35.2721  -12.2092 C   0  0  0  0  0  0  0  0  0  0  0  0
  -13.3799  -35.0153  -12.3461 C   0  0  0  0  0  0  0  0  0  0  0  0
  -16.6072  -36.4175  -11.1186 C   0  0  0  0  0  0  0  0  0  0  0  0
  -16.8920  -37.7322  -11.5076 F   0  0  0  0  0  0  0  0  0  0  0  0
  -17.3773  -35.6063  -11.9066 F   0  0  0  0  0  0  0  0  0  0  0  0
  -16.9423  -36.3501   -9.7759 F   0  0  0  0  0  0  0  0  0  0  0  0
  1  2  1  0
  2  3  1  0
  3  4  1  0
  4  5  2  0
  5  6  1  0
  6  7  1  0
  7  8  1  0
  8  9  1  0
  9 10  1  0
 10 11  1  1
 10 12  1  0
 12 13  1  1
 13 14  1  0
 14 15  1  6
 14 16  1  0
 16 17  1  0
 17 18  1  0
 18 19  1  0
 19 20  1  0
 20 21  1  0
 21 22  1  0
 22 23  1  0
 23 24  1  0
 24 25  2  0
 24 26  1  0
 26 27  1  0
 26 28  1  0
 28 29  1  1
 28 30  1  0
 30 31  2  0
 30 32  1  0
  6 33  2  0
 33 34  1  0
 34 35  2  0
 33 36  1  0
 36 37  1  0
 36 38  1  0
 36 39  1  0
 32 12  1  0
 35  4  1  0
M  END
$$$$
