
     RDKit          3D

 39 40  0  0  0  0  0  0  0  0999 V2000
  -22.0918  -37.3528  -12.6065 C   0  0  0  0  0  0  0  0  0  0  0  0
  -21.6109  -37.8074  -11.2582 C   0  0  0  0  0  0  0  0  0  0  0  0
  -22.5077  -38.6584  -10.5877 O   0  0  0  0  0  0  0  0  0  0  0  0
  -22.3071  -39.1479   -9.3121 C   0  0  0  0  0  0  0  0  0  0  0  0
  -21.0935  -39.5285   -8.8084 C   0  0  0  0  0  0  0  0  0  0  0  0
  -20.9389  -40.0184   -7.5104 C   0  0  0  0  0  0  0  0  0  0  0  0
  -19.6502  -40.4308   -6.9545 C   0  0  0  0  0  0  0  0  0  0  0  0
  -18.6554  -39.3766   -6.8927 N   0  0  0  0  0  0  0  0  0  0  0  0
  -17.3595  -40.0312   -7.0418 C   0  0  0  0  0  0  0  0  0  0  0  0
  -16.2057  -39.1167   -6.7203 C   0  0  1  0  0  0  0  0  0  0  0  0
  -15.6037  -39.5701   -5.5776 O   0  0  0  0  0  0  0  0  0  0  0  0
  -15.1814  -39.0801   -7.8503 C   0  0  2  0  0  0  0  0  0  0  0  0
  -14.9704  -37.6709   -8.3378 C   0  0  0  0  0  0  0  0  0  0  0  0
  -13.6587  -37.4676   -9.0426 C   0  0  2  0  0  0  0  0  0  0  0  0
  -13.1646  -36.0389   -8.7888 C   0  0  0  0  0  0  0  0  0  0  0  0
  -13.7793  -37.7139  -10.5354 C   0  0  0  0  0  0  0  0  0  0  0  0
  -12.4440  -37.9908  -11.1574 C   0  0  0  0  0  0  0  0  0  0  0  0
  -12.5149  -38.1184  -12.6519 C   0  0  0  0  0  0  0  0  0  0  0  0
  -13.3886  -39.2183  -13.1319 C   0  0  0  0  0  0  0  0  0  0  0  0
  -12.6048  -40.4671  -13.5723 C   0  0  0  0  0  0  0  0  0  0  0  0
  -13.6460  -41.5541  -13.7125 C   0  0  0  0  0  0  0  0  0  0  0  0
  -13.1574  -42.9332  -13.5319 C   0  0  0  0  0  0  0  0  0  0  0  0
  -13.1847  -43.4898  -12.1344 C   0  0  0  0  0  0  0  0  0  0  0  0
  -14.5055  -43.4466  -11.4836 C   0  0  0  0  0  0  0  0  0  0  0  0
  -15.4877  -43.6481  -12.2986 O   0  0  0  0  0  0  0  0  0  0  0  0
  -14.8355  -43.2249  -10.1346 N   0  0  0  0  0  0  0  0  0  0  0  0
  -15.6217  -44.2522   -9.4095 C   0  0  0  0  0  0  0  0  0  0  0  0
  -14.5088  -42.0540   -9.3275 C   0  0  1  0  0  0  0  0  0  0  0  0
  -13.3056  -41.3311   -9.8107 C   0  0  0  0  0  0  0  0  0  0  0  0
  -15.7002  -41.1934   -9.2085 C   0  0  0  0  0  0  0  0  0  0  0  0
  -16.8347  -41.7824   -9.3961 O   0  0  0  0  0  0  0  0  0  0  0  0
  -15.7749  -39.8397   -8.9244 N   0  0  0  0  0  0  0  0  0  0  0  0
  -22.0745  -40.1061   -6.7413 C   0  0  0  0  0  0  0  0  0  0  0  0
  -23.3204  -39.7244   -7.2334 C   0  0  0  0  0  0  0  0  0  0  0  0
  -23.4358  -39.2485   -8.5102 C   0  0  0  0  0  0  0  0  0  0  0  0
  -21.9887  -40.6139   -5.3591 C   0  0  0  0  0  0  0  0  0  0  0  0
  -21.8253  -39.5430   -4.4717 F   0  0  0  0  0  0  0  0  0  0  0  0
  -20.9343  -41.4586   -5.1430 F   0  0  0  0  0  0  0  0  0  0  0  0
  -23.2127  -41.1766   -5.0356 F   0  0  0  0  0  0  0  0  0  0  0  0
  1  2  1  0
  2  3  1  0
  3  4  1  0
  4  5  2  0
  5  6  1  0
  6  7  1  0
  7  8  1  0
  8  9  1  0
  9 10  1  0
 10 11  1  1
 10 12  1  0
 12 13  1  6
 13 14  1  0
 14 15  1  6
 14 16  1  0
 16 17  1  0
 17 18  1  0
 18 19  1  0
 19 20  1  0
 20 21  1  0
 21 22  1  0
 22 23  1  0
 23 24  1  0
 24 25  2  0
 24 26  1  0
 26 27  1  0
 26 28  1  0
 28 29  1  6
 28 30  1  0
 30 31  2  0
 30 32  1  0
  6 33  2  0
 33 34  1  0
 34 35  2  0
 33 36  1  0
 36 37  1  0
 36 38  1  0
 36 39  1  0
 32 12  1  0
 35  4  1  0
M  END
$$$$
