
     RDKit          3D

 39 40  0  0  0  0  0  0  0  0999 V2000
  -15.1502  -30.6133  -11.0644 C   0  0  0  0  0  0  0  0  0  0  0  0
  -16.3690  -31.4711  -11.2498 C   0  0  0  0  0  0  0  0  0  0  0  0
  -16.0831  -32.8257  -11.4977 O   0  0  0  0  0  0  0  0  0  0  0  0
  -17.0411  -33.8148  -11.6026 C   0  0  0  0  0  0  0  0  0  0  0  0
  -17.0339  -34.9816  -10.8887 C   0  0  0  0  0  0  0  0  0  0  0  0
  -18.0256  -35.9542  -11.0285 C   0  0  0  0  0  0  0  0  0  0  0  0
  -18.0347  -37.2078  -10.2747 C   0  0  0  0  0  0  0  0  0  0  0  0
  -16.7885  -37.9489  -10.3228 N   0  0  0  0  0  0  0  0  0  0  0  0
  -16.9433  -39.0654   -9.3955 C   0  0  0  0  0  0  0  0  0  0  0  0
  -15.6229  -39.6454   -8.9582 C   0  0  1  0  0  0  0  0  0  0  0  0
  -15.1928  -38.9531   -7.8585 O   0  0  0  0  0  0  0  0  0  0  0  0
  -15.7439  -41.1253   -8.6079 C   0  0  2  0  0  0  0  0  0  0  0  0
  -14.3849  -41.7409   -8.4023 C   0  0  0  0  0  0  0  0  0  0  0  0
  -14.4105  -42.9933   -7.5721 C   0  0  2  0  0  0  0  0  0  0  0  0
  -13.1100  -43.0924   -6.7667 C   0  0  0  0  0  0  0  0  0  0  0  0
  -14.5809  -44.2330   -8.4309 C   0  0  0  0  0  0  0  0  0  0  0  0
  -15.0849  -45.3941   -7.6281 C   0  0  0  0  0  0  0  0  0  0  0  0
  -15.1481  -46.6661   -8.4234 C   0  0  0  0  0  0  0  0  0  0  0  0
  -16.0467  -46.6067   -9.6034 C   0  0  0  0  0  0  0  0  0  0  0  0
  -17.4062  -47.2870   -9.3652 C   0  0  0  0  0  0  0  0  0  0  0  0
  -18.2716  -46.8505  -10.5253 C   0  0  0  0  0  0  0  0  0  0  0  0
  -19.7233  -46.8374  -10.2693 C   0  0  0  0  0  0  0  0  0  0  0  0
  -20.3098  -45.5616   -9.7288 C   0  0  0  0  0  0  0  0  0  0  0  0
  -20.0389  -44.3677  -10.5480 C   0  0  0  0  0  0  0  0  0  0  0  0
  -20.0244  -44.6070  -11.8175 O   0  0  0  0  0  0  0  0  0  0  0  0
  -19.8028  -43.0397  -10.1497 N   0  0  0  0  0  0  0  0  0  0  0  0
  -20.6859  -41.9669  -10.6677 C   0  0  0  0  0  0  0  0  0  0  0  0
  -18.7417  -42.5574   -9.2719 C   0  0  1  0  0  0  0  0  0  0  0  0
  -18.2440  -43.5959   -8.3352 C   0  0  0  0  0  0  0  0  0  0  0  0
  -17.6757  -41.9427  -10.0843 C   0  0  0  0  0  0  0  0  0  0  0  0
  -18.0331  -41.5345  -11.2569 O   0  0  0  0  0  0  0  0  0  0  0  0
  -16.3423  -41.7415   -9.7676 N   0  0  0  0  0  0  0  0  0  0  0  0
  -19.0303  -35.6905  -11.9284 C   0  0  0  0  0  0  0  0  0  0  0  0
  -19.0577  -34.5093  -12.6660 C   0  0  0  0  0  0  0  0  0  0  0  0
  -18.0698  -33.5777  -12.5042 C   0  0  0  0  0  0  0  0  0  0  0  0
  -20.1133  -36.6715  -12.1291 C   0  0  0  0  0  0  0  0  0  0  0  0
  -20.3502  -36.8401  -13.4989 F   0  0  0  0  0  0  0  0  0  0  0  0
  -21.3074  -36.3008  -11.5736 F   0  0  0  0  0  0  0  0  0  0  0  0
  -19.6619  -37.9019  -11.6794 F   0  0  0  0  0  0  0  0  0  0  0  0
  1  2  1  0
  2  3  1  0
  3  4  1  0
  4  5  2  0
  5  6  1  0
  6  7  1  0
  7  8  1  0
  8  9  1  0
  9 10  1  0
 10 11  1  1
 10 12  1  0
 12 13  1  6
 13 14  1  0
 14 15  1  6
 14 16  1  0
 16 17  1  0
 17 18  1  0
 18 19  1  0
 19 20  1  0
 20 21  1  0
 21 22  1  0
 22 23  1  0
 23 24  1  0
 24 25  2  0
 24 26  1  0
 26 27  1  0
 26 28  1  0
 28 29  1  6
 28 30  1  0
 30 31  2  0
 30 32  1  0
  6 33  2  0
 33 34  1  0
 34 35  2  0
 33 36  1  0
 36 37  1  0
 36 38  1  0
 36 39  1  0
 32 12  1  0
 35  4  1  0
M  END
$$$$
