
     RDKit          3D

 39 40  0  0  0  0  0  0  0  0999 V2000
  -19.3769  -35.6070  -11.6302 C   0  0  0  0  0  0  0  0  0  0  0  0
  -18.4160  -36.5449  -12.3033 C   0  0  0  0  0  0  0  0  0  0  0  0
  -17.2276  -35.9314  -12.7385 O   0  0  0  0  0  0  0  0  0  0  0  0
  -15.9664  -36.2838  -12.3000 C   0  0  0  0  0  0  0  0  0  0  0  0
  -15.7135  -37.2147  -11.3301 C   0  0  0  0  0  0  0  0  0  0  0  0
  -14.4194  -37.5387  -10.9188 C   0  0  0  0  0  0  0  0  0  0  0  0
  -14.1291  -38.5304   -9.8834 C   0  0  0  0  0  0  0  0  0  0  0  0
  -14.9491  -39.7255   -9.9466 N   0  0  0  0  0  0  0  0  0  0  0  0
  -15.0622  -40.2141   -8.5760 C   0  0  0  0  0  0  0  0  0  0  0  0
  -15.8314  -39.2732   -7.6849 C   0  0  1  0  0  0  0  0  0  0  0  0
  -15.6745  -38.0013   -8.1659 O   0  0  0  0  0  0  0  0  0  0  0  0
  -17.3168  -39.6188   -7.6462 C   0  0  2  0  0  0  0  0  0  0  0  0
  -18.0953  -38.5593   -6.9116 C   0  0  0  0  0  0  0  0  0  0  0  0
  -19.5562  -38.5331   -7.2631 C   0  0  2  0  0  0  0  0  0  0  0  0
  -20.0719  -37.0923   -7.1732 C   0  0  0  0  0  0  0  0  0  0  0  0
  -20.3701  -39.4301   -6.3485 C   0  0  0  0  0  0  0  0  0  0  0  0
  -21.6895  -39.7902   -6.9620 C   0  0  0  0  0  0  0  0  0  0  0  0
  -22.5671  -40.5766   -6.0315 C   0  0  0  0  0  0  0  0  0  0  0  0
  -21.9899  -41.8722   -5.5937 C   0  0  0  0  0  0  0  0  0  0  0  0
  -22.5730  -43.0811   -6.3464 C   0  0  0  0  0  0  0  0  0  0  0  0
  -21.6577  -44.2345   -6.0043 C   0  0  0  0  0  0  0  0  0  0  0  0
  -21.5970  -45.3187   -7.0013 C   0  0  0  0  0  0  0  0  0  0  0  0
  -20.5583  -45.1945   -8.0826 C   0  0  0  0  0  0  0  0  0  0  0  0
  -19.1796  -45.0273   -7.5914 C   0  0  0  0  0  0  0  0  0  0  0  0
  -18.9356  -45.6877   -6.5081 O   0  0  0  0  0  0  0  0  0  0  0  0
  -18.1212  -44.2707   -8.1255 N   0  0  0  0  0  0  0  0  0  0  0  0
  -16.8519  -44.9554   -8.4707 C   0  0  0  0  0  0  0  0  0  0  0  0
  -18.1023  -42.8331   -8.3745 C   0  0  1  0  0  0  0  0  0  0  0  0
  -19.4560  -42.2603   -8.5820 C   0  0  0  0  0  0  0  0  0  0  0  0
  -17.3400  -42.1612   -7.3060 C   0  0  0  0  0  0  0  0  0  0  0  0
  -16.4962  -42.9051   -6.6704 O   0  0  0  0  0  0  0  0  0  0  0  0
  -17.4015  -40.8426   -6.8860 N   0  0  0  0  0  0  0  0  0  0  0  0
  -13.3875  -36.8740  -11.5370 C   0  0  0  0  0  0  0  0  0  0  0  0
  -13.6217  -35.9225  -12.5268 C   0  0  0  0  0  0  0  0  0  0  0  0
  -14.9025  -35.6294  -12.9058 C   0  0  0  0  0  0  0  0  0  0  0  0
  -11.9927  -37.1645  -11.1551 C   0  0  0  0  0  0  0  0  0  0  0  0
  -11.5504  -36.2160  -10.2247 F   0  0  0  0  0  0  0  0  0  0  0  0
  -11.1108  -37.1205  -12.2001 F   0  0  0  0  0  0  0  0  0  0  0  0
  -11.9791  -38.3751  -10.4813 F   0  0  0  0  0  0  0  0  0  0  0  0
  1  2  1  0
  2  3  1  0
  3  4  1  0
  4  5  2  0
  5  6  1  0
  6  7  1  0
  7  8  1  0
  8  9  1  0
  9 10  1  0
 10 11  1  6
 10 12  1  0
 12 13  1  1
 13 14  1  0
 14 15  1  1
 14 16  1  0
 16 17  1  0
 17 18  1  0
 18 19  1  0
 19 20  1  0
 20 21  1  0
 21 22  1  0
 22 23  1  0
 23 24  1  0
 24 25  2  0
 24 26  1  0
 26 27  1  0
 26 28  1  0
 28 29  1  1
 28 30  1  0
 30 31  2  0
 30 32  1  0
  6 33  2  0
 33 34  1  0
 34 35  2  0
 33 36  1  0
 36 37  1  0
 36 38  1  0
 36 39  1  0
 32 12  1  0
 35  4  1  0
M  END
$$$$
