
     RDKit          3D

 39 40  0  0  0  0  0  0  0  0999 V2000
  -14.0380  -45.9940  -11.1456 C   0  0  0  0  0  0  0  0  0  0  0  0
  -14.0000  -44.6348  -11.7837 C   0  0  0  0  0  0  0  0  0  0  0  0
  -14.1307  -43.5712  -10.8728 O   0  0  0  0  0  0  0  0  0  0  0  0
  -14.0918  -42.2368  -11.2267 C   0  0  0  0  0  0  0  0  0  0  0  0
  -14.1721  -41.1964  -10.3422 C   0  0  0  0  0  0  0  0  0  0  0  0
  -14.1282  -39.8611  -10.7470 C   0  0  0  0  0  0  0  0  0  0  0  0
  -14.2132  -38.7354   -9.8168 C   0  0  0  0  0  0  0  0  0  0  0  0
  -14.1656  -39.1069   -8.4152 N   0  0  0  0  0  0  0  0  0  0  0  0
  -15.4249  -39.7883   -8.1322 C   0  0  0  0  0  0  0  0  0  0  0  0
  -16.2904  -39.0300   -7.1591 C   0  0  1  0  0  0  0  0  0  0  0  0
  -16.1242  -37.6910   -7.3894 O   0  0  0  0  0  0  0  0  0  0  0  0
  -17.7648  -39.3899   -7.3145 C   0  0  2  0  0  0  0  0  0  0  0  0
  -18.6450  -38.2608   -6.8473 C   0  0  0  0  0  0  0  0  0  0  0  0
  -20.0312  -38.2985   -7.4265 C   0  0  2  0  0  0  0  0  0  0  0  0
  -20.5475  -36.8651   -7.5957 C   0  0  0  0  0  0  0  0  0  0  0  0
  -20.9847  -39.0900   -6.5501 C   0  0  0  0  0  0  0  0  0  0  0  0
  -22.1913  -39.5408   -7.3165 C   0  0  0  0  0  0  0  0  0  0  0  0
  -23.2098  -40.2215   -6.4480 C   0  0  0  0  0  0  0  0  0  0  0  0
  -22.7160  -41.4460   -5.7697 C   0  0  0  0  0  0  0  0  0  0  0  0
  -23.1779  -42.7454   -6.4524 C   0  0  0  0  0  0  0  0  0  0  0  0
  -22.3343  -43.8356   -5.8316 C   0  0  0  0  0  0  0  0  0  0  0  0
  -22.1211  -45.0315   -6.6667 C   0  0  0  0  0  0  0  0  0  0  0  0
  -20.9230  -45.0240   -7.5767 C   0  0  0  0  0  0  0  0  0  0  0  0
  -19.6393  -44.7785   -6.8972 C   0  0  0  0  0  0  0  0  0  0  0  0
  -19.5740  -45.2994   -5.7166 O   0  0  0  0  0  0  0  0  0  0  0  0
  -18.5057  -44.0769   -7.3449 N   0  0  0  0  0  0  0  0  0  0  0  0
  -17.2010  -44.7798   -7.3985 C   0  0  0  0  0  0  0  0  0  0  0  0
  -18.4403  -42.6799   -7.7610 C   0  0  1  0  0  0  0  0  0  0  0  0
  -19.7408  -42.1561   -8.2487 C   0  0  0  0  0  0  0  0  0  0  0  0
  -17.8544  -41.8725   -6.6751 C   0  0  0  0  0  0  0  0  0  0  0  0
  -17.1262  -42.5216   -5.8279 O   0  0  0  0  0  0  0  0  0  0  0  0
  -17.9753  -40.5138   -6.4340 N   0  0  0  0  0  0  0  0  0  0  0  0
  -13.9987  -39.6256  -12.0948 C   0  0  0  0  0  0  0  0  0  0  0  0
  -13.9152  -40.6694  -13.0132 C   0  0  0  0  0  0  0  0  0  0  0  0
  -13.9615  -41.9664  -12.5820 C   0  0  0  0  0  0  0  0  0  0  0  0
  -13.9446  -38.2397  -12.5969 C   0  0  0  0  0  0  0  0  0  0  0  0
  -14.1087  -37.3449  -11.5324 F   0  0  0  0  0  0  0  0  0  0  0  0
  -14.9218  -37.9408  -13.5067 F   0  0  0  0  0  0  0  0  0  0  0  0
  -12.6651  -38.0105  -13.0766 F   0  0  0  0  0  0  0  0  0  0  0  0
  1  2  1  0
  2  3  1  0
  3  4  1  0
  4  5  2  0
  5  6  1  0
  6  7  1  0
  7  8  1  0
  8  9  1  0
  9 10  1  0
 10 11  1  6
 10 12  1  0
 12 13  1  1
 13 14  1  0
 14 15  1  1
 14 16  1  0
 16 17  1  0
 17 18  1  0
 18 19  1  0
 19 20  1  0
 20 21  1  0
 21 22  1  0
 22 23  1  0
 23 24  1  0
 24 25  2  0
 24 26  1  0
 26 27  1  0
 26 28  1  0
 28 29  1  1
 28 30  1  0
 30 31  2  0
 30 32  1  0
  6 33  2  0
 33 34  1  0
 34 35  2  0
 33 36  1  0
 36 37  1  0
 36 38  1  0
 36 39  1  0
 32 12  1  0
 35  4  1  0
M  END
$$$$
