
     RDKit          3D

 39 40  0  0  0  0  0  0  0  0999 V2000
  -23.8831  -40.3266   -5.6348 C   0  0  0  0  0  0  0  0  0  0  0  0
  -23.4682  -39.6294   -6.8988 C   0  0  0  0  0  0  0  0  0  0  0  0
  -22.1448  -39.1537   -6.8820 O   0  0  0  0  0  0  0  0  0  0  0  0
  -21.5061  -38.5967   -7.9724 C   0  0  0  0  0  0  0  0  0  0  0  0
  -20.2121  -38.1533   -7.9714 C   0  0  0  0  0  0  0  0  0  0  0  0
  -19.6077  -37.5963   -9.0998 C   0  0  0  0  0  0  0  0  0  0  0  0
  -18.2261  -37.1162   -9.1180 C   0  0  0  0  0  0  0  0  0  0  0  0
  -17.4315  -37.5233   -7.9745 N   0  0  0  0  0  0  0  0  0  0  0  0
  -16.4346  -38.4594   -8.4845 C   0  0  0  0  0  0  0  0  0  0  0  0
  -16.0407  -39.5002   -7.4683 C   0  0  1  0  0  0  0  0  0  0  0  0
  -17.1619  -39.8703   -6.7758 O   0  0  0  0  0  0  0  0  0  0  0  0
  -15.4259  -40.7305   -8.1284 C   0  0  2  0  0  0  0  0  0  0  0  0
  -14.4591  -40.3314   -9.2120 C   0  0  0  0  0  0  0  0  0  0  0  0
  -13.4511  -41.3961   -9.5417 C   0  0  2  0  0  0  0  0  0  0  0  0
  -12.1349  -40.7330   -9.9633 C   0  0  0  0  0  0  0  0  0  0  0  0
  -13.9436  -42.3129  -10.6466 C   0  0  0  0  0  0  0  0  0  0  0  0
  -13.2061  -43.6178  -10.6490 C   0  0  0  0  0  0  0  0  0  0  0  0
  -13.5864  -44.4975  -11.8049 C   0  0  0  0  0  0  0  0  0  0  0  0
  -15.0212  -44.8765  -11.8400 C   0  0  0  0  0  0  0  0  0  0  0  0
  -15.2842  -46.3031  -11.3269 C   0  0  0  0  0  0  0  0  0  0  0  0
  -16.7821  -46.3821  -11.1390 C   0  0  0  0  0  0  0  0  0  0  0  0
  -17.2491  -47.3544  -10.1343 C   0  0  0  0  0  0  0  0  0  0  0  0
  -17.3899  -46.8606   -8.7201 C   0  0  0  0  0  0  0  0  0  0  0  0
  -18.2587  -45.6810   -8.5668 C   0  0  0  0  0  0  0  0  0  0  0  0
  -19.2657  -45.6748   -9.3764 O   0  0  0  0  0  0  0  0  0  0  0  0
  -18.1476  -44.5921   -7.6838 N   0  0  0  0  0  0  0  0  0  0  0  0
  -19.2717  -44.2970   -6.7627 C   0  0  0  0  0  0  0  0  0  0  0  0
  -17.0297  -43.6617   -7.5669 C   0  0  1  0  0  0  0  0  0  0  0  0
  -15.7406  -44.2403   -8.0218 C   0  0  0  0  0  0  0  0  0  0  0  0
  -17.3735  -42.3961   -8.2411 C   0  0  0  0  0  0  0  0  0  0  0  0
  -18.6367  -42.1632   -8.3799 O   0  0  0  0  0  0  0  0  0  0  0  0
  -16.5316  -41.4202   -8.7486 N   0  0  0  0  0  0  0  0  0  0  0  0
  -20.3769  -37.5079  -10.2353 C   0  0  0  0  0  0  0  0  0  0  0  0
  -21.6966  -37.9529  -10.2591 C   0  0  0  0  0  0  0  0  0  0  0  0
  -22.2574  -38.4937   -9.1352 C   0  0  0  0  0  0  0  0  0  0  0  0
  -19.8058  -36.9312  -11.4669 C   0  0  0  0  0  0  0  0  0  0  0  0
  -18.6532  -36.1996  -11.1555 F   0  0  0  0  0  0  0  0  0  0  0  0
  -20.6461  -36.0694  -12.1173 F   0  0  0  0  0  0  0  0  0  0  0  0
  -19.3732  -37.9772  -12.2659 F   0  0  0  0  0  0  0  0  0  0  0  0
  1  2  1  0
  2  3  1  0
  3  4  1  0
  4  5  2  0
  5  6  1  0
  6  7  1  0
  7  8  1  0
  8  9  1  0
  9 10  1  0
 10 11  1  6
 10 12  1  0
 12 13  1  6
 13 14  1  0
 14 15  1  6
 14 16  1  0
 16 17  1  0
 17 18  1  0
 18 19  1  0
 19 20  1  0
 20 21  1  0
 21 22  1  0
 22 23  1  0
 23 24  1  0
 24 25  2  0
 24 26  1  0
 26 27  1  0
 26 28  1  0
 28 29  1  6
 28 30  1  0
 30 31  2  0
 30 32  1  0
  6 33  2  0
 33 34  1  0
 34 35  2  0
 33 36  1  0
 36 37  1  0
 36 38  1  0
 36 39  1  0
 32 12  1  0
 35  4  1  0
M  END
$$$$
