
     RDKit          3D

 40 43  0  0  0  0  0  0  0  0999 V2000
  -15.3085  -35.0900  -13.7570 C   0  0  0  0  0  0  0  0  0  0  0  0
  -14.1097  -35.3570  -12.8914 C   0  0  0  0  0  0  0  0  0  0  0  0
  -14.1797  -34.4216  -11.6789 C   0  0  0  0  0  0  0  0  0  0  0  0
  -14.0090  -36.7669  -12.4677 C   0  0  0  0  0  0  0  0  0  0  0  0
  -13.6040  -37.1714  -11.2142 C   0  0  0  0  0  0  0  0  0  0  0  0
  -13.5164  -38.4844  -10.8367 C   0  0  0  0  0  0  0  0  0  0  0  0
  -13.0675  -38.8529   -9.4543 C   0  0  0  0  0  0  0  0  0  0  0  0
  -14.1045  -39.6040   -8.7528 N   0  0  0  0  0  0  0  0  0  0  0  0
  -15.3810  -38.9674   -8.8537 C   0  0  0  0  0  0  0  0  0  0  0  0
  -16.1447  -38.8408   -7.5769 C   0  0  1  0  0  0  0  0  0  0  0  0
  -16.6285  -37.5377   -7.4792 O   0  0  0  0  0  0  0  0  0  0  0  0
  -17.2292  -39.8698   -7.3750 C   0  0  2  0  0  0  0  0  0  0  0  0
  -18.1448  -39.4136   -6.2693 C   0  0  0  0  0  0  0  0  0  0  0  0
  -19.5065  -39.0419   -6.8199 C   0  0  2  0  0  0  0  0  0  0  0  0
  -20.2735  -38.2112   -5.8145 C   0  0  0  0  0  0  0  0  0  0  0  0
  -21.6993  -38.3529   -6.2967 C   0  0  0  0  0  0  0  0  0  0  0  0
  -21.7855  -39.8048   -6.6782 C   0  0  2  0  0  0  0  0  0  0  0  0
  -22.5212  -40.6420   -5.6423 C   0  0  0  0  0  0  0  0  0  0  0  0
  -23.3893  -41.6557   -6.2864 C   0  0  0  0  0  0  0  0  0  0  0  0
  -22.7421  -42.8519   -6.8611 C   0  0  0  0  0  0  0  0  0  0  0  0
  -22.5152  -44.0022   -5.9165 C   0  0  0  0  0  0  0  0  0  0  0  0
  -21.8626  -45.1189   -6.7039 C   0  0  0  0  0  0  0  0  0  0  0  0
  -21.2277  -44.6470   -7.9134 N   0  0  0  0  0  0  0  0  0  0  0  0
  -19.9000  -44.2222   -8.2049 C   0  0  0  0  0  0  0  0  0  0  0  0
  -19.4900  -44.7275   -9.4714 C   0  0  0  0  0  0  0  0  0  0  0  0
  -18.2785  -44.4860  -10.0448 C   0  0  0  0  0  0  0  0  0  0  0  0
  -17.4353  -43.6979   -9.3130 C   0  0  0  0  0  0  0  0  0  0  0  0
  -17.7713  -43.1560   -8.0447 C   0  0  0  0  0  0  0  0  0  0  0  0
  -19.0070  -43.4331   -7.5122 C   0  0  0  0  0  0  0  0  0  0  0  0
  -16.6413  -42.3543   -7.5592 C   0  0  0  0  0  0  0  0  0  0  0  0
  -15.4142  -42.8306   -7.7143 O   0  0  0  0  0  0  0  0  0  0  0  0
  -16.5811  -41.0892   -6.9179 N   0  0  0  0  0  0  0  0  0  0  0  0
  -17.9224  -45.0502  -11.3704 C   0  0  0  0  0  0  0  0  0  0  0  0
  -18.9308  -44.6393  -12.2482 F   0  0  0  0  0  0  0  0  0  0  0  0
  -17.8540  -46.4162  -11.3245 F   0  0  0  0  0  0  0  0  0  0  0  0
  -16.7709  -44.4503  -11.7848 F   0  0  0  0  0  0  0  0  0  0  0  0
  -20.3661  -40.2909   -6.8624 C   0  0  0  0  0  0  0  0  0  0  0  0
  -13.8505  -39.4635  -11.7568 C   0  0  0  0  0  0  0  0  0  0  0  0
  -14.2589  -39.0926  -13.0177 C   0  0  0  0  0  0  0  0  0  0  0  0
  -14.3366  -37.7613  -13.3672 C   0  0  0  0  0  0  0  0  0  0  0  0
  1  2  1  0
  2  3  1  0
  2  4  1  0
  4  5  2  0
  5  6  1  0
  6  7  1  0
  7  8  1  0
  8  9  1  0
  9 10  1  0
 10 11  1  6
 10 12  1  0
 12 13  1  1
 14 13  1  1
 14 15  1  0
 15 16  1  0
 17 16  1  1
 17 18  1  0
 18 19  1  0
 19 20  1  0
 20 21  1  0
 21 22  1  0
 22 23  1  0
 23 24  1  0
 24 25  2  0
 25 26  1  0
 26 27  2  0
 27 28  1  0
 28 29  2  0
 28 30  1  0
 30 31  2  0
 30 32  1  0
 26 33  1  0
 33 34  1  0
 33 35  1  0
 33 36  1  0
 17 37  1  0
  6 38  2  0
 38 39  1  0
 39 40  2  0
 29 24  1  0
 32 12  1  0
 37 14  1  0
 40  4  1  0
M  END
$$$$
