
     RDKit          3D

 40 43  0  0  0  0  0  0  0  0999 V2000
  -15.7801  -35.8587  -12.2125 C   0  0  0  0  0  0  0  0  0  0  0  0
  -14.3853  -36.0035  -12.7524 C   0  0  0  0  0  0  0  0  0  0  0  0
  -13.5190  -34.8986  -12.1370 C   0  0  0  0  0  0  0  0  0  0  0  0
  -13.8052  -37.3360  -12.4962 C   0  0  0  0  0  0  0  0  0  0  0  0
  -13.7141  -37.9137  -11.2484 C   0  0  0  0  0  0  0  0  0  0  0  0
  -13.1732  -39.1517  -11.0278 C   0  0  0  0  0  0  0  0  0  0  0  0
  -13.1062  -39.7194   -9.6416 C   0  0  0  0  0  0  0  0  0  0  0  0
  -13.6350  -38.7719   -8.6646 N   0  0  0  0  0  0  0  0  0  0  0  0
  -15.0501  -38.6113   -8.7933 C   0  0  0  0  0  0  0  0  0  0  0  0
  -15.8021  -38.4429   -7.5144 C   0  0  1  0  0  0  0  0  0  0  0  0
  -16.2986  -37.1420   -7.4621 O   0  0  0  0  0  0  0  0  0  0  0  0
  -16.8736  -39.4743   -7.2614 C   0  0  2  0  0  0  0  0  0  0  0  0
  -17.7246  -39.0295   -6.1008 C   0  0  0  0  0  0  0  0  0  0  0  0
  -19.1154  -38.6528   -6.5691 C   0  0  2  0  0  0  0  0  0  0  0  0
  -19.8236  -37.8324   -5.5133 C   0  0  0  0  0  0  0  0  0  0  0  0
  -21.2746  -37.9698   -5.9149 C   0  0  0  0  0  0  0  0  0  0  0  0
  -21.3828  -39.4178   -6.3055 C   0  0  2  0  0  0  0  0  0  0  0  0
  -22.0585  -40.2656   -5.2378 C   0  0  0  0  0  0  0  0  0  0  0  0
  -22.9621  -41.2730   -5.8416 C   0  0  0  0  0  0  0  0  0  0  0  0
  -22.3490  -42.4631   -6.4642 C   0  0  0  0  0  0  0  0  0  0  0  0
  -22.0689  -43.6229   -5.5458 C   0  0  0  0  0  0  0  0  0  0  0  0
  -21.4626  -44.7313   -6.3803 C   0  0  0  0  0  0  0  0  0  0  0  0
  -20.8975  -44.2471   -7.6192 N   0  0  0  0  0  0  0  0  0  0  0  0
  -19.5885  -43.8189   -7.9816 C   0  0  0  0  0  0  0  0  0  0  0  0
  -19.2514  -44.3113   -9.2744 C   0  0  0  0  0  0  0  0  0  0  0  0
  -18.0745  -44.0637   -9.9135 C   0  0  0  0  0  0  0  0  0  0  0  0
  -17.1908  -43.2827   -9.2230 C   0  0  0  0  0  0  0  0  0  0  0  0
  -17.4538  -42.7537   -7.9322 C   0  0  0  0  0  0  0  0  0  0  0  0
  -18.6573  -43.0366   -7.3330 C   0  0  0  0  0  0  0  0  0  0  0  0
  -16.2977  -41.9566   -7.5039 C   0  0  0  0  0  0  0  0  0  0  0  0
  -15.0816  -42.4309   -7.7334 O   0  0  0  0  0  0  0  0  0  0  0  0
  -16.2008  -40.6980   -6.8542 N   0  0  0  0  0  0  0  0  0  0  0  0
  -17.7946  -44.6144  -11.2628 C   0  0  0  0  0  0  0  0  0  0  0  0
  -17.8689  -46.0053  -11.1349 F   0  0  0  0  0  0  0  0  0  0  0  0
  -16.5544  -44.2390  -11.7029 F   0  0  0  0  0  0  0  0  0  0  0  0
  -18.8131  -44.2397  -12.0872 F   0  0  0  0  0  0  0  0  0  0  0  0
  -19.9763  -39.9015   -6.5751 C   0  0  0  0  0  0  0  0  0  0  0  0
  -12.6898  -39.8676  -12.1098 C   0  0  0  0  0  0  0  0  0  0  0  0
  -12.7658  -39.3186  -13.3696 C   0  0  0  0  0  0  0  0  0  0  0  0
  -13.3165  -38.0690  -13.5588 C   0  0  0  0  0  0  0  0  0  0  0  0
  1  2  1  0
  2  3  1  0
  2  4  1  0
  4  5  2  0
  5  6  1  0
  6  7  1  0
  7  8  1  0
  8  9  1  0
  9 10  1  0
 10 11  1  6
 10 12  1  0
 12 13  1  1
 14 13  1  1
 14 15  1  0
 15 16  1  0
 17 16  1  1
 17 18  1  0
 18 19  1  0
 19 20  1  0
 20 21  1  0
 21 22  1  0
 22 23  1  0
 23 24  1  0
 24 25  2  0
 25 26  1  0
 26 27  2  0
 27 28  1  0
 28 29  2  0
 28 30  1  0
 30 31  2  0
 30 32  1  0
 26 33  1  0
 33 34  1  0
 33 35  1  0
 33 36  1  0
 17 37  1  0
  6 38  2  0
 38 39  1  0
 39 40  2  0
 29 24  1  0
 32 12  1  0
 37 14  1  0
 40  4  1  0
M  END
$$$$
