
     RDKit          3D

 40 43  0  0  0  0  0  0  0  0999 V2000
  -23.8134  -36.7792   -8.5696 C   0  0  0  0  0  0  0  0  0  0  0  0
  -23.4541  -38.2237   -8.7751 C   0  0  0  0  0  0  0  0  0  0  0  0
  -23.2037  -38.4443  -10.2713 C   0  0  0  0  0  0  0  0  0  0  0  0
  -22.2880  -38.6455   -7.9750 C   0  0  0  0  0  0  0  0  0  0  0  0
  -21.0797  -37.9834   -7.9594 C   0  0  0  0  0  0  0  0  0  0  0  0
  -20.0073  -38.3878   -7.2108 C   0  0  0  0  0  0  0  0  0  0  0  0
  -18.7208  -37.6182   -7.2421 C   0  0  0  0  0  0  0  0  0  0  0  0
  -17.8317  -38.0458   -6.1658 N   0  0  0  0  0  0  0  0  0  0  0  0
  -17.4485  -39.4162   -6.3070 C   0  0  0  0  0  0  0  0  0  0  0  0
  -16.3081  -39.6779   -7.2347 C   0  0  1  0  0  0  0  0  0  0  0  0
  -15.1596  -39.8885   -6.4742 O   0  0  0  0  0  0  0  0  0  0  0  0
  -16.5393  -40.7803   -8.2382 C   0  0  2  0  0  0  0  0  0  0  0  0
  -16.2758  -40.2516   -9.6239 C   0  0  0  0  0  0  0  0  0  0  0  0
  -15.0240  -40.8755  -10.2066 C   0  0  2  0  0  0  0  0  0  0  0  0
  -14.5320  -40.0672  -11.3872 C   0  0  0  0  0  0  0  0  0  0  0  0
  -13.6342  -41.0510  -12.1024 C   0  0  0  0  0  0  0  0  0  0  0  0
  -14.4050  -42.3391  -12.0150 C   0  0  2  0  0  0  0  0  0  0  0  0
  -15.0968  -42.6999  -13.3214 C   0  0  0  0  0  0  0  0  0  0  0  0
  -15.0197  -44.1555  -13.5880 C   0  0  0  0  0  0  0  0  0  0  0  0
  -15.9106  -45.0452  -12.8169 C   0  0  0  0  0  0  0  0  0  0  0  0
  -17.2875  -45.2616  -13.3863 C   0  0  0  0  0  0  0  0  0  0  0  0
  -18.0225  -46.2071  -12.4598 C   0  0  0  0  0  0  0  0  0  0  0  0
  -17.4445  -46.2470  -11.1358 N   0  0  0  0  0  0  0  0  0  0  0  0
  -17.7167  -45.5217   -9.9407 C   0  0  0  0  0  0  0  0  0  0  0  0
  -17.6660  -46.3928   -8.8155 C   0  0  0  0  0  0  0  0  0  0  0  0
  -17.8653  -46.0027   -7.5260 C   0  0  0  0  0  0  0  0  0  0  0  0
  -18.1277  -44.6725   -7.3547 C   0  0  0  0  0  0  0  0  0  0  0  0
  -18.1935  -43.7418   -8.4246 C   0  0  0  0  0  0  0  0  0  0  0  0
  -17.9860  -44.1903   -9.7065 C   0  0  0  0  0  0  0  0  0  0  0  0
  -18.4793  -42.4105   -7.8756 C   0  0  0  0  0  0  0  0  0  0  0  0
  -19.3869  -42.3029   -6.9159 O   0  0  0  0  0  0  0  0  0  0  0  0
  -17.9505  -41.1272   -8.1740 N   0  0  0  0  0  0  0  0  0  0  0  0
  -17.7978  -46.9716   -6.4041 C   0  0  0  0  0  0  0  0  0  0  0  0
  -17.2406  -48.1393   -6.9356 F   0  0  0  0  0  0  0  0  0  0  0  0
  -19.0417  -47.2238   -5.8925 F   0  0  0  0  0  0  0  0  0  0  0  0
  -16.9083  -46.4918   -5.4897 F   0  0  0  0  0  0  0  0  0  0  0  0
  -15.4077  -42.1706  -10.8966 C   0  0  0  0  0  0  0  0  0  0  0  0
  -20.1353  -39.5207   -6.4253 C   0  0  0  0  0  0  0  0  0  0  0  0
  -21.3294  -40.2050   -6.4186 C   0  0  0  0  0  0  0  0  0  0  0  0
  -22.3910  -39.7719   -7.1840 C   0  0  0  0  0  0  0  0  0  0  0  0
  1  2  1  0
  2  3  1  0
  2  4  1  0
  4  5  2  0
  5  6  1  0
  6  7  1  0
  7  8  1  0
  8  9  1  0
  9 10  1  0
 10 11  1  1
 10 12  1  0
 12 13  1  6
 14 13  1  6
 14 15  1  0
 15 16  1  0
 17 16  1  6
 17 18  1  0
 18 19  1  0
 19 20  1  0
 20 21  1  0
 21 22  1  0
 22 23  1  0
 23 24  1  0
 24 25  2  0
 25 26  1  0
 26 27  2  0
 27 28  1  0
 28 29  2  0
 28 30  1  0
 30 31  2  0
 30 32  1  0
 26 33  1  0
 33 34  1  0
 33 35  1  0
 33 36  1  0
 17 37  1  0
  6 38  2  0
 38 39  1  0
 39 40  2  0
 29 24  1  0
 32 12  1  0
 37 14  1  0
 40  4  1  0
M  END
$$$$
