
     RDKit          3D

 40 43  0  0  0  0  0  0  0  0999 V2000
  -13.1527  -34.2806  -11.7389 C   0  0  0  0  0  0  0  0  0  0  0  0
  -13.3816  -35.2116  -12.8959 C   0  0  0  0  0  0  0  0  0  0  0  0
  -12.2102  -35.0553  -13.8723 C   0  0  0  0  0  0  0  0  0  0  0  0
  -13.5398  -36.6184  -12.4792 C   0  0  0  0  0  0  0  0  0  0  0  0
  -13.2973  -37.0798  -11.2036 C   0  0  0  0  0  0  0  0  0  0  0  0
  -13.4495  -38.3888  -10.8331 C   0  0  0  0  0  0  0  0  0  0  0  0
  -13.1673  -38.8214   -9.4253 C   0  0  0  0  0  0  0  0  0  0  0  0
  -14.3170  -39.5168   -8.8538 N   0  0  0  0  0  0  0  0  0  0  0  0
  -15.5280  -38.7786   -9.0361 C   0  0  0  0  0  0  0  0  0  0  0  0
  -16.3365  -38.5450   -7.8027 C   0  0  1  0  0  0  0  0  0  0  0  0
  -17.0413  -37.3528   -7.9559 O   0  0  0  0  0  0  0  0  0  0  0  0
  -17.2311  -39.6900   -7.3973 C   0  0  2  0  0  0  0  0  0  0  0  0
  -18.0953  -39.2578   -6.2417 C   0  0  0  0  0  0  0  0  0  0  0  0
  -19.5434  -39.1370   -6.6711 C   0  0  2  0  0  0  0  0  0  0  0  0
  -20.3268  -38.3251   -5.6629 C   0  0  0  0  0  0  0  0  0  0  0  0
  -21.7547  -38.7123   -5.9737 C   0  0  0  0  0  0  0  0  0  0  0  0
  -21.6591  -40.1928   -6.2185 C   0  0  2  0  0  0  0  0  0  0  0  0
  -22.1599  -41.0167   -5.0413 C   0  0  0  0  0  0  0  0  0  0  0  0
  -22.9242  -42.2010   -5.4987 C   0  0  0  0  0  0  0  0  0  0  0  0
  -22.1633  -43.3464   -6.0362 C   0  0  0  0  0  0  0  0  0  0  0  0
  -21.6786  -44.3534   -5.0272 C   0  0  0  0  0  0  0  0  0  0  0  0
  -20.9445  -45.4411   -5.7827 C   0  0  0  0  0  0  0  0  0  0  0  0
  -20.5049  -45.0086   -7.0897 N   0  0  0  0  0  0  0  0  0  0  0  0
  -19.2892  -44.4338   -7.5587 C   0  0  0  0  0  0  0  0  0  0  0  0
  -18.9305  -45.0010   -8.8145 C   0  0  0  0  0  0  0  0  0  0  0  0
  -17.8286  -44.6513   -9.5344 C   0  0  0  0  0  0  0  0  0  0  0  0
  -17.0468  -43.6839   -8.9683 C   0  0  0  0  0  0  0  0  0  0  0  0
  -17.3379  -43.0700   -7.7218 C   0  0  0  0  0  0  0  0  0  0  0  0
  -18.4622  -43.4624   -7.0367 C   0  0  0  0  0  0  0  0  0  0  0  0
  -16.2992  -42.0738   -7.4319 C   0  0  0  0  0  0  0  0  0  0  0  0
  -15.0351  -42.3871   -7.6779 O   0  0  0  0  0  0  0  0  0  0  0  0
  -16.3678  -40.7550   -6.9110 N   0  0  0  0  0  0  0  0  0  0  0  0
  -17.5197  -45.2899  -10.8378 C   0  0  0  0  0  0  0  0  0  0  0  0
  -18.7508  -45.4894  -11.4712 F   0  0  0  0  0  0  0  0  0  0  0  0
  -16.8716  -46.4825  -10.6633 F   0  0  0  0  0  0  0  0  0  0  0  0
  -16.8301  -44.3886  -11.5925 F   0  0  0  0  0  0  0  0  0  0  0  0
  -20.2070  -40.4917   -6.5135 C   0  0  0  0  0  0  0  0  0  0  0  0
  -13.8686  -39.3036  -11.7840 C   0  0  0  0  0  0  0  0  0  0  0  0
  -14.1192  -38.8749  -13.0676 C   0  0  0  0  0  0  0  0  0  0  0  0
  -13.9565  -37.5493  -13.4093 C   0  0  0  0  0  0  0  0  0  0  0  0
  1  2  1  0
  2  3  1  0
  2  4  1  0
  4  5  2  0
  5  6  1  0
  6  7  1  0
  7  8  1  0
  8  9  1  0
  9 10  1  0
 10 11  1  6
 10 12  1  0
 12 13  1  1
 14 13  1  1
 14 15  1  0
 15 16  1  0
 17 16  1  1
 17 18  1  0
 18 19  1  0
 19 20  1  0
 20 21  1  0
 21 22  1  0
 22 23  1  0
 23 24  1  0
 24 25  2  0
 25 26  1  0
 26 27  2  0
 27 28  1  0
 28 29  2  0
 28 30  1  0
 30 31  2  0
 30 32  1  0
 26 33  1  0
 33 34  1  0
 33 35  1  0
 33 36  1  0
 17 37  1  0
  6 38  2  0
 38 39  1  0
 39 40  2  0
 29 24  1  0
 32 12  1  0
 37 14  1  0
 40  4  1  0
M  END
$$$$
