
     RDKit          3D

 40 43  0  0  0  0  0  0  0  0999 V2000
  -11.2137  -37.2476  -14.0303 C   0  0  0  0  0  0  0  0  0  0  0  0
  -12.1585  -36.1406  -13.6563 C   0  0  0  0  0  0  0  0  0  0  0  0
  -12.7105  -35.5284  -14.9488 C   0  0  0  0  0  0  0  0  0  0  0  0
  -13.2523  -36.5918  -12.7745 C   0  0  0  0  0  0  0  0  0  0  0  0
  -13.0662  -37.3301  -11.6261 C   0  0  0  0  0  0  0  0  0  0  0  0
  -14.0924  -37.7405  -10.8183 C   0  0  0  0  0  0  0  0  0  0  0  0
  -13.8166  -38.5426   -9.5818 C   0  0  0  0  0  0  0  0  0  0  0  0
  -14.3252  -37.8612   -8.3948 N   0  0  0  0  0  0  0  0  0  0  0  0
  -15.7285  -38.0742   -8.2211 C   0  0  0  0  0  0  0  0  0  0  0  0
  -16.2739  -39.3253   -8.8268 C   0  0  1  0  0  0  0  0  0  0  0  0
  -15.2130  -40.1927   -9.0789 O   0  0  0  0  0  0  0  0  0  0  0  0
  -17.3795  -39.9871   -8.0423 C   0  0  2  0  0  0  0  0  0  0  0  0
  -18.1121  -38.9426   -7.2416 C   0  0  0  0  0  0  0  0  0  0  0  0
  -19.5112  -38.7345   -7.7846 C   0  0  2  0  0  0  0  0  0  0  0  0
  -20.0885  -37.4336   -7.2712 C   0  0  0  0  0  0  0  0  0  0  0  0
  -21.5715  -37.6272   -7.4917 C   0  0  0  0  0  0  0  0  0  0  0  0
  -21.7913  -39.0574   -7.0826 C   0  0  2  0  0  0  0  0  0  0  0  0
  -22.4298  -39.1838   -5.7073 C   0  0  0  0  0  0  0  0  0  0  0  0
  -23.4329  -40.2742   -5.6769 C   0  0  0  0  0  0  0  0  0  0  0  0
  -22.9379  -41.6642   -5.6258 C   0  0  0  0  0  0  0  0  0  0  0  0
  -22.6542  -42.2178   -4.2547 C   0  0  0  0  0  0  0  0  0  0  0  0
  -22.1776  -43.6447   -4.4269 C   0  0  0  0  0  0  0  0  0  0  0  0
  -21.6830  -43.9072   -5.7592 N   0  0  0  0  0  0  0  0  0  0  0  0
  -20.3836  -43.8389   -6.3381 C   0  0  0  0  0  0  0  0  0  0  0  0
  -20.1754  -44.9461   -7.2089 C   0  0  0  0  0  0  0  0  0  0  0  0
  -19.0390  -45.1612   -7.9279 C   0  0  0  0  0  0  0  0  0  0  0  0
  -18.0619  -44.2193   -7.7674 C   0  0  0  0  0  0  0  0  0  0  0  0
  -18.1945  -43.0882   -6.9198 C   0  0  0  0  0  0  0  0  0  0  0  0
  -19.3624  -42.9212   -6.2159 C   0  0  0  0  0  0  0  0  0  0  0  0
  -16.9656  -42.2893   -7.0027 C   0  0  0  0  0  0  0  0  0  0  0  0
  -15.7996  -42.9194   -7.0025 O   0  0  0  0  0  0  0  0  0  0  0  0
  -16.7478  -40.8893   -7.0921 N   0  0  0  0  0  0  0  0  0  0  0  0
  -18.8954  -46.3420   -8.8153 C   0  0  0  0  0  0  0  0  0  0  0  0
  -17.5472  -46.3846   -9.1857 F   0  0  0  0  0  0  0  0  0  0  0  0
  -19.6932  -46.2296   -9.9214 F   0  0  0  0  0  0  0  0  0  0  0  0
  -19.1342  -47.4574   -8.0695 F   0  0  0  0  0  0  0  0  0  0  0  0
  -20.4394  -39.7326   -7.1192 C   0  0  0  0  0  0  0  0  0  0  0  0
  -15.3884  -37.4001  -11.1666 C   0  0  0  0  0  0  0  0  0  0  0  0
  -15.6084  -36.6632  -12.3080 C   0  0  0  0  0  0  0  0  0  0  0  0
  -14.5531  -36.2649  -13.1006 C   0  0  0  0  0  0  0  0  0  0  0  0
  1  2  1  0
  2  3  1  0
  2  4  1  0
  4  5  2  0
  5  6  1  0
  6  7  1  0
  7  8  1  0
  8  9  1  0
  9 10  1  0
 10 11  1  1
 10 12  1  0
 12 13  1  1
 14 13  1  1
 14 15  1  0
 15 16  1  0
 17 16  1  1
 17 18  1  0
 18 19  1  0
 19 20  1  0
 20 21  1  0
 21 22  1  0
 22 23  1  0
 23 24  1  0
 24 25  2  0
 25 26  1  0
 26 27  2  0
 27 28  1  0
 28 29  2  0
 28 30  1  0
 30 31  2  0
 30 32  1  0
 26 33  1  0
 33 34  1  0
 33 35  1  0
 33 36  1  0
 17 37  1  0
  6 38  2  0
 38 39  1  0
 39 40  2  0
 29 24  1  0
 32 12  1  0
 37 14  1  0
 40  4  1  0
M  END
$$$$
