
     RDKit          3D

 40 43  0  0  0  0  0  0  0  0999 V2000
  -12.2482  -34.1506  -11.3453 C   0  0  0  0  0  0  0  0  0  0  0  0
  -13.6037  -34.6877  -11.7086 C   0  0  0  0  0  0  0  0  0  0  0  0
  -14.0494  -34.0148  -13.0118 C   0  0  0  0  0  0  0  0  0  0  0  0
  -13.6240  -36.1577  -11.8376 C   0  0  0  0  0  0  0  0  0  0  0  0
  -13.3793  -37.0293  -10.7988 C   0  0  0  0  0  0  0  0  0  0  0  0
  -13.4025  -38.3913  -10.9352 C   0  0  0  0  0  0  0  0  0  0  0  0
  -13.1263  -39.2809   -9.7602 C   0  0  0  0  0  0  0  0  0  0  0  0
  -14.3290  -40.0074   -9.3630 N   0  0  0  0  0  0  0  0  0  0  0  0
  -15.4573  -39.1378   -9.2385 C   0  0  0  0  0  0  0  0  0  0  0  0
  -15.9132  -38.8635   -7.8433 C   0  0  1  0  0  0  0  0  0  0  0  0
  -16.2399  -37.5126   -7.7432 O   0  0  0  0  0  0  0  0  0  0  0  0
  -17.0206  -39.7580   -7.3441 C   0  0  2  0  0  0  0  0  0  0  0  0
  -17.7425  -39.0694   -6.2156 C   0  0  0  0  0  0  0  0  0  0  0  0
  -19.1421  -38.6716   -6.6381 C   0  0  2  0  0  0  0  0  0  0  0  0
  -19.7079  -37.6409   -5.6858 C   0  0  0  0  0  0  0  0  0  0  0  0
  -21.1931  -37.7338   -5.9523 C   0  0  0  0  0  0  0  0  0  0  0  0
  -21.4218  -39.2139   -6.0862 C   0  0  2  0  0  0  0  0  0  0  0  0
  -22.0561  -39.8252   -4.8455 C   0  0  0  0  0  0  0  0  0  0  0  0
  -23.0669  -40.8474   -5.2050 C   0  0  0  0  0  0  0  0  0  0  0  0
  -22.5820  -42.1647   -5.6626 C   0  0  0  0  0  0  0  0  0  0  0  0
  -22.2971  -43.1779   -4.5859 C   0  0  0  0  0  0  0  0  0  0  0  0
  -21.8316  -44.4487   -5.2650 C   0  0  0  0  0  0  0  0  0  0  0  0
  -21.3440  -44.2147   -6.6052 N   0  0  0  0  0  0  0  0  0  0  0  0
  -20.0463  -43.9489   -7.1282 C   0  0  0  0  0  0  0  0  0  0  0  0
  -19.8495  -44.6678   -8.3415 C   0  0  0  0  0  0  0  0  0  0  0  0
  -18.7174  -44.6148   -9.0967 C   0  0  0  0  0  0  0  0  0  0  0  0
  -17.7329  -43.7999   -8.6127 C   0  0  0  0  0  0  0  0  0  0  0  0
  -17.8540  -43.0508   -7.4129 C   0  0  0  0  0  0  0  0  0  0  0  0
  -19.0180  -43.1430   -6.6890 C   0  0  0  0  0  0  0  0  0  0  0  0
  -16.6196  -42.2826   -7.2091 C   0  0  0  0  0  0  0  0  0  0  0  0
  -15.4582  -42.8765   -7.4437 O   0  0  0  0  0  0  0  0  0  0  0  0
  -16.3919  -40.9461   -6.7880 N   0  0  0  0  0  0  0  0  0  0  0  0
  -18.5858  -45.3959  -10.3516 C   0  0  0  0  0  0  0  0  0  0  0  0
  -17.7332  -44.6570  -11.1784 F   0  0  0  0  0  0  0  0  0  0  0  0
  -19.8018  -45.5738  -10.9535 F   0  0  0  0  0  0  0  0  0  0  0  0
  -17.9377  -46.5576  -10.0553 F   0  0  0  0  0  0  0  0  0  0  0  0
  -20.0751  -39.8376   -6.3726 C   0  0  0  0  0  0  0  0  0  0  0  0
  -13.6857  -38.9292  -12.1791 C   0  0  0  0  0  0  0  0  0  0  0  0
  -13.9346  -38.0856  -13.2377 C   0  0  0  0  0  0  0  0  0  0  0  0
  -13.9038  -36.7179  -13.0677 C   0  0  0  0  0  0  0  0  0  0  0  0
  1  2  1  0
  2  3  1  0
  2  4  1  0
  4  5  2  0
  5  6  1  0
  6  7  1  0
  7  8  1  0
  8  9  1  0
  9 10  1  0
 10 11  1  6
 10 12  1  0
 12 13  1  1
 14 13  1  1
 14 15  1  0
 15 16  1  0
 17 16  1  1
 17 18  1  0
 18 19  1  0
 19 20  1  0
 20 21  1  0
 21 22  1  0
 22 23  1  0
 23 24  1  0
 24 25  2  0
 25 26  1  0
 26 27  2  0
 27 28  1  0
 28 29  2  0
 28 30  1  0
 30 31  2  0
 30 32  1  0
 26 33  1  0
 33 34  1  0
 33 35  1  0
 33 36  1  0
 17 37  1  0
  6 38  2  0
 38 39  1  0
 39 40  2  0
 29 24  1  0
 32 12  1  0
 37 14  1  0
 40  4  1  0
M  END
$$$$
