
     RDKit          3D

 40 43  0  0  0  0  0  0  0  0999 V2000
  -16.7662  -36.1269  -11.8881 C   0  0  0  0  0  0  0  0  0  0  0  0
  -15.2827  -35.9244  -12.0152 C   0  0  0  0  0  0  0  0  0  0  0  0
  -14.8618  -34.8429  -11.0136 C   0  0  0  0  0  0  0  0  0  0  0  0
  -14.5131  -37.1664  -11.8081 C   0  0  0  0  0  0  0  0  0  0  0  0
  -14.3176  -37.7603  -10.5801 C   0  0  0  0  0  0  0  0  0  0  0  0
  -13.6010  -38.9135  -10.4051 C   0  0  0  0  0  0  0  0  0  0  0  0
  -13.4283  -39.5048   -9.0381 C   0  0  0  0  0  0  0  0  0  0  0  0
  -14.1458  -38.7207   -8.0370 N   0  0  0  0  0  0  0  0  0  0  0  0
  -15.5544  -38.7077   -8.2828 C   0  0  0  0  0  0  0  0  0  0  0  0
  -16.4208  -39.0053   -7.1037 C   0  0  1  0  0  0  0  0  0  0  0  0
  -16.6861  -37.8103   -6.4379 O   0  0  0  0  0  0  0  0  0  0  0  0
  -17.6784  -39.7791   -7.4124 C   0  0  2  0  0  0  0  0  0  0  0  0
  -18.2371  -40.3464   -6.1337 C   0  0  0  0  0  0  0  0  0  0  0  0
  -19.5342  -39.6566   -5.7630 C   0  0  2  0  0  0  0  0  0  0  0  0
  -19.8739  -39.9163   -4.3116 C   0  0  0  0  0  0  0  0  0  0  0  0
  -21.3507  -39.5969   -4.2618 C   0  0  0  0  0  0  0  0  0  0  0  0
  -21.8702  -40.1944   -5.5400 C   0  0  2  0  0  0  0  0  0  0  0  0
  -22.6001  -41.5112   -5.3193 C   0  0  0  0  0  0  0  0  0  0  0  0
  -23.7976  -41.6155   -6.1859 C   0  0  0  0  0  0  0  0  0  0  0  0
  -23.5888  -41.9178   -7.6159 C   0  0  0  0  0  0  0  0  0  0  0  0
  -23.4995  -43.3761   -7.9799 C   0  0  0  0  0  0  0  0  0  0  0  0
  -23.3030  -43.4623   -9.4788 C   0  0  0  0  0  0  0  0  0  0  0  0
  -22.7929  -42.2333  -10.0428 N   0  0  0  0  0  0  0  0  0  0  0  0
  -21.4739  -41.7681  -10.3113 C   0  0  0  0  0  0  0  0  0  0  0  0
  -21.4367  -41.0948  -11.5654 C   0  0  0  0  0  0  0  0  0  0  0  0
  -20.3248  -40.5195  -12.1015 C   0  0  0  0  0  0  0  0  0  0  0  0
  -19.1929  -40.6231  -11.3427 C   0  0  0  0  0  0  0  0  0  0  0  0
  -19.1500  -41.2766  -10.0832 C   0  0  0  0  0  0  0  0  0  0  0  0
  -20.3013  -41.8414   -9.5904 C   0  0  0  0  0  0  0  0  0  0  0  0
  -17.7855  -41.1842   -9.5494 C   0  0  0  0  0  0  0  0  0  0  0  0
  -16.7678  -41.3820  -10.3751 O   0  0  0  0  0  0  0  0  0  0  0  0
  -17.2924  -40.9058   -8.2475 N   0  0  0  0  0  0  0  0  0  0  0  0
  -20.3643  -39.8352  -13.4177 C   0  0  0  0  0  0  0  0  0  0  0  0
  -21.1724  -38.7071  -13.2420 F   0  0  0  0  0  0  0  0  0  0  0  0
  -20.8847  -40.6519  -14.3845 F   0  0  0  0  0  0  0  0  0  0  0  0
  -19.1086  -39.3813  -13.6912 F   0  0  0  0  0  0  0  0  0  0  0  0
  -20.6773  -40.3792   -6.4499 C   0  0  0  0  0  0  0  0  0  0  0  0
  -13.0399  -39.5214  -11.5153 C   0  0  0  0  0  0  0  0  0  0  0  0
  -13.2165  -38.9534  -12.7564 C   0  0  0  0  0  0  0  0  0  0  0  0
  -13.9439  -37.7911  -12.8994 C   0  0  0  0  0  0  0  0  0  0  0  0
  1  2  1  0
  2  3  1  0
  2  4  1  0
  4  5  2  0
  5  6  1  0
  6  7  1  0
  7  8  1  0
  8  9  1  0
  9 10  1  0
 10 11  1  6
 10 12  1  0
 12 13  1  1
 14 13  1  6
 14 15  1  0
 15 16  1  0
 17 16  1  1
 17 18  1  0
 18 19  1  0
 19 20  1  0
 20 21  1  0
 21 22  1  0
 22 23  1  0
 23 24  1  0
 24 25  2  0
 25 26  1  0
 26 27  2  0
 27 28  1  0
 28 29  2  0
 28 30  1  0
 30 31  2  0
 30 32  1  0
 26 33  1  0
 33 34  1  0
 33 35  1  0
 33 36  1  0
 17 37  1  0
  6 38  2  0
 38 39  1  0
 39 40  2  0
 29 24  1  0
 32 12  1  0
 37 14  1  0
 40  4  1  0
M  END
$$$$
