
     RDKit          3D

 40 43  0  0  0  0  0  0  0  0999 V2000
  -16.1878  -33.6533  -11.0471 C   0  0  0  0  0  0  0  0  0  0  0  0
  -14.9735  -34.0461  -11.8404 C   0  0  0  0  0  0  0  0  0  0  0  0
  -13.7900  -33.2055  -11.3475 C   0  0  0  0  0  0  0  0  0  0  0  0
  -14.6717  -35.4880  -11.7536 C   0  0  0  0  0  0  0  0  0  0  0  0
  -14.5836  -36.1906  -10.5715 C   0  0  0  0  0  0  0  0  0  0  0  0
  -14.3031  -37.5290  -10.5084 C   0  0  0  0  0  0  0  0  0  0  0  0
  -14.2225  -38.2305   -9.1856 C   0  0  0  0  0  0  0  0  0  0  0  0
  -14.3065  -39.6779   -9.3576 N   0  0  0  0  0  0  0  0  0  0  0  0
  -15.1171  -40.2860   -8.3488 C   0  0  0  0  0  0  0  0  0  0  0  0
  -16.2371  -39.4485   -7.8254 C   0  0  1  0  0  0  0  0  0  0  0  0
  -16.5882  -38.5199   -8.8032 O   0  0  0  0  0  0  0  0  0  0  0  0
  -17.4290  -40.2199   -7.3153 C   0  0  2  0  0  0  0  0  0  0  0  0
  -18.3225  -39.2914   -6.5352 C   0  0  0  0  0  0  0  0  0  0  0  0
  -19.6215  -39.0490   -7.2764 C   0  0  2  0  0  0  0  0  0  0  0  0
  -20.3251  -37.8291   -6.7231 C   0  0  0  0  0  0  0  0  0  0  0  0
  -21.7436  -38.0251   -7.2076 C   0  0  0  0  0  0  0  0  0  0  0  0
  -21.9711  -39.4975   -7.0044 C   0  0  2  0  0  0  0  0  0  0  0  0
  -22.8198  -39.7973   -5.7776 C   0  0  0  0  0  0  0  0  0  0  0  0
  -23.7709  -40.9035   -6.0374 C   0  0  0  0  0  0  0  0  0  0  0  0
  -23.2370  -42.2798   -6.0614 C   0  0  0  0  0  0  0  0  0  0  0  0
  -23.1590  -42.9849   -4.7334 C   0  0  0  0  0  0  0  0  0  0  0  0
  -22.6054  -44.3718   -4.9835 C   0  0  0  0  0  0  0  0  0  0  0  0
  -21.8905  -44.4660   -6.2359 N   0  0  0  0  0  0  0  0  0  0  0  0
  -20.5177  -44.3043   -6.5791 C   0  0  0  0  0  0  0  0  0  0  0  0
  -20.1274  -45.2972   -7.5222 C   0  0  0  0  0  0  0  0  0  0  0  0
  -18.8815  -45.4037   -8.0618 C   0  0  0  0  0  0  0  0  0  0  0  0
  -17.9812  -44.4678   -7.6360 C   0  0  0  0  0  0  0  0  0  0  0  0
  -18.2942  -43.4470   -6.7004 C   0  0  0  0  0  0  0  0  0  0  0  0
  -19.5667  -43.3872   -6.1863 C   0  0  0  0  0  0  0  0  0  0  0  0
  -17.1003  -42.6196   -6.4872 C   0  0  0  0  0  0  0  0  0  0  0  0
  -15.9262  -43.2219   -6.3640 O   0  0  0  0  0  0  0  0  0  0  0  0
  -16.9257  -41.2147   -6.3809 N   0  0  0  0  0  0  0  0  0  0  0  0
  -18.5492  -46.4689   -9.0401 C   0  0  0  0  0  0  0  0  0  0  0  0
  -19.5885  -46.4710   -9.9762 F   0  0  0  0  0  0  0  0  0  0  0  0
  -18.4522  -47.6894   -8.4287 F   0  0  0  0  0  0  0  0  0  0  0  0
  -17.4214  -46.0897   -9.7046 F   0  0  0  0  0  0  0  0  0  0  0  0
  -20.6060  -40.1367   -6.8914 C   0  0  0  0  0  0  0  0  0  0  0  0
  -14.0956  -38.2203  -11.6899 C   0  0  0  0  0  0  0  0  0  0  0  0
  -14.1765  -37.5476  -12.8878 C   0  0  0  0  0  0  0  0  0  0  0  0
  -14.4609  -36.1990  -12.9177 C   0  0  0  0  0  0  0  0  0  0  0  0
  1  2  1  0
  2  3  1  0
  2  4  1  0
  4  5  2  0
  5  6  1  0
  6  7  1  0
  7  8  1  0
  8  9  1  0
  9 10  1  0
 10 11  1  6
 10 12  1  0
 12 13  1  1
 14 13  1  1
 14 15  1  0
 15 16  1  0
 17 16  1  1
 17 18  1  0
 18 19  1  0
 19 20  1  0
 20 21  1  0
 21 22  1  0
 22 23  1  0
 23 24  1  0
 24 25  2  0
 25 26  1  0
 26 27  2  0
 27 28  1  0
 28 29  2  0
 28 30  1  0
 30 31  2  0
 30 32  1  0
 26 33  1  0
 33 34  1  0
 33 35  1  0
 33 36  1  0
 17 37  1  0
  6 38  2  0
 38 39  1  0
 39 40  2  0
 29 24  1  0
 32 12  1  0
 37 14  1  0
 40  4  1  0
M  END
$$$$
