
     RDKit          3D

 40 43  0  0  0  0  0  0  0  0999 V2000
  -11.8073  -34.4853  -10.9869 C   0  0  0  0  0  0  0  0  0  0  0  0
  -13.0615  -35.2532  -11.2956 C   0  0  0  0  0  0  0  0  0  0  0  0
  -13.4435  -34.9755  -12.7540 C   0  0  0  0  0  0  0  0  0  0  0  0
  -12.9236  -36.7019  -11.0508 C   0  0  0  0  0  0  0  0  0  0  0  0
  -13.0941  -37.2987   -9.8206 C   0  0  0  0  0  0  0  0  0  0  0  0
  -12.9630  -38.6451   -9.6104 C   0  0  0  0  0  0  0  0  0  0  0  0
  -13.1630  -39.2273   -8.2432 C   0  0  0  0  0  0  0  0  0  0  0  0
  -14.4668  -39.8763   -8.1390 N   0  0  0  0  0  0  0  0  0  0  0  0
  -15.3195  -39.2073   -7.2062 C   0  0  0  0  0  0  0  0  0  0  0  0
  -16.6759  -38.8436   -7.7136 C   0  0  1  0  0  0  0  0  0  0  0  0
  -16.5662  -38.4993   -9.0594 O   0  0  0  0  0  0  0  0  0  0  0  0
  -17.7477  -39.8777   -7.4736 C   0  0  2  0  0  0  0  0  0  0  0  0
  -18.3351  -39.6726   -6.1018 C   0  0  0  0  0  0  0  0  0  0  0  0
  -19.7606  -39.1685   -6.1990 C   0  0  2  0  0  0  0  0  0  0  0  0
  -20.2027  -38.5778   -4.8780 C   0  0  0  0  0  0  0  0  0  0  0  0
  -21.7090  -38.5884   -5.0057 C   0  0  0  0  0  0  0  0  0  0  0  0
  -21.9847  -39.9147   -5.6583 C   0  0  2  0  0  0  0  0  0  0  0  0
  -22.5041  -40.9557   -4.6775 C   0  0  0  0  0  0  0  0  0  0  0  0
  -23.5699  -41.7857   -5.2868 C   0  0  0  0  0  0  0  0  0  0  0  0
  -23.1648  -42.8284   -6.2503 C   0  0  0  0  0  0  0  0  0  0  0  0
  -22.7961  -44.1658   -5.6653 C   0  0  0  0  0  0  0  0  0  0  0  0
  -22.4318  -45.0829   -6.8136 C   0  0  0  0  0  0  0  0  0  0  0  0
  -22.0772  -44.3571   -8.0120 N   0  0  0  0  0  0  0  0  0  0  0  0
  -20.8333  -43.8941   -8.5284 C   0  0  0  0  0  0  0  0  0  0  0  0
  -20.7774  -44.1040   -9.9356 C   0  0  0  0  0  0  0  0  0  0  0  0
  -19.7268  -43.7542  -10.7284 C   0  0  0  0  0  0  0  0  0  0  0  0
  -18.6795  -43.1634  -10.0791 C   0  0  0  0  0  0  0  0  0  0  0  0
  -18.6607  -42.9191   -8.6808 C   0  0  0  0  0  0  0  0  0  0  0  0
  -19.7471  -43.2942   -7.9282 C   0  0  0  0  0  0  0  0  0  0  0  0
  -17.3944  -42.2629   -8.3329 C   0  0  0  0  0  0  0  0  0  0  0  0
  -16.2770  -42.7071   -8.8904 O   0  0  0  0  0  0  0  0  0  0  0  0
  -17.0939  -41.1772   -7.4690 N   0  0  0  0  0  0  0  0  0  0  0  0
  -19.7414  -44.0075  -12.1906 C   0  0  0  0  0  0  0  0  0  0  0  0
  -20.7387  -44.9641  -12.4066 F   0  0  0  0  0  0  0  0  0  0  0  0
  -18.5295  -44.4719  -12.6244 F   0  0  0  0  0  0  0  0  0  0  0  0
  -20.1516  -42.8644  -12.8092 F   0  0  0  0  0  0  0  0  0  0  0  0
  -20.6889  -40.3643   -6.2936 C   0  0  0  0  0  0  0  0  0  0  0  0
  -12.6422  -39.4567  -10.6852 C   0  0  0  0  0  0  0  0  0  0  0  0
  -12.4650  -38.8916  -11.9276 C   0  0  0  0  0  0  0  0  0  0  0  0
  -12.6042  -37.5318  -12.1065 C   0  0  0  0  0  0  0  0  0  0  0  0
  1  2  1  0
  2  3  1  0
  2  4  1  0
  4  5  2  0
  5  6  1  0
  6  7  1  0
  7  8  1  0
  8  9  1  0
  9 10  1  0
 10 11  1  6
 10 12  1  0
 12 13  1  1
 14 13  1  1
 14 15  1  0
 15 16  1  0
 17 16  1  1
 17 18  1  0
 18 19  1  0
 19 20  1  0
 20 21  1  0
 21 22  1  0
 22 23  1  0
 23 24  1  0
 24 25  2  0
 25 26  1  0
 26 27  2  0
 27 28  1  0
 28 29  2  0
 28 30  1  0
 30 31  2  0
 30 32  1  0
 26 33  1  0
 33 34  1  0
 33 35  1  0
 33 36  1  0
 17 37  1  0
  6 38  2  0
 38 39  1  0
 39 40  2  0
 29 24  1  0
 32 12  1  0
 37 14  1  0
 40  4  1  0
M  END
$$$$
