
     RDKit          3D

 40 43  0  0  0  0  0  0  0  0999 V2000
  -13.3183  -41.3370  -14.2850 C   0  0  0  0  0  0  0  0  0  0  0  0
  -14.4691  -41.1570  -13.3357 C   0  0  0  0  0  0  0  0  0  0  0  0
  -14.4643  -42.3334  -12.3528 C   0  0  0  0  0  0  0  0  0  0  0  0
  -14.4270  -39.8678  -12.6190 C   0  0  0  0  0  0  0  0  0  0  0  0
  -13.7746  -39.6687  -11.4217 C   0  0  0  0  0  0  0  0  0  0  0  0
  -13.7448  -38.4654  -10.7696 C   0  0  0  0  0  0  0  0  0  0  0  0
  -13.0145  -38.3204   -9.4681 C   0  0  0  0  0  0  0  0  0  0  0  0
  -13.8021  -38.8641   -8.3655 N   0  0  0  0  0  0  0  0  0  0  0  0
  -15.1969  -38.9029   -8.6783 C   0  0  0  0  0  0  0  0  0  0  0  0
  -16.1237  -38.6107   -7.5446 C   0  0  1  0  0  0  0  0  0  0  0  0
  -16.5773  -37.2993   -7.6719 O   0  0  0  0  0  0  0  0  0  0  0  0
  -17.2557  -39.5931   -7.3737 C   0  0  2  0  0  0  0  0  0  0  0  0
  -17.7239  -39.5647   -5.9423 C   0  0  0  0  0  0  0  0  0  0  0  0
  -19.1070  -38.9544   -5.8427 C   0  0  2  0  0  0  0  0  0  0  0  0
  -19.4031  -38.5481   -4.4156 C   0  0  0  0  0  0  0  0  0  0  0  0
  -20.9106  -38.4345   -4.4167 C   0  0  0  0  0  0  0  0  0  0  0  0
  -21.3394  -39.6204   -5.2357 C   0  0  2  0  0  0  0  0  0  0  0  0
  -21.8694  -40.7634   -4.3824 C   0  0  0  0  0  0  0  0  0  0  0  0
  -23.0402  -41.4125   -5.0178 C   0  0  0  0  0  0  0  0  0  0  0  0
  -22.7917  -42.3174   -6.1577 C   0  0  0  0  0  0  0  0  0  0  0  0
  -22.4915  -43.7520   -5.8132 C   0  0  0  0  0  0  0  0  0  0  0  0
  -22.2867  -44.5015   -7.1128 C   0  0  0  0  0  0  0  0  0  0  0  0
  -21.9619  -43.6237   -8.2139 N   0  0  0  0  0  0  0  0  0  0  0  0
  -20.7251  -43.1727   -8.7574 C   0  0  0  0  0  0  0  0  0  0  0  0
  -20.7883  -43.1637  -10.1799 C   0  0  0  0  0  0  0  0  0  0  0  0
  -19.7728  -42.7677  -10.9964 C   0  0  0  0  0  0  0  0  0  0  0  0
  -18.6368  -42.3593  -10.3559 C   0  0  0  0  0  0  0  0  0  0  0  0
  -18.4973  -42.3383   -8.9433 C   0  0  0  0  0  0  0  0  0  0  0  0
  -19.5533  -42.7503   -8.1671 C   0  0  0  0  0  0  0  0  0  0  0  0
  -17.1600  -41.8335   -8.6082 C   0  0  0  0  0  0  0  0  0  0  0  0
  -16.1256  -42.2613   -9.3178 O   0  0  0  0  0  0  0  0  0  0  0  0
  -16.7108  -40.9193   -7.6193 N   0  0  0  0  0  0  0  0  0  0  0  0
  -19.9135  -42.7879  -12.4736 C   0  0  0  0  0  0  0  0  0  0  0  0
  -21.1570  -43.3727  -12.7348 F   0  0  0  0  0  0  0  0  0  0  0  0
  -18.9105  -43.5140  -13.0563 F   0  0  0  0  0  0  0  0  0  0  0  0
  -19.9870  -41.4971  -12.9046 F   0  0  0  0  0  0  0  0  0  0  0  0
  -20.1337  -40.0536   -6.0378 C   0  0  0  0  0  0  0  0  0  0  0  0
  -14.4021  -37.3867  -11.3363 C   0  0  0  0  0  0  0  0  0  0  0  0
  -15.0635  -37.5524  -12.5318 C   0  0  0  0  0  0  0  0  0  0  0  0
  -15.0749  -38.7775  -13.1638 C   0  0  0  0  0  0  0  0  0  0  0  0
  1  2  1  0
  2  3  1  0
  2  4  1  0
  4  5  2  0
  5  6  1  0
  6  7  1  0
  7  8  1  0
  8  9  1  0
  9 10  1  0
 10 11  1  6
 10 12  1  0
 12 13  1  1
 14 13  1  1
 14 15  1  0
 15 16  1  0
 17 16  1  1
 17 18  1  0
 18 19  1  0
 19 20  1  0
 20 21  1  0
 21 22  1  0
 22 23  1  0
 23 24  1  0
 24 25  2  0
 25 26  1  0
 26 27  2  0
 27 28  1  0
 28 29  2  0
 28 30  1  0
 30 31  2  0
 30 32  1  0
 26 33  1  0
 33 34  1  0
 33 35  1  0
 33 36  1  0
 17 37  1  0
  6 38  2  0
 38 39  1  0
 39 40  2  0
 29 24  1  0
 32 12  1  0
 37 14  1  0
 40  4  1  0
M  END
$$$$
