
     RDKit          3D

 40 43  0  0  0  0  0  0  0  0999 V2000
  -15.0807  -33.5303  -10.7014 C   0  0  0  0  0  0  0  0  0  0  0  0
  -14.3285  -34.1585  -11.8404 C   0  0  0  0  0  0  0  0  0  0  0  0
  -13.3327  -33.1258  -12.3808 C   0  0  0  0  0  0  0  0  0  0  0  0
  -13.6412  -35.4067  -11.4566 C   0  0  0  0  0  0  0  0  0  0  0  0
  -14.2171  -36.6572  -11.5163 C   0  0  0  0  0  0  0  0  0  0  0  0
  -13.5652  -37.8060  -11.1568 C   0  0  0  0  0  0  0  0  0  0  0  0
  -14.2540  -39.1348  -11.2472 C   0  0  0  0  0  0  0  0  0  0  0  0
  -15.6994  -38.9827  -11.1074 N   0  0  0  0  0  0  0  0  0  0  0  0
  -16.2523  -39.9584  -10.2202 C   0  0  0  0  0  0  0  0  0  0  0  0
  -16.5340  -39.4862   -8.8320 C   0  0  1  0  0  0  0  0  0  0  0  0
  -16.7497  -38.1101   -8.8689 O   0  0  0  0  0  0  0  0  0  0  0  0
  -17.6428  -40.2197   -8.1189 C   0  0  2  0  0  0  0  0  0  0  0  0
  -18.3980  -39.2498   -7.2483 C   0  0  0  0  0  0  0  0  0  0  0  0
  -19.7917  -39.0131   -7.7934 C   0  0  2  0  0  0  0  0  0  0  0  0
  -20.3906  -37.7632   -7.1864 C   0  0  0  0  0  0  0  0  0  0  0  0
  -21.8681  -37.9536   -7.4433 C   0  0  0  0  0  0  0  0  0  0  0  0
  -22.0775  -39.4139   -7.1528 C   0  0  2  0  0  0  0  0  0  0  0  0
  -22.7335  -39.6562   -5.8014 C   0  0  0  0  0  0  0  0  0  0  0  0
  -23.7246  -40.7556   -5.8727 C   0  0  0  0  0  0  0  0  0  0  0  0
  -23.2148  -42.1402   -5.9253 C   0  0  0  0  0  0  0  0  0  0  0  0
  -22.9439  -42.7987   -4.5986 C   0  0  0  0  0  0  0  0  0  0  0  0
  -22.4490  -44.2023   -4.8771 C   0  0  0  0  0  0  0  0  0  0  0  0
  -21.9332  -44.3526   -6.2187 N   0  0  0  0  0  0  0  0  0  0  0  0
  -20.6268  -44.2252   -6.7712 C   0  0  0  0  0  0  0  0  0  0  0  0
  -20.3942  -45.2572   -7.7244 C   0  0  0  0  0  0  0  0  0  0  0  0
  -19.2457  -45.4028   -8.4416 C   0  0  0  0  0  0  0  0  0  0  0  0
  -18.2816  -44.4670   -8.1922 C   0  0  0  0  0  0  0  0  0  0  0  0
  -18.4384  -43.4086   -7.2592 C   0  0  0  0  0  0  0  0  0  0  0  0
  -19.6177  -43.3100   -6.5614 C   0  0  0  0  0  0  0  0  0  0  0  0
  -17.2175  -42.5933   -7.2602 C   0  0  0  0  0  0  0  0  0  0  0  0
  -16.0446  -43.2096   -7.2932 O   0  0  0  0  0  0  0  0  0  0  0  0
  -17.0142  -41.1885   -7.2345 N   0  0  0  0  0  0  0  0  0  0  0  0
  -19.0767  -46.5074   -9.4181 C   0  0  0  0  0  0  0  0  0  0  0  0
  -18.5091  -47.5688   -8.7055 F   0  0  0  0  0  0  0  0  0  0  0  0
  -18.2616  -46.1337  -10.4518 F   0  0  0  0  0  0  0  0  0  0  0  0
  -20.3174  -46.9142   -9.8086 F   0  0  0  0  0  0  0  0  0  0  0  0
  -20.7178  -40.0705   -7.2233 C   0  0  0  0  0  0  0  0  0  0  0  0
  -12.2584  -37.7154  -10.7085 C   0  0  0  0  0  0  0  0  0  0  0  0
  -11.6543  -36.4808  -10.6370 C   0  0  0  0  0  0  0  0  0  0  0  0
  -12.3380  -35.3422  -11.0065 C   0  0  0  0  0  0  0  0  0  0  0  0
  1  2  1  0
  2  3  1  0
  2  4  1  0
  4  5  2  0
  5  6  1  0
  6  7  1  0
  7  8  1  0
  8  9  1  0
  9 10  1  0
 10 11  1  6
 10 12  1  0
 12 13  1  1
 14 13  1  1
 14 15  1  0
 15 16  1  0
 17 16  1  1
 17 18  1  0
 18 19  1  0
 19 20  1  0
 20 21  1  0
 21 22  1  0
 22 23  1  0
 23 24  1  0
 24 25  2  0
 25 26  1  0
 26 27  2  0
 27 28  1  0
 28 29  2  0
 28 30  1  0
 30 31  2  0
 30 32  1  0
 26 33  1  0
 33 34  1  0
 33 35  1  0
 33 36  1  0
 17 37  1  0
  6 38  2  0
 38 39  1  0
 39 40  2  0
 29 24  1  0
 32 12  1  0
 37 14  1  0
 40  4  1  0
M  END
$$$$
