
     RDKit          3D

 40 43  0  0  0  0  0  0  0  0999 V2000
  -11.2266  -35.1776  -12.8574 C   0  0  0  0  0  0  0  0  0  0  0  0
  -10.8083  -36.4401  -12.1580 C   0  0  0  0  0  0  0  0  0  0  0  0
  -10.1841  -36.0548  -10.8120 C   0  0  0  0  0  0  0  0  0  0  0  0
  -11.9218  -37.3907  -11.9728 C   0  0  0  0  0  0  0  0  0  0  0  0
  -13.2213  -37.0181  -11.7056 C   0  0  0  0  0  0  0  0  0  0  0  0
  -14.2433  -37.9131  -11.5368 C   0  0  0  0  0  0  0  0  0  0  0  0
  -15.6353  -37.4365  -11.2478 C   0  0  0  0  0  0  0  0  0  0  0  0
  -15.8446  -37.2802   -9.8113 N   0  0  0  0  0  0  0  0  0  0  0  0
  -16.0470  -38.5393   -9.1644 C   0  0  0  0  0  0  0  0  0  0  0  0
  -16.8695  -38.5030   -7.9187 C   0  0  1  0  0  0  0  0  0  0  0  0
  -17.2426  -37.1829   -7.6743 O   0  0  0  0  0  0  0  0  0  0  0  0
  -18.0495  -39.4428   -7.9031 C   0  0  2  0  0  0  0  0  0  0  0  0
  -18.3684  -39.8133   -6.4783 C   0  0  0  0  0  0  0  0  0  0  0  0
  -19.6847  -39.1996   -6.0466 C   0  0  2  0  0  0  0  0  0  0  0  0
  -19.8048  -39.2152   -4.5384 C   0  0  0  0  0  0  0  0  0  0  0  0
  -21.2919  -39.0414   -4.3296 C   0  0  0  0  0  0  0  0  0  0  0  0
  -21.8889  -39.9169   -5.3964 C   0  0  2  0  0  0  0  0  0  0  0  0
  -22.4153  -41.2352   -4.8485 C   0  0  0  0  0  0  0  0  0  0  0  0
  -23.6894  -41.6195   -5.5002 C   0  0  0  0  0  0  0  0  0  0  0  0
  -23.6254  -42.1620   -6.8719 C   0  0  0  0  0  0  0  0  0  0  0  0
  -23.4011  -43.6463   -6.9888 C   0  0  0  0  0  0  0  0  0  0  0  0
  -23.3846  -43.9918   -8.4629 C   0  0  0  0  0  0  0  0  0  0  0  0
  -23.1066  -42.8457   -9.2981 N   0  0  0  0  0  0  0  0  0  0  0  0
  -21.9000  -42.3094   -9.8320 C   0  0  0  0  0  0  0  0  0  0  0  0
  -22.1045  -41.8829  -11.1750 C   0  0  0  0  0  0  0  0  0  0  0  0
  -21.1490  -41.3100  -11.9583 C   0  0  0  0  0  0  0  0  0  0  0  0
  -19.9270  -41.1557  -11.3663 C   0  0  0  0  0  0  0  0  0  0  0  0
  -19.6455  -41.5540  -10.0331 C   0  0  0  0  0  0  0  0  0  0  0  0
  -20.6465  -42.1287   -9.2880 C   0  0  0  0  0  0  0  0  0  0  0  0
  -18.2472  -41.2271   -9.7278 C   0  0  0  0  0  0  0  0  0  0  0  0
  -17.3243  -41.4733  -10.6466 O   0  0  0  0  0  0  0  0  0  0  0  0
  -17.6335  -40.6617   -8.5792 N   0  0  0  0  0  0  0  0  0  0  0  0
  -21.4382  -40.8920  -13.3526 C   0  0  0  0  0  0  0  0  0  0  0  0
  -22.0268  -39.6264  -13.2618 F   0  0  0  0  0  0  0  0  0  0  0  0
  -22.2866  -41.7724  -13.9672 F   0  0  0  0  0  0  0  0  0  0  0  0
  -20.2478  -40.7274  -13.9955 F   0  0  0  0  0  0  0  0  0  0  0  0
  -20.8057  -40.1487   -6.4249 C   0  0  0  0  0  0  0  0  0  0  0  0
  -13.9651  -39.2655  -11.6383 C   0  0  0  0  0  0  0  0  0  0  0  0
  -12.6769  -39.6707  -11.9043 C   0  0  0  0  0  0  0  0  0  0  0  0
  -11.6695  -38.7443  -12.0692 C   0  0  0  0  0  0  0  0  0  0  0  0
  1  2  1  0
  2  3  1  0
  2  4  1  0
  4  5  2  0
  5  6  1  0
  6  7  1  0
  7  8  1  0
  8  9  1  0
  9 10  1  0
 10 11  1  6
 10 12  1  0
 12 13  1  1
 14 13  1  1
 14 15  1  0
 15 16  1  0
 17 16  1  1
 17 18  1  0
 18 19  1  0
 19 20  1  0
 20 21  1  0
 21 22  1  0
 22 23  1  0
 23 24  1  0
 24 25  2  0
 25 26  1  0
 26 27  2  0
 27 28  1  0
 28 29  2  0
 28 30  1  0
 30 31  2  0
 30 32  1  0
 26 33  1  0
 33 34  1  0
 33 35  1  0
 33 36  1  0
 17 37  1  0
  6 38  2  0
 38 39  1  0
 39 40  2  0
 29 24  1  0
 32 12  1  0
 37 14  1  0
 40  4  1  0
M  END
$$$$
