
     RDKit          3D

 40 43  0  0  0  0  0  0  0  0999 V2000
  -23.7056  -39.2292   -7.5981 C   0  0  0  0  0  0  0  0  0  0  0  0
  -22.9576  -38.3314   -6.6535 C   0  0  0  0  0  0  0  0  0  0  0  0
  -23.9459  -37.3043   -6.0892 C   0  0  0  0  0  0  0  0  0  0  0  0
  -22.2851  -39.0713   -5.5682 C   0  0  0  0  0  0  0  0  0  0  0  0
  -20.9190  -39.1182   -5.3942 C   0  0  0  0  0  0  0  0  0  0  0  0
  -20.3107  -39.8093   -4.3811 C   0  0  0  0  0  0  0  0  0  0  0  0
  -18.8169  -39.8169   -4.2518 C   0  0  0  0  0  0  0  0  0  0  0  0
  -18.1901  -40.2944   -5.4810 N   0  0  0  0  0  0  0  0  0  0  0  0
  -17.2772  -39.3341   -6.0189 C   0  0  0  0  0  0  0  0  0  0  0  0
  -16.6214  -39.7133   -7.3056 C   0  0  1  0  0  0  0  0  0  0  0  0
  -15.4637  -40.4325   -7.0160 O   0  0  0  0  0  0  0  0  0  0  0  0
  -17.5104  -40.4328   -8.2894 C   0  0  2  0  0  0  0  0  0  0  0  0
  -18.4672  -39.4460   -8.9056 C   0  0  0  0  0  0  0  0  0  0  0  0
  -18.1377  -39.2209  -10.3673 C   0  0  2  0  0  0  0  0  0  0  0  0
  -18.8045  -37.9594  -10.8704 C   0  0  0  0  0  0  0  0  0  0  0  0
  -18.7809  -38.1555  -12.3692 C   0  0  0  0  0  0  0  0  0  0  0  0
  -19.1289  -39.6098  -12.5265 C   0  0  2  0  0  0  0  0  0  0  0  0
  -20.5694  -39.8253  -12.9667 C   0  0  0  0  0  0  0  0  0  0  0  0
  -20.6726  -40.9263  -13.9532 C   0  0  0  0  0  0  0  0  0  0  0  0
  -20.5698  -42.3115  -13.4527 C   0  0  0  0  0  0  0  0  0  0  0  0
  -21.8519  -42.9431  -12.9792 C   0  0  0  0  0  0  0  0  0  0  0  0
  -21.5286  -44.3519  -12.5280 C   0  0  0  0  0  0  0  0  0  0  0  0
  -20.1270  -44.5287  -12.2234 N   0  0  0  0  0  0  0  0  0  0  0  0
  -19.3783  -44.4119  -11.0175 C   0  0  0  0  0  0  0  0  0  0  0  0
  -18.4213  -45.4626  -10.9302 C   0  0  0  0  0  0  0  0  0  0  0  0
  -17.5395  -45.6221   -9.9047 C   0  0  0  0  0  0  0  0  0  0  0  0
  -17.6196  -44.6810   -8.9170 C   0  0  0  0  0  0  0  0  0  0  0  0
  -18.5446  -43.6042   -8.9327 C   0  0  0  0  0  0  0  0  0  0  0  0
  -19.4129  -43.4922   -9.9914 C   0  0  0  0  0  0  0  0  0  0  0  0
  -18.3404  -42.7886   -7.7293 C   0  0  0  0  0  0  0  0  0  0  0  0
  -18.1402  -43.4049   -6.5731 O   0  0  0  0  0  0  0  0  0  0  0  0
  -18.3069  -41.3835   -7.5293 N   0  0  0  0  0  0  0  0  0  0  0  0
  -16.5707  -46.7460   -9.8835 C   0  0  0  0  0  0  0  0  0  0  0  0
  -16.1364  -46.8561   -8.5584 F   0  0  0  0  0  0  0  0  0  0  0  0
  -15.5123  -46.5027  -10.7162 F   0  0  0  0  0  0  0  0  0  0  0  0
  -17.2517  -47.8909  -10.1712 F   0  0  0  0  0  0  0  0  0  0  0  0
  -18.8638  -40.2671  -11.1913 C   0  0  0  0  0  0  0  0  0  0  0  0
  -21.1026  -40.5002   -3.4797 C   0  0  0  0  0  0  0  0  0  0  0  0
  -22.4709  -40.4735   -3.6258 C   0  0  0  0  0  0  0  0  0  0  0  0
  -23.0531  -39.7679   -4.6570 C   0  0  0  0  0  0  0  0  0  0  0  0
  1  2  1  0
  2  3  1  0
  2  4  1  0
  4  5  2  0
  5  6  1  0
  6  7  1  0
  7  8  1  0
  8  9  1  0
  9 10  1  0
 10 11  1  1
 10 12  1  0
 12 13  1  1
 14 13  1  1
 14 15  1  0
 15 16  1  0
 17 16  1  1
 17 18  1  0
 18 19  1  0
 19 20  1  0
 20 21  1  0
 21 22  1  0
 22 23  1  0
 23 24  1  0
 24 25  2  0
 25 26  1  0
 26 27  2  0
 27 28  1  0
 28 29  2  0
 28 30  1  0
 30 31  2  0
 30 32  1  0
 26 33  1  0
 33 34  1  0
 33 35  1  0
 33 36  1  0
 17 37  1  0
  6 38  2  0
 38 39  1  0
 39 40  2  0
 29 24  1  0
 32 12  1  0
 37 14  1  0
 40  4  1  0
M  END
$$$$
