
     RDKit          3D

 40 43  0  0  0  0  0  0  0  0999 V2000
  -10.4339  -38.3774  -14.7605 C   0  0  0  0  0  0  0  0  0  0  0  0
  -10.4967  -38.5152  -13.2655 C   0  0  0  0  0  0  0  0  0  0  0  0
   -9.6784  -37.3759  -12.6472 C   0  0  0  0  0  0  0  0  0  0  0  0
  -11.8779  -38.5178  -12.7459 C   0  0  0  0  0  0  0  0  0  0  0  0
  -12.2742  -37.8673  -11.5976 C   0  0  0  0  0  0  0  0  0  0  0  0
  -13.5605  -37.8793  -11.1293 C   0  0  0  0  0  0  0  0  0  0  0  0
  -13.9215  -37.1484   -9.8708 C   0  0  0  0  0  0  0  0  0  0  0  0
  -15.3698  -37.1033   -9.6918 N   0  0  0  0  0  0  0  0  0  0  0  0
  -15.8870  -38.3551   -9.2333 C   0  0  0  0  0  0  0  0  0  0  0  0
  -16.5861  -38.3233   -7.9143 C   0  0  1  0  0  0  0  0  0  0  0  0
  -17.0975  -37.0423   -7.7163 O   0  0  0  0  0  0  0  0  0  0  0  0
  -17.6318  -39.3928   -7.7180 C   0  0  2  0  0  0  0  0  0  0  0  0
  -17.8369  -39.6199   -6.2431 C   0  0  0  0  0  0  0  0  0  0  0  0
  -19.2017  -39.1253   -5.8093 C   0  0  2  0  0  0  0  0  0  0  0  0
  -19.2524  -38.9680   -4.3053 C   0  0  0  0  0  0  0  0  0  0  0  0
  -20.7389  -38.9553   -4.0303 C   0  0  0  0  0  0  0  0  0  0  0  0
  -21.2629  -40.0239   -4.9493 C   0  0  2  0  0  0  0  0  0  0  0  0
  -21.5885  -41.3188   -4.2196 C   0  0  0  0  0  0  0  0  0  0  0  0
  -22.8291  -41.9361   -4.7448 C   0  0  0  0  0  0  0  0  0  0  0  0
  -22.7552  -42.6329   -6.0444 C   0  0  0  0  0  0  0  0  0  0  0  0
  -22.3448  -44.0808   -5.9988 C   0  0  0  0  0  0  0  0  0  0  0  0
  -22.3482  -44.6023   -7.4203 C   0  0  0  0  0  0  0  0  0  0  0  0
  -22.2587  -43.5433   -8.3998 N   0  0  0  0  0  0  0  0  0  0  0  0
  -21.1569  -42.9322   -9.0638 C   0  0  0  0  0  0  0  0  0  0  0  0
  -21.4740  -42.7047  -10.4332 C   0  0  0  0  0  0  0  0  0  0  0  0
  -20.6366  -42.1196  -11.3338 C   0  0  0  0  0  0  0  0  0  0  0  0
  -19.4203  -41.7427  -10.8377 C   0  0  0  0  0  0  0  0  0  0  0  0
  -19.0311  -41.9340   -9.4860 C   0  0  0  0  0  0  0  0  0  0  0  0
  -19.9150  -42.5312   -8.6203 C   0  0  0  0  0  0  0  0  0  0  0  0
  -17.6752  -41.4009   -9.3049 C   0  0  0  0  0  0  0  0  0  0  0  0
  -16.7693  -41.6431  -10.2415 O   0  0  0  0  0  0  0  0  0  0  0  0
  -17.0906  -40.6254   -8.2694 N   0  0  0  0  0  0  0  0  0  0  0  0
  -21.0387  -41.9174  -12.7479 C   0  0  0  0  0  0  0  0  0  0  0  0
  -22.2898  -42.5278  -12.8845 F   0  0  0  0  0  0  0  0  0  0  0  0
  -20.1337  -42.4820  -13.6052 F   0  0  0  0  0  0  0  0  0  0  0  0
  -21.2288  -40.5819  -12.9420 F   0  0  0  0  0  0  0  0  0  0  0  0
  -20.2050  -40.2457   -6.0059 C   0  0  0  0  0  0  0  0  0  0  0  0
  -14.5197  -38.5795  -11.8409 C   0  0  0  0  0  0  0  0  0  0  0  0
  -14.1563  -39.2402  -12.9923 C   0  0  0  0  0  0  0  0  0  0  0  0
  -12.8521  -39.2089  -13.4378 C   0  0  0  0  0  0  0  0  0  0  0  0
  1  2  1  0
  2  3  1  0
  2  4  1  0
  4  5  2  0
  5  6  1  0
  6  7  1  0
  7  8  1  0
  8  9  1  0
  9 10  1  0
 10 11  1  6
 10 12  1  0
 12 13  1  1
 14 13  1  1
 14 15  1  0
 15 16  1  0
 17 16  1  1
 17 18  1  0
 18 19  1  0
 19 20  1  0
 20 21  1  0
 21 22  1  0
 22 23  1  0
 23 24  1  0
 24 25  2  0
 25 26  1  0
 26 27  2  0
 27 28  1  0
 28 29  2  0
 28 30  1  0
 30 31  2  0
 30 32  1  0
 26 33  1  0
 33 34  1  0
 33 35  1  0
 33 36  1  0
 17 37  1  0
  6 38  2  0
 38 39  1  0
 39 40  2  0
 29 24  1  0
 32 12  1  0
 37 14  1  0
 40  4  1  0
M  END
$$$$
