
     RDKit          3D

 40 43  0  0  0  0  0  0  0  0999 V2000
   -9.7256  -35.5098  -12.3735 C   0  0  0  0  0  0  0  0  0  0  0  0
  -10.9660  -34.8698  -11.8170 C   0  0  0  0  0  0  0  0  0  0  0  0
  -11.2836  -33.6313  -12.6627 C   0  0  0  0  0  0  0  0  0  0  0  0
  -12.1180  -35.7910  -11.7733 C   0  0  0  0  0  0  0  0  0  0  0  0
  -12.3069  -36.7486  -10.8005 C   0  0  0  0  0  0  0  0  0  0  0  0
  -13.3821  -37.5955  -10.7742 C   0  0  0  0  0  0  0  0  0  0  0  0
  -13.5240  -38.6152   -9.6840 C   0  0  0  0  0  0  0  0  0  0  0  0
  -14.8408  -39.2445   -9.7276 N   0  0  0  0  0  0  0  0  0  0  0  0
  -15.2975  -39.6104   -8.4229 C   0  0  0  0  0  0  0  0  0  0  0  0
  -16.5785  -38.9807   -7.9844 C   0  0  1  0  0  0  0  0  0  0  0  0
  -17.0756  -38.2131   -9.0358 O   0  0  0  0  0  0  0  0  0  0  0  0
  -17.6086  -39.9382   -7.4387 C   0  0  2  0  0  0  0  0  0  0  0  0
  -18.3866  -39.2569   -6.3435 C   0  0  0  0  0  0  0  0  0  0  0  0
  -19.8138  -38.9977   -6.7812 C   0  0  2  0  0  0  0  0  0  0  0  0
  -20.4643  -37.9717   -5.8792 C   0  0  0  0  0  0  0  0  0  0  0  0
  -21.9363  -38.2003   -6.1367 C   0  0  0  0  0  0  0  0  0  0  0  0
  -22.0414  -39.6990   -6.1968 C   0  0  2  0  0  0  0  0  0  0  0  0
  -22.6245  -40.2989   -4.9258 C   0  0  0  0  0  0  0  0  0  0  0  0
  -23.5466  -41.4178   -5.2316 C   0  0  0  0  0  0  0  0  0  0  0  0
  -22.9536  -42.7114   -5.6251 C   0  0  0  0  0  0  0  0  0  0  0  0
  -22.5872  -43.6431   -4.5006 C   0  0  0  0  0  0  0  0  0  0  0  0
  -22.0171  -44.9029   -5.1175 C   0  0  0  0  0  0  0  0  0  0  0  0
  -21.5488  -44.6957   -6.4690 N   0  0  0  0  0  0  0  0  0  0  0  0
  -20.2768  -44.3495   -7.0081 C   0  0  0  0  0  0  0  0  0  0  0  0
  -20.0196  -45.1086   -8.1850 C   0  0  0  0  0  0  0  0  0  0  0  0
  -18.8948  -44.9993   -8.9451 C   0  0  0  0  0  0  0  0  0  0  0  0
  -17.9818  -44.0827   -8.5046 C   0  0  0  0  0  0  0  0  0  0  0  0
  -18.1662  -43.2880   -7.3428 C   0  0  0  0  0  0  0  0  0  0  0  0
  -19.3194  -43.4405   -6.6120 C   0  0  0  0  0  0  0  0  0  0  0  0
  -16.9999  -42.4111   -7.1806 C   0  0  0  0  0  0  0  0  0  0  0  0
  -15.7930  -42.9176   -7.3889 O   0  0  0  0  0  0  0  0  0  0  0  0
  -16.8843  -41.0412   -6.8264 N   0  0  0  0  0  0  0  0  0  0  0  0
  -18.6972  -45.8278  -10.1603 C   0  0  0  0  0  0  0  0  0  0  0  0
  -18.3515  -44.9375  -11.1823 F   0  0  0  0  0  0  0  0  0  0  0  0
  -19.8382  -46.5103  -10.4847 F   0  0  0  0  0  0  0  0  0  0  0  0
  -17.6132  -46.6266   -9.9505 F   0  0  0  0  0  0  0  0  0  0  0  0
  -20.6472  -40.2225   -6.4559 C   0  0  0  0  0  0  0  0  0  0  0  0
  -14.3343  -37.4910  -11.7738 C   0  0  0  0  0  0  0  0  0  0  0  0
  -14.1750  -36.5447  -12.7604 C   0  0  0  0  0  0  0  0  0  0  0  0
  -13.0807  -35.7064  -12.7589 C   0  0  0  0  0  0  0  0  0  0  0  0
  1  2  1  0
  2  3  1  0
  2  4  1  0
  4  5  2  0
  5  6  1  0
  6  7  1  0
  7  8  1  0
  8  9  1  0
  9 10  1  0
 10 11  1  6
 10 12  1  0
 12 13  1  1
 14 13  1  1
 14 15  1  0
 15 16  1  0
 17 16  1  1
 17 18  1  0
 18 19  1  0
 19 20  1  0
 20 21  1  0
 21 22  1  0
 22 23  1  0
 23 24  1  0
 24 25  2  0
 25 26  1  0
 26 27  2  0
 27 28  1  0
 28 29  2  0
 28 30  1  0
 30 31  2  0
 30 32  1  0
 26 33  1  0
 33 34  1  0
 33 35  1  0
 33 36  1  0
 17 37  1  0
  6 38  2  0
 38 39  1  0
 39 40  2  0
 29 24  1  0
 32 12  1  0
 37 14  1  0
 40  4  1  0
M  END
$$$$
