
     RDKit          3D

 40 43  0  0  0  0  0  0  0  0999 V2000
  -12.6864  -34.0933  -11.4149 C   0  0  0  0  0  0  0  0  0  0  0  0
  -12.6994  -35.2686  -12.3510 C   0  0  0  0  0  0  0  0  0  0  0  0
  -11.2503  -35.5869  -12.7365 C   0  0  0  0  0  0  0  0  0  0  0  0
  -13.3673  -36.4530  -11.7775 C   0  0  0  0  0  0  0  0  0  0  0  0
  -12.9994  -37.0507  -10.5918 C   0  0  0  0  0  0  0  0  0  0  0  0
  -13.6302  -38.1494  -10.0730 C   0  0  0  0  0  0  0  0  0  0  0  0
  -13.1760  -38.7488   -8.7758 C   0  0  0  0  0  0  0  0  0  0  0  0
  -14.1931  -38.5837   -7.7413 N   0  0  0  0  0  0  0  0  0  0  0  0
  -15.5143  -38.7333   -8.2675 C   0  0  0  0  0  0  0  0  0  0  0  0
  -16.6276  -38.4736   -7.3070 C   0  0  1  0  0  0  0  0  0  0  0  0
  -17.2453  -37.2757   -7.6604 O   0  0  0  0  0  0  0  0  0  0  0  0
  -17.6161  -39.6027   -7.1524 C   0  0  2  0  0  0  0  0  0  0  0  0
  -18.4702  -39.3500   -5.9377 C   0  0  0  0  0  0  0  0  0  0  0  0
  -19.8948  -39.0288   -6.3414 C   0  0  2  0  0  0  0  0  0  0  0  0
  -20.6360  -38.3819   -5.1918 C   0  0  0  0  0  0  0  0  0  0  0  0
  -22.0821  -38.5820   -5.5845 C   0  0  0  0  0  0  0  0  0  0  0  0
  -22.0947  -39.9833   -6.1294 C   0  0  2  0  0  0  0  0  0  0  0  0
  -22.6833  -40.9892   -5.1511 C   0  0  0  0  0  0  0  0  0  0  0  0
  -23.5256  -41.9896   -5.8479 C   0  0  0  0  0  0  0  0  0  0  0  0
  -22.8428  -43.0568   -6.6060 C   0  0  0  0  0  0  0  0  0  0  0  0
  -22.4593  -44.2850   -5.8242 C   0  0  0  0  0  0  0  0  0  0  0  0
  -21.7939  -45.2490   -6.7838 C   0  0  0  0  0  0  0  0  0  0  0  0
  -21.2935  -44.5934   -7.9705 N   0  0  0  0  0  0  0  0  0  0  0  0
  -20.0273  -44.0329   -8.3033 C   0  0  0  0  0  0  0  0  0  0  0  0
  -19.6852  -44.3565   -9.6470 C   0  0  0  0  0  0  0  0  0  0  0  0
  -18.5440  -43.9550  -10.2725 C   0  0  0  0  0  0  0  0  0  0  0  0
  -17.7032  -43.1899   -9.5140 C   0  0  0  0  0  0  0  0  0  0  0  0
  -17.9741  -42.8243   -8.1693 C   0  0  0  0  0  0  0  0  0  0  0  0
  -19.1402  -43.2585   -7.5868 C   0  0  0  0  0  0  0  0  0  0  0  0
  -16.8689  -41.9949   -7.6735 C   0  0  0  0  0  0  0  0  0  0  0  0
  -15.6274  -42.3503   -7.9715 O   0  0  0  0  0  0  0  0  0  0  0  0
  -16.8479  -40.8101   -6.8916 N   0  0  0  0  0  0  0  0  0  0  0  0
  -18.2560  -44.3345  -11.6780 C   0  0  0  0  0  0  0  0  0  0  0  0
  -17.6014  -45.5691  -11.6179 F   0  0  0  0  0  0  0  0  0  0  0  0
  -17.4641  -43.4013  -12.2901 F   0  0  0  0  0  0  0  0  0  0  0  0
  -19.4464  -44.5501  -12.3055 F   0  0  0  0  0  0  0  0  0  0  0  0
  -20.6636  -40.3298   -6.4712 C   0  0  0  0  0  0  0  0  0  0  0  0
  -14.6947  -38.6948  -10.7703 C   0  0  0  0  0  0  0  0  0  0  0  0
  -15.0872  -38.1213  -11.9583 C   0  0  0  0  0  0  0  0  0  0  0  0
  -14.4311  -37.0149  -12.4542 C   0  0  0  0  0  0  0  0  0  0  0  0
  1  2  1  0
  2  3  1  0
  2  4  1  0
  4  5  2  0
  5  6  1  0
  6  7  1  0
  7  8  1  0
  8  9  1  0
  9 10  1  0
 10 11  1  6
 10 12  1  0
 12 13  1  1
 14 13  1  1
 14 15  1  0
 15 16  1  0
 17 16  1  1
 17 18  1  0
 18 19  1  0
 19 20  1  0
 20 21  1  0
 21 22  1  0
 22 23  1  0
 23 24  1  0
 24 25  2  0
 25 26  1  0
 26 27  2  0
 27 28  1  0
 28 29  2  0
 28 30  1  0
 30 31  2  0
 30 32  1  0
 26 33  1  0
 33 34  1  0
 33 35  1  0
 33 36  1  0
 17 37  1  0
  6 38  2  0
 38 39  1  0
 39 40  2  0
 29 24  1  0
 32 12  1  0
 37 14  1  0
 40  4  1  0
M  END
$$$$
