
     RDKit          3D

 40 43  0  0  0  0  0  0  0  0999 V2000
  -14.3962  -35.1307  -12.2581 C   0  0  0  0  0  0  0  0  0  0  0  0
  -13.2570  -35.9145  -12.8461 C   0  0  0  0  0  0  0  0  0  0  0  0
  -11.9457  -35.2922  -12.3529 C   0  0  0  0  0  0  0  0  0  0  0  0
  -13.3179  -37.3518  -12.5172 C   0  0  0  0  0  0  0  0  0  0  0  0
  -13.1507  -37.8634  -11.2487 C   0  0  0  0  0  0  0  0  0  0  0  0
  -13.2107  -39.2003  -10.9603 C   0  0  0  0  0  0  0  0  0  0  0  0
  -13.0191  -39.6873   -9.5551 C   0  0  0  0  0  0  0  0  0  0  0  0
  -13.9872  -39.0697   -8.6533 N   0  0  0  0  0  0  0  0  0  0  0  0
  -15.3112  -39.5602   -8.8796 C   0  0  0  0  0  0  0  0  0  0  0  0
  -16.3841  -38.9364   -8.0492 C   0  0  1  0  0  0  0  0  0  0  0  0
  -16.9117  -37.8539   -8.7502 O   0  0  0  0  0  0  0  0  0  0  0  0
  -17.4554  -39.8844   -7.5702 C   0  0  2  0  0  0  0  0  0  0  0  0
  -18.2982  -39.1940   -6.5300 C   0  0  0  0  0  0  0  0  0  0  0  0
  -19.6914  -38.9249   -7.0612 C   0  0  2  0  0  0  0  0  0  0  0  0
  -20.3917  -37.8914   -6.2063 C   0  0  0  0  0  0  0  0  0  0  0  0
  -21.8454  -38.1092   -6.5594 C   0  0  0  0  0  0  0  0  0  0  0  0
  -21.9582  -39.6073   -6.6230 C   0  0  2  0  0  0  0  0  0  0  0  0
  -22.6283  -40.1991   -5.3917 C   0  0  0  0  0  0  0  0  0  0  0  0
  -23.5373  -41.3116   -5.7550 C   0  0  0  0  0  0  0  0  0  0  0  0
  -22.9299  -42.6108   -6.1058 C   0  0  0  0  0  0  0  0  0  0  0  0
  -22.6457  -43.5423   -4.9576 C   0  0  0  0  0  0  0  0  0  0  0  0
  -22.0463  -44.8082   -5.5328 C   0  0  0  0  0  0  0  0  0  0  0  0
  -21.4885  -44.6084   -6.8510 N   0  0  0  0  0  0  0  0  0  0  0  0
  -20.1812  -44.2736   -7.3062 C   0  0  0  0  0  0  0  0  0  0  0  0
  -19.8532  -45.0379   -8.4619 C   0  0  0  0  0  0  0  0  0  0  0  0
  -18.6801  -44.9394   -9.1467 C   0  0  0  0  0  0  0  0  0  0  0  0
  -17.7908  -44.0288   -8.6491 C   0  0  0  0  0  0  0  0  0  0  0  0
  -18.0447  -43.2295   -7.5038 C   0  0  0  0  0  0  0  0  0  0  0  0
  -19.2447  -43.3710   -6.8500 C   0  0  0  0  0  0  0  0  0  0  0  0
  -16.8847  -42.3613   -7.2671 C   0  0  0  0  0  0  0  0  0  0  0  0
  -15.6708  -42.8777   -7.3945 O   0  0  0  0  0  0  0  0  0  0  0  0
  -16.7817  -40.9913   -6.9092 N   0  0  0  0  0  0  0  0  0  0  0  0
  -18.4097  -45.7728  -10.3444 C   0  0  0  0  0  0  0  0  0  0  0  0
  -18.2447  -44.8787  -11.4073 F   0  0  0  0  0  0  0  0  0  0  0  0
  -19.4468  -46.6297  -10.5954 F   0  0  0  0  0  0  0  0  0  0  0  0
  -17.2097  -46.3922  -10.1610 F   0  0  0  0  0  0  0  0  0  0  0  0
  -20.5542  -40.1423   -6.7887 C   0  0  0  0  0  0  0  0  0  0  0  0
  -13.4515  -40.0919  -11.9917 C   0  0  0  0  0  0  0  0  0  0  0  0
  -13.6228  -39.6130  -13.2706 C   0  0  0  0  0  0  0  0  0  0  0  0
  -13.5566  -38.2604  -13.5285 C   0  0  0  0  0  0  0  0  0  0  0  0
  1  2  1  0
  2  3  1  0
  2  4  1  0
  4  5  2  0
  5  6  1  0
  6  7  1  0
  7  8  1  0
  8  9  1  0
  9 10  1  0
 10 11  1  6
 10 12  1  0
 12 13  1  1
 14 13  1  1
 14 15  1  0
 15 16  1  0
 17 16  1  1
 17 18  1  0
 18 19  1  0
 19 20  1  0
 20 21  1  0
 21 22  1  0
 22 23  1  0
 23 24  1  0
 24 25  2  0
 25 26  1  0
 26 27  2  0
 27 28  1  0
 28 29  2  0
 28 30  1  0
 30 31  2  0
 30 32  1  0
 26 33  1  0
 33 34  1  0
 33 35  1  0
 33 36  1  0
 17 37  1  0
  6 38  2  0
 38 39  1  0
 39 40  2  0
 29 24  1  0
 32 12  1  0
 37 14  1  0
 40  4  1  0
M  END
$$$$
