
     RDKit          3D

 40 43  0  0  0  0  0  0  0  0999 V2000
  -14.3027  -33.8928  -11.2109 C   0  0  0  0  0  0  0  0  0  0  0  0
  -13.6360  -34.7888  -12.2162 C   0  0  0  0  0  0  0  0  0  0  0  0
  -12.6376  -33.9457  -13.0176 C   0  0  0  0  0  0  0  0  0  0  0  0
  -12.9708  -35.9519  -11.5978 C   0  0  0  0  0  0  0  0  0  0  0  0
  -13.6158  -36.8901  -10.8215 C   0  0  0  0  0  0  0  0  0  0  0  0
  -12.9837  -37.9642  -10.2552 C   0  0  0  0  0  0  0  0  0  0  0  0
  -13.7488  -38.9473   -9.4206 C   0  0  0  0  0  0  0  0  0  0  0  0
  -15.0135  -38.3741   -8.9691 N   0  0  0  0  0  0  0  0  0  0  0  0
  -15.9925  -39.3844   -8.7128 C   0  0  0  0  0  0  0  0  0  0  0  0
  -17.3657  -38.8907   -8.3964 C   0  0  1  0  0  0  0  0  0  0  0  0
  -17.9291  -38.3753   -9.5621 O   0  0  0  0  0  0  0  0  0  0  0  0
  -18.2671  -39.8943   -7.7211 C   0  0  2  0  0  0  0  0  0  0  0  0
  -19.1777  -39.1746   -6.7611 C   0  0  0  0  0  0  0  0  0  0  0  0
  -20.6091  -39.2023   -7.2570 C   0  0  2  0  0  0  0  0  0  0  0  0
  -21.4361  -38.1571   -6.5407 C   0  0  0  0  0  0  0  0  0  0  0  0
  -22.8483  -38.6397   -6.7815 C   0  0  0  0  0  0  0  0  0  0  0  0
  -22.7330  -40.1283   -6.6033 C   0  0  2  0  0  0  0  0  0  0  0  0
  -23.2725  -40.6033   -5.2622 C   0  0  0  0  0  0  0  0  0  0  0  0
  -24.0105  -41.8810   -5.4000 C   0  0  0  0  0  0  0  0  0  0  0  0
  -23.2215  -43.1170   -5.5726 C   0  0  0  0  0  0  0  0  0  0  0  0
  -22.7685  -43.7973   -4.3081 C   0  0  0  0  0  0  0  0  0  0  0  0
  -21.9985  -45.0385   -4.7070 C   0  0  0  0  0  0  0  0  0  0  0  0
  -21.5125  -44.9766   -6.0666 N   0  0  0  0  0  0  0  0  0  0  0  0
  -20.2839  -44.5328   -6.6340 C   0  0  0  0  0  0  0  0  0  0  0  0
  -19.8736  -45.4188   -7.6705 C   0  0  0  0  0  0  0  0  0  0  0  0
  -18.7476  -45.2626   -8.4204 C   0  0  0  0  0  0  0  0  0  0  0  0
  -17.9948  -44.1630   -8.1176 C   0  0  0  0  0  0  0  0  0  0  0  0
  -18.3375  -43.2337   -7.1006 C   0  0  0  0  0  0  0  0  0  0  0  0
  -19.4843  -43.4408   -6.3731 C   0  0  0  0  0  0  0  0  0  0  0  0
  -17.3177  -42.1783   -7.0620 C   0  0  0  0  0  0  0  0  0  0  0  0
  -16.0430  -42.5255   -7.1678 O   0  0  0  0  0  0  0  0  0  0  0  0
  -17.4154  -40.7683   -6.9293 N   0  0  0  0  0  0  0  0  0  0  0  0
  -18.3848  -46.2312   -9.4846 C   0  0  0  0  0  0  0  0  0  0  0  0
  -17.0080  -46.4439   -9.3597 F   0  0  0  0  0  0  0  0  0  0  0  0
  -18.6831  -45.7376  -10.7256 F   0  0  0  0  0  0  0  0  0  0  0  0
  -18.9939  -47.4161   -9.1973 F   0  0  0  0  0  0  0  0  0  0  0  0
  -21.2687  -40.4720   -6.7535 C   0  0  0  0  0  0  0  0  0  0  0  0
  -11.6250  -38.1235  -10.4688 C   0  0  0  0  0  0  0  0  0  0  0  0
  -10.9513  -37.2037  -11.2396 C   0  0  0  0  0  0  0  0  0  0  0  0
  -11.6168  -36.1323  -11.7962 C   0  0  0  0  0  0  0  0  0  0  0  0
  1  2  1  0
  2  3  1  0
  2  4  1  0
  4  5  2  0
  5  6  1  0
  6  7  1  0
  7  8  1  0
  8  9  1  0
  9 10  1  0
 10 11  1  6
 10 12  1  0
 12 13  1  1
 14 13  1  1
 14 15  1  0
 15 16  1  0
 17 16  1  1
 17 18  1  0
 18 19  1  0
 19 20  1  0
 20 21  1  0
 21 22  1  0
 22 23  1  0
 23 24  1  0
 24 25  2  0
 25 26  1  0
 26 27  2  0
 27 28  1  0
 28 29  2  0
 28 30  1  0
 30 31  2  0
 30 32  1  0
 26 33  1  0
 33 34  1  0
 33 35  1  0
 33 36  1  0
 17 37  1  0
  6 38  2  0
 38 39  1  0
 39 40  2  0
 29 24  1  0
 32 12  1  0
 37 14  1  0
 40  4  1  0
M  END
$$$$
