
     RDKit          3D

 39 41  0  0  0  0  0  0  0  0999 V2000
  -16.1437  -34.8998  -12.6068 C   0  0  0  0  0  0  0  0  0  0  0  0
  -15.5890  -34.8175  -11.1883 C   0  0  0  0  0  0  0  0  0  0  0  0
  -16.8196  -34.5564  -10.2990 C   0  0  0  0  0  0  0  0  0  0  0  0
  -14.9683  -35.9771  -10.7891 O   0  0  0  0  0  0  0  0  0  0  0  0
  -14.3580  -36.8653  -11.6606 C   0  0  0  0  0  0  0  0  0  0  0  0
  -14.4414  -36.8036  -13.0188 C   0  0  0  0  0  0  0  0  0  0  0  0
  -13.8059  -37.7256  -13.8482 C   0  0  0  0  0  0  0  0  0  0  0  0
  -13.0586  -38.7480  -13.2999 C   0  0  0  0  0  0  0  0  0  0  0  0
  -12.9756  -38.8087  -11.9406 C   0  0  0  0  0  0  0  0  0  0  0  0
  -13.5913  -37.9148  -11.1170 C   0  0  0  0  0  0  0  0  0  0  0  0
  -13.4850  -38.0097   -9.6218 C   0  0  0  0  0  0  0  0  0  0  0  0
  -14.0234  -39.2520   -9.1636 N   0  0  0  0  0  0  0  0  0  0  0  0
  -15.4142  -39.4644   -9.4446 C   0  0  0  0  0  0  0  0  0  0  0  0
  -16.3135  -38.9525   -8.3364 C   0  0  1  0  0  0  0  0  0  0  0  0
  -15.8817  -37.6962   -7.9419 O   0  0  0  0  0  0  0  0  0  0  0  0
  -17.7725  -39.0290   -8.6866 C   0  0  2  0  0  0  0  0  0  0  0  0
  -18.5583  -39.1306   -7.3982 C   0  0  0  0  0  0  0  0  0  0  0  0
  -20.0456  -39.1314   -7.5810 C   0  0  2  0  0  0  0  0  0  0  0  0
  -20.5221  -38.6456   -8.9104 C   0  0  0  0  0  0  0  0  0  0  0  0
  -20.7605  -38.3339   -6.5093 C   0  0  0  0  0  0  0  0  0  0  0  0
  -20.8490  -39.0458   -5.1971 C   0  0  0  0  0  0  0  0  0  0  0  0
  -21.9867  -40.0151   -5.1361 C   0  0  0  0  0  0  0  0  0  0  0  0
  -21.5740  -41.4233   -4.8396 C   0  0  0  0  0  0  0  0  0  0  0  0
  -22.3136  -42.4414   -5.6581 C   0  0  0  0  0  0  0  0  0  0  0  0
  -21.3873  -43.4621   -6.2784 C   0  0  0  0  0  0  0  0  0  0  0  0
  -20.4115  -42.8650   -7.0688 O   0  0  0  0  0  0  0  0  0  0  0  0
  -19.3687  -43.7149   -7.3665 C   0  0  0  0  0  0  0  0  0  0  0  0
  -18.0229  -43.1197   -7.1513 C   0  0  0  0  0  0  0  0  0  0  0  0
  -17.8189  -42.7179   -5.9488 O   0  0  0  0  0  0  0  0  0  0  0  0
  -17.0037  -42.9684   -8.1069 N   0  0  0  0  0  0  0  0  0  0  0  0
  -15.6798  -43.4762   -7.7359 C   0  0  0  0  0  0  0  0  0  0  0  0
  -17.0830  -42.3753   -9.4090 C   0  0  1  0  0  0  0  0  0  0  0  0
  -17.2460  -43.5804  -10.3743 C   0  0  0  0  0  0  0  0  0  0  0  0
  -18.1524  -41.4008   -9.6287 C   0  0  0  0  0  0  0  0  0  0  0  0
  -19.3114  -41.9451   -9.8051 O   0  0  0  0  0  0  0  0  0  0  0  0
  -18.1183  -40.0030   -9.6806 N   0  0  0  0  0  0  0  0  0  0  0  0
  -12.3871  -39.7250  -14.1733 C   0  0  0  0  0  0  0  0  0  0  0  0
  -12.3050  -41.1751  -13.7891 C   0  0  0  0  0  0  0  0  0  0  0  0
  -11.0898  -40.3507  -13.7047 C   0  0  0  0  0  0  0  0  0  0  0  0
  1  2  1  0
  2  3  1  0
  2  4  1  0
  4  5  1  0
  5  6  2  0
  6  7  1  0
  7  8  2  0
  8  9  1  0
  9 10  2  0
 10 11  1  0
 11 12  1  0
 12 13  1  0
 13 14  1  0
 14 15  1  6
 14 16  1  0
 16 17  1  1
 17 18  1  0
 18 19  1  6
 18 20  1  0
 20 21  1  0
 21 22  1  0
 22 23  1  0
 23 24  1  0
 24 25  1  0
 25 26  1  0
 26 27  1  0
 27 28  1  0
 28 29  2  0
 28 30  1  0
 30 31  1  0
 30 32  1  0
 32 33  1  6
 32 34  1  0
 34 35  2  0
 34 36  1  0
  8 37  1  0
 37 38  1  0
 38 39  1  0
 10  5  1  0
 36 16  1  0
 39 37  1  0
M  END
$$$$
