
     RDKit          3D

 39 41  0  0  0  0  0  0  0  0999 V2000
  -18.2066  -35.1596  -11.9224 C   0  0  0  0  0  0  0  0  0  0  0  0
  -17.8508  -36.5430  -11.3875 C   0  0  0  0  0  0  0  0  0  0  0  0
  -19.1021  -37.4015  -11.6529 C   0  0  0  0  0  0  0  0  0  0  0  0
  -16.7661  -37.0989  -12.0229 O   0  0  0  0  0  0  0  0  0  0  0  0
  -15.4722  -36.6158  -11.9064 C   0  0  0  0  0  0  0  0  0  0  0  0
  -15.0470  -35.4100  -12.3762 C   0  0  0  0  0  0  0  0  0  0  0  0
  -13.7314  -34.9743  -12.2309 C   0  0  0  0  0  0  0  0  0  0  0  0
  -12.8053  -35.7736  -11.5921 C   0  0  0  0  0  0  0  0  0  0  0  0
  -13.2320  -36.9800  -11.1223 C   0  0  0  0  0  0  0  0  0  0  0  0
  -14.5146  -37.4194  -11.2568 C   0  0  0  0  0  0  0  0  0  0  0  0
  -14.9546  -38.7562  -10.7322 C   0  0  0  0  0  0  0  0  0  0  0  0
  -15.2555  -38.6677   -9.3376 N   0  0  0  0  0  0  0  0  0  0  0  0
  -16.0026  -39.7661   -8.7954 C   0  0  0  0  0  0  0  0  0  0  0  0
  -16.7073  -39.4049   -7.5024 C   0  0  1  0  0  0  0  0  0  0  0  0
  -16.1519  -38.2437   -6.9891 O   0  0  0  0  0  0  0  0  0  0  0  0
  -18.2029  -39.3720   -7.6424 C   0  0  2  0  0  0  0  0  0  0  0  0
  -18.8043  -39.9216   -6.3681 C   0  0  0  0  0  0  0  0  0  0  0  0
  -20.3014  -39.8760   -6.3226 C   0  0  2  0  0  0  0  0  0  0  0  0
  -20.9394  -38.9659   -7.3201 C   0  0  0  0  0  0  0  0  0  0  0  0
  -20.8273  -39.5064   -4.9507 C   0  0  0  0  0  0  0  0  0  0  0  0
  -20.7598  -40.6291   -3.9649 C   0  0  0  0  0  0  0  0  0  0  0  0
  -21.9153  -41.5725   -4.0768 C   0  0  0  0  0  0  0  0  0  0  0  0
  -21.5213  -42.9915   -4.3454 C   0  0  0  0  0  0  0  0  0  0  0  0
  -22.4077  -43.6721   -5.3477 C   0  0  0  0  0  0  0  0  0  0  0  0
  -21.6183  -44.4048   -6.4081 C   0  0  0  0  0  0  0  0  0  0  0  0
  -20.7397  -43.5603   -7.0776 O   0  0  0  0  0  0  0  0  0  0  0  0
  -19.7832  -44.2430   -7.7969 C   0  0  0  0  0  0  0  0  0  0  0  0
  -18.3980  -43.7438   -7.5876 C   0  0  0  0  0  0  0  0  0  0  0  0
  -18.0123  -43.7803   -6.3633 O   0  0  0  0  0  0  0  0  0  0  0  0
  -17.5172  -43.2599   -8.5698 N   0  0  0  0  0  0  0  0  0  0  0  0
  -16.1756  -43.8497   -8.5918 C   0  0  0  0  0  0  0  0  0  0  0  0
  -17.7541  -42.2540   -9.5626 C   0  0  1  0  0  0  0  0  0  0  0  0
  -18.0980  -43.0528  -10.8489 C   0  0  0  0  0  0  0  0  0  0  0  0
  -18.8042  -41.2758   -9.2767 C   0  0  0  0  0  0  0  0  0  0  0  0
  -19.9972  -41.7386   -9.4597 O   0  0  0  0  0  0  0  0  0  0  0  0
  -18.7224  -39.9461   -8.8494 N   0  0  0  0  0  0  0  0  0  0  0  0
  -11.4138  -35.3171  -11.4385 C   0  0  0  0  0  0  0  0  0  0  0  0
  -10.2641  -36.1985  -11.8367 C   0  0  0  0  0  0  0  0  0  0  0  0
  -10.5352  -35.9921  -10.4058 C   0  0  0  0  0  0  0  0  0  0  0  0
  1  2  1  0
  2  3  1  0
  2  4  1  0
  4  5  1  0
  5  6  2  0
  6  7  1  0
  7  8  2  0
  8  9  1  0
  9 10  2  0
 10 11  1  0
 11 12  1  0
 12 13  1  0
 13 14  1  0
 14 15  1  6
 14 16  1  0
 16 17  1  1
 17 18  1  0
 18 19  1  6
 18 20  1  0
 20 21  1  0
 21 22  1  0
 22 23  1  0
 23 24  1  0
 24 25  1  0
 25 26  1  0
 26 27  1  0
 27 28  1  0
 28 29  2  0
 28 30  1  0
 30 31  1  0
 30 32  1  0
 32 33  1  6
 32 34  1  0
 34 35  2  0
 34 36  1  0
  8 37  1  0
 37 38  1  0
 38 39  1  0
 10  5  1  0
 36 16  1  0
 39 37  1  0
M  END
$$$$
