
     RDKit          3D

 39 41  0  0  0  0  0  0  0  0999 V2000
  -21.4767  -41.5219   -4.2501 C   0  0  0  0  0  0  0  0  0  0  0  0
  -21.6450  -41.2912   -5.7484 C   0  0  0  0  0  0  0  0  0  0  0  0
  -23.1176  -41.6396   -6.0373 C   0  0  0  0  0  0  0  0  0  0  0  0
  -21.3964  -39.9915   -6.1202 O   0  0  0  0  0  0  0  0  0  0  0  0
  -21.1429  -39.5968   -7.4245 C   0  0  0  0  0  0  0  0  0  0  0  0
  -21.9009  -39.9414   -8.5025 C   0  0  0  0  0  0  0  0  0  0  0  0
  -21.5984  -39.5151   -9.7943 C   0  0  0  0  0  0  0  0  0  0  0  0
  -20.4970  -38.7142  -10.0176 C   0  0  0  0  0  0  0  0  0  0  0  0
  -19.7392  -38.3700   -8.9380 C   0  0  0  0  0  0  0  0  0  0  0  0
  -20.0223  -38.7789   -7.6695 C   0  0  0  0  0  0  0  0  0  0  0  0
  -19.1660  -38.3867   -6.4995 C   0  0  0  0  0  0  0  0  0  0  0  0
  -18.1364  -39.3559   -6.2907 N   0  0  0  0  0  0  0  0  0  0  0  0
  -17.2431  -39.5568   -7.3954 C   0  0  0  0  0  0  0  0  0  0  0  0
  -15.8158  -39.8053   -6.9481 C   0  0  1  0  0  0  0  0  0  0  0  0
  -15.5680  -41.1688   -6.9499 O   0  0  0  0  0  0  0  0  0  0  0  0
  -14.8138  -38.9883   -7.7134 C   0  0  2  0  0  0  0  0  0  0  0  0
  -15.5295  -38.3413   -8.8783 C   0  0  0  0  0  0  0  0  0  0  0  0
  -14.6735  -37.4209   -9.6942 C   0  0  2  0  0  0  0  0  0  0  0  0
  -13.4087  -36.9790   -9.0346 C   0  0  0  0  0  0  0  0  0  0  0  0
  -15.4217  -36.1831  -10.1450 C   0  0  0  0  0  0  0  0  0  0  0  0
  -16.3597  -36.4356  -11.2821 C   0  0  0  0  0  0  0  0  0  0  0  0
  -15.6776  -36.4228  -12.6134 C   0  0  0  0  0  0  0  0  0  0  0  0
  -15.8359  -37.6911  -13.3928 C   0  0  0  0  0  0  0  0  0  0  0  0
  -14.5760  -38.1200  -14.0873 C   0  0  0  0  0  0  0  0  0  0  0  0
  -14.2686  -39.5833  -13.8670 C   0  0  0  0  0  0  0  0  0  0  0  0
  -14.1718  -39.8958  -12.5156 O   0  0  0  0  0  0  0  0  0  0  0  0
  -14.2312  -41.2507  -12.2730 C   0  0  0  0  0  0  0  0  0  0  0  0
  -15.1710  -41.6298  -11.1844 C   0  0  0  0  0  0  0  0  0  0  0  0
  -16.3818  -41.2542  -11.3894 O   0  0  0  0  0  0  0  0  0  0  0  0
  -14.8609  -42.3321  -10.0074 N   0  0  0  0  0  0  0  0  0  0  0  0
  -15.6969  -43.4967   -9.7022 C   0  0  0  0  0  0  0  0  0  0  0  0
  -13.8283  -42.0594   -9.0520 C   0  0  1  0  0  0  0  0  0  0  0  0
  -12.6748  -43.0224   -9.4429 C   0  0  0  0  0  0  0  0  0  0  0  0
  -13.3380  -40.6823   -8.9819 C   0  0  0  0  0  0  0  0  0  0  0  0
  -12.5297  -40.3782   -9.9436 O   0  0  0  0  0  0  0  0  0  0  0  0
  -13.5975  -39.6661   -8.0558 N   0  0  0  0  0  0  0  0  0  0  0  0
  -20.1734  -38.2635  -11.3816 C   0  0  0  0  0  0  0  0  0  0  0  0
  -20.3258  -36.8213  -11.7741 C   0  0  0  0  0  0  0  0  0  0  0  0
  -21.2995  -37.7998  -12.2821 C   0  0  0  0  0  0  0  0  0  0  0  0
  1  2  1  0
  2  3  1  0
  2  4  1  0
  4  5  1  0
  5  6  2  0
  6  7  1  0
  7  8  2  0
  8  9  1  0
  9 10  2  0
 10 11  1  0
 11 12  1  0
 12 13  1  0
 13 14  1  0
 14 15  1  6
 14 16  1  0
 16 17  1  6
 17 18  1  0
 18 19  1  1
 18 20  1  0
 20 21  1  0
 21 22  1  0
 22 23  1  0
 23 24  1  0
 24 25  1  0
 25 26  1  0
 26 27  1  0
 27 28  1  0
 28 29  2  0
 28 30  1  0
 30 31  1  0
 30 32  1  0
 32 33  1  6
 32 34  1  0
 34 35  2  0
 34 36  1  0
  8 37  1  0
 37 38  1  0
 38 39  1  0
 10  5  1  0
 36 16  1  0
 39 37  1  0
M  END
$$$$
