
     RDKit          3D

 39 41  0  0  0  0  0  0  0  0999 V2000
  -18.4000  -34.9712  -12.6147 C   0  0  0  0  0  0  0  0  0  0  0  0
  -17.4295  -35.4102  -11.5228 C   0  0  0  0  0  0  0  0  0  0  0  0
  -18.3191  -35.7003  -10.2989 C   0  0  0  0  0  0  0  0  0  0  0  0
  -16.7231  -36.5404  -11.8587 O   0  0  0  0  0  0  0  0  0  0  0  0
  -15.3523  -36.5616  -12.0626 C   0  0  0  0  0  0  0  0  0  0  0  0
  -14.7485  -36.7083  -13.2747 C   0  0  0  0  0  0  0  0  0  0  0  0
  -13.3628  -36.7227  -13.4213 C   0  0  0  0  0  0  0  0  0  0  0  0
  -12.5494  -36.5853  -12.3150 C   0  0  0  0  0  0  0  0  0  0  0  0
  -13.1548  -36.4384  -11.1025 C   0  0  0  0  0  0  0  0  0  0  0  0
  -14.5079  -36.4225  -10.9435 C   0  0  0  0  0  0  0  0  0  0  0  0
  -15.1464  -36.2631   -9.5934 C   0  0  0  0  0  0  0  0  0  0  0  0
  -15.3463  -37.5408   -8.9847 N   0  0  0  0  0  0  0  0  0  0  0  0
  -16.6218  -38.1502   -9.2307 C   0  0  0  0  0  0  0  0  0  0  0  0
  -17.1800  -38.8410   -8.0019 C   0  0  1  0  0  0  0  0  0  0  0  0
  -16.9313  -38.0582   -6.8857 O   0  0  0  0  0  0  0  0  0  0  0  0
  -18.6150  -39.2547   -8.1664 C   0  0  2  0  0  0  0  0  0  0  0  0
  -19.1031  -39.7889   -6.8382 C   0  0  0  0  0  0  0  0  0  0  0  0
  -20.5528  -40.1677   -6.8206 C   0  0  2  0  0  0  0  0  0  0  0  0
  -21.3682  -39.6104   -7.9409 C   0  0  0  0  0  0  0  0  0  0  0  0
  -21.2323  -39.7947   -5.5188 C   0  0  0  0  0  0  0  0  0  0  0  0
  -20.9031  -40.7185   -4.3896 C   0  0  0  0  0  0  0  0  0  0  0  0
  -21.7391  -41.9590   -4.3895 C   0  0  0  0  0  0  0  0  0  0  0  0
  -20.9483  -43.2283   -4.4584 C   0  0  0  0  0  0  0  0  0  0  0  0
  -21.5540  -44.2539   -5.3722 C   0  0  0  0  0  0  0  0  0  0  0  0
  -20.5363  -44.8574   -6.3126 C   0  0  0  0  0  0  0  0  0  0  0  0
  -19.8970  -43.8879   -7.0774 O   0  0  0  0  0  0  0  0  0  0  0  0
  -18.7510  -44.3534   -7.6842 C   0  0  0  0  0  0  0  0  0  0  0  0
  -17.5750  -43.4570   -7.5245 C   0  0  0  0  0  0  0  0  0  0  0  0
  -17.2590  -43.2280   -6.3011 O   0  0  0  0  0  0  0  0  0  0  0  0
  -16.8160  -42.8688   -8.5504 N   0  0  0  0  0  0  0  0  0  0  0  0
  -15.3634  -43.0486   -8.4734 C   0  0  0  0  0  0  0  0  0  0  0  0
  -17.2742  -42.1053   -9.6732 C   0  0  1  0  0  0  0  0  0  0  0  0
  -17.3120  -43.1238  -10.8446 C   0  0  0  0  0  0  0  0  0  0  0  0
  -18.5705  -41.4402   -9.5370 C   0  0  0  0  0  0  0  0  0  0  0  0
  -19.5739  -42.2437   -9.6728 O   0  0  0  0  0  0  0  0  0  0  0  0
  -18.8884  -40.0998   -9.2920 N   0  0  0  0  0  0  0  0  0  0  0  0
  -11.0848  -36.6018  -12.4661 C   0  0  0  0  0  0  0  0  0  0  0  0
  -10.2593  -37.7033  -11.8641 C   0  0  0  0  0  0  0  0  0  0  0  0
  -10.2232  -36.3709  -11.2419 C   0  0  0  0  0  0  0  0  0  0  0  0
  1  2  1  0
  2  3  1  0
  2  4  1  0
  4  5  1  0
  5  6  2  0
  6  7  1  0
  7  8  2  0
  8  9  1  0
  9 10  2  0
 10 11  1  0
 11 12  1  0
 12 13  1  0
 13 14  1  0
 14 15  1  1
 14 16  1  0
 16 17  1  1
 17 18  1  0
 18 19  1  6
 18 20  1  0
 20 21  1  0
 21 22  1  0
 22 23  1  0
 23 24  1  0
 24 25  1  0
 25 26  1  0
 26 27  1  0
 27 28  1  0
 28 29  2  0
 28 30  1  0
 30 31  1  0
 30 32  1  0
 32 33  1  6
 32 34  1  0
 34 35  2  0
 34 36  1  0
  8 37  1  0
 37 38  1  0
 38 39  1  0
 10  5  1  0
 36 16  1  0
 39 37  1  0
M  END
$$$$
