
     RDKit          3D

 39 41  0  0  0  0  0  0  0  0999 V2000
  -22.4742  -41.4846   -3.6902 C   0  0  0  0  0  0  0  0  0  0  0  0
  -21.5923  -41.6202   -4.9273 C   0  0  0  0  0  0  0  0  0  0  0  0
  -22.5581  -42.0264   -6.0566 C   0  0  0  0  0  0  0  0  0  0  0  0
  -20.9574  -40.4479   -5.2620 O   0  0  0  0  0  0  0  0  0  0  0  0
  -21.3010  -39.6691   -6.3558 C   0  0  0  0  0  0  0  0  0  0  0  0
  -22.2563  -38.6981   -6.3499 C   0  0  0  0  0  0  0  0  0  0  0  0
  -22.5612  -37.9443   -7.4815 C   0  0  0  0  0  0  0  0  0  0  0  0
  -21.8861  -38.1689   -8.6640 C   0  0  0  0  0  0  0  0  0  0  0  0
  -20.9302  -39.1408   -8.6687 C   0  0  0  0  0  0  0  0  0  0  0  0
  -20.6212  -39.8858   -7.5706 C   0  0  0  0  0  0  0  0  0  0  0  0
  -19.5652  -40.9532   -7.6073 C   0  0  0  0  0  0  0  0  0  0  0  0
  -18.5093  -40.6387   -6.6967 N   0  0  0  0  0  0  0  0  0  0  0  0
  -17.8523  -39.3831   -6.9218 C   0  0  0  0  0  0  0  0  0  0  0  0
  -17.2389  -39.2904   -8.3052 C   0  0  1  0  0  0  0  0  0  0  0  0
  -18.1637  -38.7404   -9.1785 O   0  0  0  0  0  0  0  0  0  0  0  0
  -15.8995  -38.6098   -8.3052 C   0  0  2  0  0  0  0  0  0  0  0  0
  -15.6784  -38.0121   -9.6769 C   0  0  0  0  0  0  0  0  0  0  0  0
  -14.4115  -37.2227   -9.8092 C   0  0  2  0  0  0  0  0  0  0  0  0
  -13.7788  -36.8169   -8.5187 C   0  0  0  0  0  0  0  0  0  0  0  0
  -14.5917  -35.9770  -10.6524 C   0  0  0  0  0  0  0  0  0  0  0  0
  -14.6559  -36.2559  -12.1203 C   0  0  0  0  0  0  0  0  0  0  0  0
  -13.3045  -36.3990  -12.7455 C   0  0  0  0  0  0  0  0  0  0  0  0
  -13.0837  -37.7127  -13.4286 C   0  0  0  0  0  0  0  0  0  0  0  0
  -11.7161  -38.2828  -13.1868 C   0  0  0  0  0  0  0  0  0  0  0  0
  -11.7637  -39.7410  -12.7922 C   0  0  0  0  0  0  0  0  0  0  0  0
  -12.5487  -39.9481  -11.6634 O   0  0  0  0  0  0  0  0  0  0  0  0
  -12.8858  -41.2715  -11.4803 C   0  0  0  0  0  0  0  0  0  0  0  0
  -14.3287  -41.4946  -11.1972 C   0  0  0  0  0  0  0  0  0  0  0  0
  -15.1121  -41.0541  -12.1145 O   0  0  0  0  0  0  0  0  0  0  0  0
  -14.8806  -42.1183  -10.0654 N   0  0  0  0  0  0  0  0  0  0  0  0
  -15.8444  -43.1935  -10.3170 C   0  0  0  0  0  0  0  0  0  0  0  0
  -14.6288  -41.8406   -8.6823 C   0  0  1  0  0  0  0  0  0  0  0  0
  -13.5867  -42.9097   -8.2561 C   0  0  0  0  0  0  0  0  0  0  0  0
  -14.1436  -40.4996   -8.3539 C   0  0  0  0  0  0  0  0  0  0  0  0
  -12.8893  -40.3315   -8.6169 O   0  0  0  0  0  0  0  0  0  0  0  0
  -14.8079  -39.3957   -7.8083 N   0  0  0  0  0  0  0  0  0  0  0  0
  -22.2070  -37.3754   -9.8621 C   0  0  0  0  0  0  0  0  0  0  0  0
  -21.9044  -37.8981  -11.2377 C   0  0  0  0  0  0  0  0  0  0  0  0
  -21.0700  -36.8166  -10.6922 C   0  0  0  0  0  0  0  0  0  0  0  0
  1  2  1  0
  2  3  1  0
  2  4  1  0
  4  5  1  0
  5  6  2  0
  6  7  1  0
  7  8  2  0
  8  9  1  0
  9 10  2  0
 10 11  1  0
 11 12  1  0
 12 13  1  0
 13 14  1  0
 14 15  1  6
 14 16  1  0
 16 17  1  6
 17 18  1  0
 18 19  1  1
 18 20  1  0
 20 21  1  0
 21 22  1  0
 22 23  1  0
 23 24  1  0
 24 25  1  0
 25 26  1  0
 26 27  1  0
 27 28  1  0
 28 29  2  0
 28 30  1  0
 30 31  1  0
 30 32  1  0
 32 33  1  6
 32 34  1  0
 34 35  2  0
 34 36  1  0
  8 37  1  0
 37 38  1  0
 38 39  1  0
 10  5  1  0
 36 16  1  0
 39 37  1  0
M  END
$$$$
