
     RDKit          3D

 39 41  0  0  0  0  0  0  0  0999 V2000
  -10.7308  -40.1225  -11.2044 C   0  0  0  0  0  0  0  0  0  0  0  0
  -11.4831  -38.8326  -11.5157 C   0  0  0  0  0  0  0  0  0  0  0  0
  -10.9293  -38.3728  -12.8777 C   0  0  0  0  0  0  0  0  0  0  0  0
  -12.8423  -39.0157  -11.6077 O   0  0  0  0  0  0  0  0  0  0  0  0
  -13.7387  -38.0030  -11.9109 C   0  0  0  0  0  0  0  0  0  0  0  0
  -13.9846  -37.5316  -13.1650 C   0  0  0  0  0  0  0  0  0  0  0  0
  -14.8985  -36.5091  -13.4120 C   0  0  0  0  0  0  0  0  0  0  0  0
  -15.5931  -35.9357  -12.3665 C   0  0  0  0  0  0  0  0  0  0  0  0
  -15.3463  -36.4082  -11.1119 C   0  0  0  0  0  0  0  0  0  0  0  0
  -14.4560  -37.4071  -10.8549 C   0  0  0  0  0  0  0  0  0  0  0  0
  -14.2020  -37.9044   -9.4606 C   0  0  0  0  0  0  0  0  0  0  0  0
  -14.4444  -39.3109   -9.3832 N   0  0  0  0  0  0  0  0  0  0  0  0
  -15.8209  -39.7067   -9.4686 C   0  0  0  0  0  0  0  0  0  0  0  0
  -16.6422  -39.2016   -8.2985 C   0  0  1  0  0  0  0  0  0  0  0  0
  -16.1773  -37.9521   -7.9203 O   0  0  0  0  0  0  0  0  0  0  0  0
  -18.1215  -39.2659   -8.5530 C   0  0  2  0  0  0  0  0  0  0  0  0
  -18.8183  -39.4383   -7.2217 C   0  0  0  0  0  0  0  0  0  0  0  0
  -20.3146  -39.4359   -7.3034 C   0  0  2  0  0  0  0  0  0  0  0  0
  -20.8802  -38.8831   -8.5702 C   0  0  0  0  0  0  0  0  0  0  0  0
  -20.9559  -38.6988   -6.1455 C   0  0  0  0  0  0  0  0  0  0  0  0
  -20.9550  -39.4790   -4.8695 C   0  0  0  0  0  0  0  0  0  0  0  0
  -22.0852  -40.4551   -4.7831 C   0  0  0  0  0  0  0  0  0  0  0  0
  -21.6523  -41.8750   -4.5897 C   0  0  0  0  0  0  0  0  0  0  0  0
  -22.4449  -42.8520   -5.4089 C   0  0  0  0  0  0  0  0  0  0  0  0
  -21.5619  -43.8347   -6.1431 C   0  0  0  0  0  0  0  0  0  0  0  0
  -20.6422  -43.1928   -6.9650 O   0  0  0  0  0  0  0  0  0  0  0  0
  -19.6213  -44.0214   -7.3768 C   0  0  0  0  0  0  0  0  0  0  0  0
  -18.2645  -43.4325   -7.2219 C   0  0  0  0  0  0  0  0  0  0  0  0
  -17.9799  -43.0935   -6.0164 O   0  0  0  0  0  0  0  0  0  0  0  0
  -17.3124  -43.2270   -8.2348 N   0  0  0  0  0  0  0  0  0  0  0  0
  -15.9661  -43.7478   -7.9812 C   0  0  0  0  0  0  0  0  0  0  0  0
  -17.4800  -42.5666   -9.4956 C   0  0  1  0  0  0  0  0  0  0  0  0
  -17.7071  -43.7201  -10.5098 C   0  0  0  0  0  0  0  0  0  0  0  0
  -18.5625  -41.5865   -9.5910 C   0  0  0  0  0  0  0  0  0  0  0  0
  -19.7304  -42.1258   -9.7172 O   0  0  0  0  0  0  0  0  0  0  0  0
  -18.5330  -40.1878   -9.5713 N   0  0  0  0  0  0  0  0  0  0  0  0
  -16.5583  -34.8537  -12.6238 C   0  0  0  0  0  0  0  0  0  0  0  0
  -16.1510  -33.4124  -12.5067 C   0  0  0  0  0  0  0  0  0  0  0  0
  -17.0125  -33.9914  -11.4644 C   0  0  0  0  0  0  0  0  0  0  0  0
  1  2  1  0
  2  3  1  0
  2  4  1  0
  4  5  1  0
  5  6  2  0
  6  7  1  0
  7  8  2  0
  8  9  1  0
  9 10  2  0
 10 11  1  0
 11 12  1  0
 12 13  1  0
 13 14  1  0
 14 15  1  6
 14 16  1  0
 16 17  1  1
 17 18  1  0
 18 19  1  6
 18 20  1  0
 20 21  1  0
 21 22  1  0
 22 23  1  0
 23 24  1  0
 24 25  1  0
 25 26  1  0
 26 27  1  0
 27 28  1  0
 28 29  2  0
 28 30  1  0
 30 31  1  0
 30 32  1  0
 32 33  1  6
 32 34  1  0
 34 35  2  0
 34 36  1  0
  8 37  1  0
 37 38  1  0
 38 39  1  0
 10  5  1  0
 36 16  1  0
 39 37  1  0
M  END
$$$$
