
     RDKit          3D

 39 41  0  0  0  0  0  0  0  0999 V2000
  -21.8253  -38.8835   -3.5851 C   0  0  0  0  0  0  0  0  0  0  0  0
  -21.5155  -39.5363   -4.9285 C   0  0  0  0  0  0  0  0  0  0  0  0
  -22.4062  -40.7926   -4.9703 C   0  0  0  0  0  0  0  0  0  0  0  0
  -21.8112  -38.7247   -5.9977 O   0  0  0  0  0  0  0  0  0  0  0  0
  -22.0475  -39.1936   -7.2804 C   0  0  0  0  0  0  0  0  0  0  0  0
  -22.9918  -40.1188   -7.6086 C   0  0  0  0  0  0  0  0  0  0  0  0
  -23.1860  -40.5548   -8.9178 C   0  0  0  0  0  0  0  0  0  0  0  0
  -22.4073  -40.0473   -9.9379 C   0  0  0  0  0  0  0  0  0  0  0  0
  -21.4626  -39.1215   -9.6083 C   0  0  0  0  0  0  0  0  0  0  0  0
  -21.2612  -38.6856   -8.3332 C   0  0  0  0  0  0  0  0  0  0  0  0
  -20.2091  -37.6668   -7.9998 C   0  0  0  0  0  0  0  0  0  0  0  0
  -19.2632  -38.2132   -7.0778 N   0  0  0  0  0  0  0  0  0  0  0  0
  -18.4138  -39.2439   -7.6018 C   0  0  0  0  0  0  0  0  0  0  0  0
  -17.2717  -38.6879   -8.4297 C   0  0  1  0  0  0  0  0  0  0  0  0
  -17.2959  -37.3036   -8.3689 O   0  0  0  0  0  0  0  0  0  0  0  0
  -15.9460  -39.3044   -8.0837 C   0  0  2  0  0  0  0  0  0  0  0  0
  -15.0707  -39.2538   -9.3162 C   0  0  0  0  0  0  0  0  0  0  0  0
  -13.6766  -39.7608   -9.1041 C   0  0  2  0  0  0  0  0  0  0  0  0
  -13.2472  -39.8593   -7.6771 C   0  0  0  0  0  0  0  0  0  0  0  0
  -12.6430  -38.9388   -9.8465 C   0  0  0  0  0  0  0  0  0  0  0  0
  -12.5997  -39.2218  -11.3144 C   0  0  0  0  0  0  0  0  0  0  0  0
  -11.7806  -40.4274  -11.6510 C   0  0  0  0  0  0  0  0  0  0  0  0
  -12.5325  -41.4893  -12.3915 C   0  0  0  0  0  0  0  0  0  0  0  0
  -12.2123  -42.8784  -11.9208 C   0  0  0  0  0  0  0  0  0  0  0  0
  -13.4554  -43.7046  -11.6827 C   0  0  0  0  0  0  0  0  0  0  0  0
  -14.3127  -43.1013  -10.7693 O   0  0  0  0  0  0  0  0  0  0  0  0
  -15.5799  -43.6419  -10.7854 C   0  0  0  0  0  0  0  0  0  0  0  0
  -16.6687  -42.6302  -10.8351 C   0  0  0  0  0  0  0  0  0  0  0  0
  -16.6052  -41.8483  -11.8519 O   0  0  0  0  0  0  0  0  0  0  0  0
  -17.7122  -42.4663   -9.9084 N   0  0  0  0  0  0  0  0  0  0  0  0
  -19.0705  -42.4137  -10.4566 C   0  0  0  0  0  0  0  0  0  0  0  0
  -17.6277  -42.3387   -8.4835 C   0  0  1  0  0  0  0  0  0  0  0  0
  -17.9267  -43.7653   -7.9486 C   0  0  0  0  0  0  0  0  0  0  0  0
  -16.3627  -41.8464   -7.9367 C   0  0  0  0  0  0  0  0  0  0  0  0
  -15.4329  -42.7439   -7.9124 O   0  0  0  0  0  0  0  0  0  0  0  0
  -16.0097  -40.5857   -7.4432 N   0  0  0  0  0  0  0  0  0  0  0  0
  -22.6086  -40.5072  -11.3222 C   0  0  0  0  0  0  0  0  0  0  0  0
  -23.2134  -41.8524  -11.6081 C   0  0  0  0  0  0  0  0  0  0  0  0
  -21.7728  -41.6614  -11.8355 C   0  0  0  0  0  0  0  0  0  0  0  0
  1  2  1  0
  2  3  1  0
  2  4  1  0
  4  5  1  0
  5  6  2  0
  6  7  1  0
  7  8  2  0
  8  9  1  0
  9 10  2  0
 10 11  1  0
 11 12  1  0
 12 13  1  0
 13 14  1  0
 14 15  1  1
 14 16  1  0
 16 17  1  6
 17 18  1  0
 18 19  1  1
 18 20  1  0
 20 21  1  0
 21 22  1  0
 22 23  1  0
 23 24  1  0
 24 25  1  0
 25 26  1  0
 26 27  1  0
 27 28  1  0
 28 29  2  0
 28 30  1  0
 30 31  1  0
 30 32  1  0
 32 33  1  1
 32 34  1  0
 34 35  2  0
 34 36  1  0
  8 37  1  0
 37 38  1  0
 38 39  1  0
 10  5  1  0
 36 16  1  0
 39 37  1  0
M  END
$$$$
