
     RDKit          3D

 39 41  0  0  0  0  0  0  0  0999 V2000
  -14.3448  -35.0666  -11.5522 C   0  0  0  0  0  0  0  0  0  0  0  0
  -14.0156  -36.1451  -12.5795 C   0  0  0  0  0  0  0  0  0  0  0  0
  -12.4788  -36.2505  -12.5608 C   0  0  0  0  0  0  0  0  0  0  0  0
  -14.5661  -37.3655  -12.2682 O   0  0  0  0  0  0  0  0  0  0  0  0
  -13.8204  -38.5015  -11.9953 C   0  0  0  0  0  0  0  0  0  0  0  0
  -13.4400  -39.4236  -12.9230 C   0  0  0  0  0  0  0  0  0  0  0  0
  -12.6891  -40.5496  -12.5915 C   0  0  0  0  0  0  0  0  0  0  0  0
  -12.3035  -40.7626  -11.2837 C   0  0  0  0  0  0  0  0  0  0  0  0
  -12.6846  -39.8392  -10.3563 C   0  0  0  0  0  0  0  0  0  0  0  0
  -13.4186  -38.7337  -10.6651 C   0  0  0  0  0  0  0  0  0  0  0  0
  -13.8273  -37.7351   -9.6203 C   0  0  0  0  0  0  0  0  0  0  0  0
  -15.2094  -37.8964   -9.2931 N   0  0  0  0  0  0  0  0  0  0  0  0
  -15.6522  -39.2513   -9.1303 C   0  0  0  0  0  0  0  0  0  0  0  0
  -16.5354  -39.4293   -7.9107 C   0  0  1  0  0  0  0  0  0  0  0  0
  -16.1117  -38.5681   -6.9110 O   0  0  0  0  0  0  0  0  0  0  0  0
  -18.0001  -39.3386   -8.2327 C   0  0  2  0  0  0  0  0  0  0  0  0
  -18.7753  -39.5740   -6.9555 C   0  0  0  0  0  0  0  0  0  0  0  0
  -20.2601  -39.4321   -7.0998 C   0  0  2  0  0  0  0  0  0  0  0  0
  -20.7127  -38.7143   -8.3287 C   0  0  0  0  0  0  0  0  0  0  0  0
  -20.8954  -38.7542   -5.9031 C   0  0  0  0  0  0  0  0  0  0  0  0
  -21.0243  -39.6485   -4.7113 C   0  0  0  0  0  0  0  0  0  0  0  0
  -22.2351  -40.5251   -4.7694 C   0  0  0  0  0  0  0  0  0  0  0  0
  -21.9328  -41.9895   -4.6987 C   0  0  0  0  0  0  0  0  0  0  0  0
  -22.7617  -42.8111   -5.6430 C   0  0  0  0  0  0  0  0  0  0  0  0
  -21.9279  -43.7939   -6.4325 C   0  0  0  0  0  0  0  0  0  0  0  0
  -20.9174  -43.1607   -7.1475 O   0  0  0  0  0  0  0  0  0  0  0  0
  -19.9497  -44.0333   -7.5953 C   0  0  0  0  0  0  0  0  0  0  0  0
  -18.5580  -43.5836   -7.3259 C   0  0  0  0  0  0  0  0  0  0  0  0
  -18.3076  -43.3864   -6.0819 O   0  0  0  0  0  0  0  0  0  0  0  0
  -17.5420  -43.3678   -8.2724 N   0  0  0  0  0  0  0  0  0  0  0  0
  -16.2585  -44.0269   -8.0147 C   0  0  0  0  0  0  0  0  0  0  0  0
  -17.5897  -42.5790   -9.4679 C   0  0  1  0  0  0  0  0  0  0  0  0
  -17.8608  -43.6070  -10.5995 C   0  0  0  0  0  0  0  0  0  0  0  0
  -18.5803  -41.5028   -9.5120 C   0  0  0  0  0  0  0  0  0  0  0  0
  -19.7813  -41.9228   -9.7400 O   0  0  0  0  0  0  0  0  0  0  0  0
  -18.4351  -40.1203   -9.3533 N   0  0  0  0  0  0  0  0  0  0  0  0
  -11.5114  -41.9525  -10.9297 C   0  0  0  0  0  0  0  0  0  0  0  0
  -12.1230  -43.3244  -10.9627 C   0  0  0  0  0  0  0  0  0  0  0  0
  -11.8509  -42.7019   -9.6580 C   0  0  0  0  0  0  0  0  0  0  0  0
  1  2  1  0
  2  3  1  0
  2  4  1  0
  4  5  1  0
  5  6  2  0
  6  7  1  0
  7  8  2  0
  8  9  1  0
  9 10  2  0
 10 11  1  0
 11 12  1  0
 12 13  1  0
 13 14  1  0
 14 15  1  1
 14 16  1  0
 16 17  1  1
 17 18  1  0
 18 19  1  6
 18 20  1  0
 20 21  1  0
 21 22  1  0
 22 23  1  0
 23 24  1  0
 24 25  1  0
 25 26  1  0
 26 27  1  0
 27 28  1  0
 28 29  2  0
 28 30  1  0
 30 31  1  0
 30 32  1  0
 32 33  1  6
 32 34  1  0
 34 35  2  0
 34 36  1  0
  8 37  1  0
 37 38  1  0
 38 39  1  0
 10  5  1  0
 36 16  1  0
 39 37  1  0
M  END
$$$$
