
     RDKit          3D

 40 43  0  0  0  0  0  0  0  0999 V2000
  -14.2018  -34.2265  -11.7475 C   0  0  0  0  0  0  0  0  0  0  0  0
  -13.4309  -35.0890  -12.7229 C   0  0  0  0  0  0  0  0  0  0  0  0
  -13.1249  -34.3627  -14.0108 C   0  0  0  0  0  0  0  0  0  0  0  0
  -12.1505  -35.5772  -12.0755 C   0  0  0  0  0  0  0  0  0  0  0  0
  -12.0618  -37.0495  -12.0730 C   0  0  0  0  0  0  0  0  0  0  0  0
  -12.7576  -37.8454  -11.1650 C   0  0  0  0  0  0  0  0  0  0  0  0
  -12.6719  -39.2241  -11.1662 C   0  0  0  0  0  0  0  0  0  0  0  0
  -11.8629  -39.8325  -12.1073 C   0  0  0  0  0  0  0  0  0  0  0  0
  -11.1920  -39.0628  -12.9830 N   0  0  0  0  0  0  0  0  0  0  0  0
  -11.2745  -37.7195  -12.9830 C   0  0  0  0  0  0  0  0  0  0  0  0
  -13.4434  -40.0419  -10.1656 C   0  0  0  0  0  0  0  0  0  0  0  0
  -13.7986  -41.3361  -10.8649 C   0  0  0  0  0  0  0  0  0  0  0  0
  -12.5023  -40.3280   -9.0272 C   0  0  0  0  0  0  0  0  0  0  0  0
  -14.5989  -39.2728   -9.8049 N   0  0  0  0  0  0  0  0  0  0  0  0
  -15.5207  -39.9891   -8.9539 C   0  0  0  0  0  0  0  0  0  0  0  0
  -16.3160  -38.9688   -8.1717 C   0  0  1  0  0  0  0  0  0  0  0  0
  -16.6252  -37.9382   -9.0583 O   0  0  0  0  0  0  0  0  0  0  0  0
  -17.5820  -39.5836   -7.5807 C   0  0  2  0  0  0  0  0  0  0  0  0
  -18.3599  -38.5670   -6.7988 C   0  0  0  0  0  0  0  0  0  0  0  0
  -19.7235  -38.9451   -6.3607 C   0  0  0  0  0  0  0  0  0  0  0  0
  -20.8789  -39.1267   -7.0972 C   0  0  0  0  0  0  0  0  0  0  0  0
  -22.0351  -39.4933   -6.4274 C   0  0  0  0  0  0  0  0  0  0  0  0
  -22.0124  -39.6707   -5.0218 C   0  0  0  0  0  0  0  0  0  0  0  0
  -20.8884  -39.4986   -4.2696 C   0  0  0  0  0  0  0  0  0  0  0  0
  -19.7630  -39.1377   -4.9622 C   0  0  0  0  0  0  0  0  0  0  0  0
  -23.2986  -39.7338   -6.9155 O   0  0  0  0  0  0  0  0  0  0  0  0
  -23.9169  -40.4795   -7.8957 C   0  0  0  0  0  0  0  0  0  0  0  0
  -23.6785  -41.9452   -7.6795 C   0  0  0  0  0  0  0  0  0  0  0  0
  -23.8862  -42.7149   -8.9858 C   0  0  0  0  0  0  0  0  0  0  0  0
  -22.7435  -42.4143   -9.9072 C   0  0  0  0  0  0  0  0  0  0  0  0
  -21.6895  -43.4084   -9.8231 N   0  0  0  0  0  0  0  0  0  0  0  0
  -20.3146  -43.2942   -9.4593 C   0  0  0  0  0  0  0  0  0  0  0  0
  -19.6803  -42.6168   -8.4424 C   0  0  0  0  0  0  0  0  0  0  0  0
  -18.3106  -42.6963   -8.3403 C   0  0  0  0  0  0  0  0  0  0  0  0
  -17.5904  -43.4771   -9.2857 C   0  0  0  0  0  0  0  0  0  0  0  0
  -18.1769  -44.1658  -10.3088 C   0  0  0  0  0  0  0  0  0  0  0  0
  -19.5378  -44.0570  -10.3718 C   0  0  0  0  0  0  0  0  0  0  0  0
  -17.3599  -42.1029   -7.3934 C   0  0  0  0  0  0  0  0  0  0  0  0
  -16.3681  -42.8404   -6.9257 O   0  0  0  0  0  0  0  0  0  0  0  0
  -17.2848  -40.7920   -6.8393 N   0  0  0  0  0  0  0  0  0  0  0  0
  1  2  1  0
  2  3  1  0
  2  4  1  0
  4  5  1  0
  5  6  2  0
  6  7  1  0
  7  8  2  0
  8  9  1  0
  9 10  2  0
  7 11  1  0
 11 12  1  0
 11 13  1  0
 11 14  1  0
 14 15  1  0
 15 16  1  0
 16 17  1  6
 16 18  1  0
 18 19  1  1
 19 20  1  0
 20 21  2  0
 21 22  1  0
 22 23  2  0
 23 24  1  0
 24 25  2  0
 22 26  1  0
 26 27  1  0
 27 28  1  0
 28 29  1  0
 29 30  1  0
 30 31  1  0
 31 32  1  0
 32 33  2  0
 33 34  1  0
 34 35  2  0
 35 36  1  0
 36 37  2  0
 34 38  1  0
 38 39  2  0
 38 40  1  0
 10  5  1  0
 25 20  1  0
 37 32  1  0
 40 18  1  0
M  END
$$$$
