
     RDKit          3D

 40 43  0  0  0  0  0  0  0  0999 V2000
  -10.5027  -34.3187  -13.1410 C   0  0  0  0  0  0  0  0  0  0  0  0
  -10.9883  -35.5974  -12.4939 C   0  0  0  0  0  0  0  0  0  0  0  0
  -11.1249  -35.4645  -10.9961 C   0  0  0  0  0  0  0  0  0  0  0  0
  -12.3090  -36.0146  -13.1091 C   0  0  0  0  0  0  0  0  0  0  0  0
  -13.2833  -36.4384  -12.0860 C   0  0  0  0  0  0  0  0  0  0  0  0
  -13.4346  -37.7669  -11.6931 C   0  0  0  0  0  0  0  0  0  0  0  0
  -14.3482  -38.1596  -10.7344 C   0  0  0  0  0  0  0  0  0  0  0  0
  -15.1403  -37.1925  -10.1448 C   0  0  0  0  0  0  0  0  0  0  0  0
  -14.9930  -35.9107  -10.5251 N   0  0  0  0  0  0  0  0  0  0  0  0
  -14.1034  -35.5267  -11.4590 C   0  0  0  0  0  0  0  0  0  0  0  0
  -14.4749  -39.6071  -10.3422 C   0  0  0  0  0  0  0  0  0  0  0  0
  -14.3430  -40.4027  -11.6227 C   0  0  0  0  0  0  0  0  0  0  0  0
  -13.3101  -39.9115   -9.4397 C   0  0  0  0  0  0  0  0  0  0  0  0
  -15.7613  -39.7584   -9.7268 N   0  0  0  0  0  0  0  0  0  0  0  0
  -15.7353  -39.5780   -8.2937 C   0  0  0  0  0  0  0  0  0  0  0  0
  -16.8670  -38.6463   -7.9243 C   0  0  1  0  0  0  0  0  0  0  0  0
  -17.1762  -37.9184   -9.0726 O   0  0  0  0  0  0  0  0  0  0  0  0
  -18.0827  -39.4194   -7.4198 C   0  0  2  0  0  0  0  0  0  0  0  0
  -19.0085  -38.5245   -6.6503 C   0  0  0  0  0  0  0  0  0  0  0  0
  -20.3404  -39.0681   -6.2966 C   0  0  0  0  0  0  0  0  0  0  0  0
  -21.4299  -39.3513   -7.0983 C   0  0  0  0  0  0  0  0  0  0  0  0
  -22.5687  -39.8684   -6.5020 C   0  0  0  0  0  0  0  0  0  0  0  0
  -22.5953  -40.0920   -5.1030 C   0  0  0  0  0  0  0  0  0  0  0  0
  -21.5366  -39.8223   -4.2875 C   0  0  0  0  0  0  0  0  0  0  0  0
  -20.4266  -39.3134   -4.9085 C   0  0  0  0  0  0  0  0  0  0  0  0
  -23.7712  -40.2312   -7.0633 O   0  0  0  0  0  0  0  0  0  0  0  0
  -24.2518  -41.0060   -8.0967 C   0  0  0  0  0  0  0  0  0  0  0  0
  -23.8596  -42.4426   -7.9118 C   0  0  0  0  0  0  0  0  0  0  0  0
  -23.9139  -43.1837   -9.2497 C   0  0  0  0  0  0  0  0  0  0  0  0
  -22.7686  -42.7248  -10.0999 C   0  0  0  0  0  0  0  0  0  0  0  0
  -21.6141  -43.5972   -9.9896 N   0  0  0  0  0  0  0  0  0  0  0  0
  -20.2806  -43.3430   -9.5502 C   0  0  0  0  0  0  0  0  0  0  0  0
  -19.7782  -42.6355   -8.4814 C   0  0  0  0  0  0  0  0  0  0  0  0
  -18.4151  -42.5650   -8.3093 C   0  0  0  0  0  0  0  0  0  0  0  0
  -17.5652  -43.2263   -9.2380 C   0  0  0  0  0  0  0  0  0  0  0  0
  -18.0187  -43.9394  -10.3108 C   0  0  0  0  0  0  0  0  0  0  0  0
  -19.3783  -43.9813  -10.4426 C   0  0  0  0  0  0  0  0  0  0  0  0
  -17.5857  -41.9031   -7.2961 C   0  0  0  0  0  0  0  0  0  0  0  0
  -16.5410  -42.5413   -6.7986 O   0  0  0  0  0  0  0  0  0  0  0  0
  -17.6872  -40.6126   -6.7000 N   0  0  0  0  0  0  0  0  0  0  0  0
  1  2  1  0
  2  3  1  0
  2  4  1  0
  4  5  1  0
  5  6  2  0
  6  7  1  0
  7  8  2  0
  8  9  1  0
  9 10  2  0
  7 11  1  0
 11 12  1  0
 11 13  1  0
 11 14  1  0
 14 15  1  0
 15 16  1  0
 16 17  1  6
 16 18  1  0
 18 19  1  1
 19 20  1  0
 20 21  2  0
 21 22  1  0
 22 23  2  0
 23 24  1  0
 24 25  2  0
 22 26  1  0
 26 27  1  0
 27 28  1  0
 28 29  1  0
 29 30  1  0
 30 31  1  0
 31 32  1  0
 32 33  2  0
 33 34  1  0
 34 35  2  0
 35 36  1  0
 36 37  2  0
 34 38  1  0
 38 39  2  0
 38 40  1  0
 10  5  1  0
 25 20  1  0
 37 32  1  0
 40 18  1  0
M  END
$$$$
