
     RDKit          3D

 40 43  0  0  0  0  0  0  0  0999 V2000
  -12.6655  -40.8331  -14.4130 C   0  0  0  0  0  0  0  0  0  0  0  0
  -12.1106  -41.0950  -13.0299 C   0  0  0  0  0  0  0  0  0  0  0  0
  -11.2568  -42.3393  -12.9822 C   0  0  0  0  0  0  0  0  0  0  0  0
  -11.3173  -39.8926  -12.5589 C   0  0  0  0  0  0  0  0  0  0  0  0
  -12.1728  -38.7044  -12.3803 C   0  0  0  0  0  0  0  0  0  0  0  0
  -13.4193  -38.7590  -11.7596 C   0  0  0  0  0  0  0  0  0  0  0  0
  -14.2174  -37.6438  -11.5940 C   0  0  0  0  0  0  0  0  0  0  0  0
  -13.7561  -36.4287  -12.0644 C   0  0  0  0  0  0  0  0  0  0  0  0
  -12.5527  -36.3777  -12.6632 N   0  0  0  0  0  0  0  0  0  0  0  0
  -11.7742  -37.4634  -12.8252 C   0  0  0  0  0  0  0  0  0  0  0  0
  -15.5566  -37.7522  -10.9161 C   0  0  0  0  0  0  0  0  0  0  0  0
  -16.4556  -36.7434  -11.5975 C   0  0  0  0  0  0  0  0  0  0  0  0
  -16.0648  -39.1420  -11.1880 C   0  0  0  0  0  0  0  0  0  0  0  0
  -15.3440  -37.4559   -9.5292 N   0  0  0  0  0  0  0  0  0  0  0  0
  -15.5169  -38.6013   -8.6659 C   0  0  0  0  0  0  0  0  0  0  0  0
  -16.2173  -38.1328   -7.4108 C   0  0  1  0  0  0  0  0  0  0  0  0
  -16.4543  -36.7683   -7.5712 O   0  0  0  0  0  0  0  0  0  0  0  0
  -17.5207  -38.8940   -7.1834 C   0  0  2  0  0  0  0  0  0  0  0  0
  -18.4014  -38.1736   -6.2059 C   0  0  0  0  0  0  0  0  0  0  0  0
  -19.7925  -38.6609   -6.0577 C   0  0  0  0  0  0  0  0  0  0  0  0
  -20.8608  -38.5892   -6.9316 C   0  0  0  0  0  0  0  0  0  0  0  0
  -22.0697  -39.1411   -6.5395 C   0  0  0  0  0  0  0  0  0  0  0  0
  -22.1870  -39.7575   -5.2690 C   0  0  0  0  0  0  0  0  0  0  0  0
  -21.1513  -39.8430   -4.3866 C   0  0  0  0  0  0  0  0  0  0  0  0
  -19.9705  -39.2889   -4.8054 C   0  0  0  0  0  0  0  0  0  0  0  0
  -23.2695  -39.2035   -7.2096 O   0  0  0  0  0  0  0  0  0  0  0  0
  -23.7638  -39.5930   -8.4356 C   0  0  0  0  0  0  0  0  0  0  0  0
  -23.5104  -41.0530   -8.6724 C   0  0  0  0  0  0  0  0  0  0  0  0
  -23.5622  -41.3644  -10.1699 C   0  0  0  0  0  0  0  0  0  0  0  0
  -22.3392  -40.7948  -10.8216 C   0  0  0  0  0  0  0  0  0  0  0  0
  -21.2736  -41.7721  -10.9466 N   0  0  0  0  0  0  0  0  0  0  0  0
  -19.9468  -41.7905  -10.4219 C   0  0  0  0  0  0  0  0  0  0  0  0
  -19.4386  -41.4777   -9.1814 C   0  0  0  0  0  0  0  0  0  0  0  0
  -18.0850  -41.5963   -8.9654 C   0  0  0  0  0  0  0  0  0  0  0  0
  -17.2512  -42.0406  -10.0280 C   0  0  0  0  0  0  0  0  0  0  0  0
  -17.7110  -42.3627  -11.2730 C   0  0  0  0  0  0  0  0  0  0  0  0
  -19.0605  -42.2288  -11.4419 C   0  0  0  0  0  0  0  0  0  0  0  0
  -17.2527  -41.3432   -7.7839 C   0  0  0  0  0  0  0  0  0  0  0  0
  -16.2953  -42.1991   -7.4726 O   0  0  0  0  0  0  0  0  0  0  0  0
  -17.2696  -40.2780   -6.8374 N   0  0  0  0  0  0  0  0  0  0  0  0
  1  2  1  0
  2  3  1  0
  2  4  1  0
  4  5  1  0
  5  6  2  0
  6  7  1  0
  7  8  2  0
  8  9  1  0
  9 10  2  0
  7 11  1  0
 11 12  1  0
 11 13  1  0
 11 14  1  0
 14 15  1  0
 15 16  1  0
 16 17  1  6
 16 18  1  0
 18 19  1  1
 19 20  1  0
 20 21  2  0
 21 22  1  0
 22 23  2  0
 23 24  1  0
 24 25  2  0
 22 26  1  0
 26 27  1  0
 27 28  1  0
 28 29  1  0
 29 30  1  0
 30 31  1  0
 31 32  1  0
 32 33  2  0
 33 34  1  0
 34 35  2  0
 35 36  1  0
 36 37  2  0
 34 38  1  0
 38 39  2  0
 38 40  1  0
 10  5  1  0
 25 20  1  0
 37 32  1  0
 40 18  1  0
M  END
$$$$
