
     RDKit          3D

 40 43  0  0  0  0  0  0  0  0999 V2000
  -24.0854  -40.3142   -4.7924 C   0  0  0  0  0  0  0  0  0  0  0  0
  -24.0928  -41.7566   -5.2498 C   0  0  0  0  0  0  0  0  0  0  0  0
  -24.1631  -41.8797   -6.7529 C   0  0  0  0  0  0  0  0  0  0  0  0
  -22.8656  -42.4698   -4.7188 C   0  0  0  0  0  0  0  0  0  0  0  0
  -21.6559  -42.1342   -5.4932 C   0  0  0  0  0  0  0  0  0  0  0  0
  -21.4849  -40.9069   -6.1308 C   0  0  0  0  0  0  0  0  0  0  0  0
  -20.3503  -40.5965   -6.8549 C   0  0  0  0  0  0  0  0  0  0  0  0
  -19.3485  -41.5444   -6.9470 C   0  0  0  0  0  0  0  0  0  0  0  0
  -19.5151  -42.7285   -6.3310 N   0  0  0  0  0  0  0  0  0  0  0  0
  -20.6200  -43.0322   -5.6252 C   0  0  0  0  0  0  0  0  0  0  0  0
  -20.2106  -39.2565   -7.5257 C   0  0  0  0  0  0  0  0  0  0  0  0
  -20.7871  -39.4199   -8.9153 C   0  0  0  0  0  0  0  0  0  0  0  0
  -21.0578  -38.2924   -6.7406 C   0  0  0  0  0  0  0  0  0  0  0  0
  -18.8109  -38.9447   -7.5406 N   0  0  0  0  0  0  0  0  0  0  0  0
  -17.9645  -40.1024   -7.3660 C   0  0  0  0  0  0  0  0  0  0  0  0
  -16.5345  -39.6204   -7.2768 C   0  0  1  0  0  0  0  0  0  0  0  0
  -15.7609  -40.7268   -6.9283 O   0  0  0  0  0  0  0  0  0  0  0  0
  -16.0667  -39.0173   -8.5988 C   0  0  2  0  0  0  0  0  0  0  0  0
  -16.0046  -37.5208   -8.5158 C   0  0  0  0  0  0  0  0  0  0  0  0
  -15.3493  -36.8050   -9.6350 C   0  0  0  0  0  0  0  0  0  0  0  0
  -14.0173  -36.7477   -9.9991 C   0  0  0  0  0  0  0  0  0  0  0  0
  -13.6713  -35.9983  -11.1121 C   0  0  0  0  0  0  0  0  0  0  0  0
  -14.6735  -35.3140  -11.8436 C   0  0  0  0  0  0  0  0  0  0  0  0
  -15.9944  -35.3521  -11.5083 C   0  0  0  0  0  0  0  0  0  0  0  0
  -16.3027  -36.1024  -10.4043 C   0  0  0  0  0  0  0  0  0  0  0  0
  -12.4373  -35.7796  -11.6794 O   0  0  0  0  0  0  0  0  0  0  0  0
  -11.3475  -36.4977  -12.1221 C   0  0  0  0  0  0  0  0  0  0  0  0
  -11.7381  -37.4265  -13.2342 C   0  0  0  0  0  0  0  0  0  0  0  0
  -10.7171  -38.5593  -13.3626 C   0  0  0  0  0  0  0  0  0  0  0  0
  -10.8815  -39.4883  -12.1985 C   0  0  0  0  0  0  0  0  0  0  0  0
  -11.7428  -40.6147  -12.5078 N   0  0  0  0  0  0  0  0  0  0  0  0
  -12.9763  -41.0425  -11.9322 C   0  0  0  0  0  0  0  0  0  0  0  0
  -14.1062  -40.3550  -11.5504 C   0  0  0  0  0  0  0  0  0  0  0  0
  -15.1631  -41.0536  -11.0140 C   0  0  0  0  0  0  0  0  0  0  0  0
  -15.0590  -42.4646  -10.8717 C   0  0  0  0  0  0  0  0  0  0  0  0
  -13.9595  -43.1875  -11.2372 C   0  0  0  0  0  0  0  0  0  0  0  0
  -12.9347  -42.4524  -11.7637 C   0  0  0  0  0  0  0  0  0  0  0  0
  -16.4753  -40.6229  -10.5187 C   0  0  0  0  0  0  0  0  0  0  0  0
  -17.5465  -41.3337  -10.8243 O   0  0  0  0  0  0  0  0  0  0  0  0
  -16.8525  -39.5110   -9.7109 N   0  0  0  0  0  0  0  0  0  0  0  0
  1  2  1  0
  2  3  1  0
  2  4  1  0
  4  5  1  0
  5  6  2  0
  6  7  1  0
  7  8  2  0
  8  9  1  0
  9 10  2  0
  7 11  1  0
 11 12  1  0
 11 13  1  0
 11 14  1  0
 14 15  1  0
 15 16  1  0
 16 17  1  6
 16 18  1  0
 18 19  1  1
 19 20  1  0
 20 21  2  0
 21 22  1  0
 22 23  2  0
 23 24  1  0
 24 25  2  0
 22 26  1  0
 26 27  1  0
 27 28  1  0
 28 29  1  0
 29 30  1  0
 30 31  1  0
 31 32  1  0
 32 33  2  0
 33 34  1  0
 34 35  2  0
 35 36  1  0
 36 37  2  0
 34 38  1  0
 38 39  2  0
 38 40  1  0
 10  5  1  0
 25 20  1  0
 37 32  1  0
 40 18  1  0
M  END
$$$$
