
     RDKit          3D

 40 43  0  0  0  0  0  0  0  0999 V2000
  -11.9775  -38.2596  -13.8830 C   0  0  0  0  0  0  0  0  0  0  0  0
  -12.8582  -37.0571  -13.6228 C   0  0  0  0  0  0  0  0  0  0  0  0
  -13.4396  -36.4879  -14.8946 C   0  0  0  0  0  0  0  0  0  0  0  0
  -13.9652  -37.4308  -12.6576 C   0  0  0  0  0  0  0  0  0  0  0  0
  -13.4344  -37.8525  -11.3477 C   0  0  0  0  0  0  0  0  0  0  0  0
  -13.7546  -39.0760  -10.7626 C   0  0  0  0  0  0  0  0  0  0  0  0
  -13.2551  -39.4672   -9.5357 C   0  0  0  0  0  0  0  0  0  0  0  0
  -12.4044  -38.6073   -8.8668 C   0  0  0  0  0  0  0  0  0  0  0  0
  -12.0962  -37.4267   -9.4330 N   0  0  0  0  0  0  0  0  0  0  0  0
  -12.5822  -37.0442  -10.6283 C   0  0  0  0  0  0  0  0  0  0  0  0
  -13.6291  -40.7996   -8.9441 C   0  0  0  0  0  0  0  0  0  0  0  0
  -13.6670  -41.7767  -10.0991 C   0  0  0  0  0  0  0  0  0  0  0  0
  -12.5190  -41.1785   -8.0019 C   0  0  0  0  0  0  0  0  0  0  0  0
  -14.9092  -40.6309   -8.3199 N   0  0  0  0  0  0  0  0  0  0  0  0
  -15.5946  -39.4287   -8.7348 C   0  0  0  0  0  0  0  0  0  0  0  0
  -16.2811  -38.8456   -7.5207 C   0  0  1  0  0  0  0  0  0  0  0  0
  -16.2445  -37.4597   -7.6682 O   0  0  0  0  0  0  0  0  0  0  0  0
  -17.7176  -39.3475   -7.3987 C   0  0  2  0  0  0  0  0  0  0  0  0
  -18.5450  -38.4142   -6.5651 C   0  0  0  0  0  0  0  0  0  0  0  0
  -20.0093  -38.6376   -6.5462 C   0  0  0  0  0  0  0  0  0  0  0  0
  -20.9542  -38.4433   -7.5358 C   0  0  0  0  0  0  0  0  0  0  0  0
  -22.2765  -38.7443   -7.2511 C   0  0  0  0  0  0  0  0  0  0  0  0
  -22.6299  -39.2361   -5.9700 C   0  0  0  0  0  0  0  0  0  0  0  0
  -21.7202  -39.4375   -4.9748 C   0  0  0  0  0  0  0  0  0  0  0  0
  -20.4224  -39.1315   -5.2892 C   0  0  0  0  0  0  0  0  0  0  0  0
  -23.3949  -38.6438   -8.0457 O   0  0  0  0  0  0  0  0  0  0  0  0
  -23.8275  -39.0288   -9.2963 C   0  0  0  0  0  0  0  0  0  0  0  0
  -23.8223  -40.5239   -9.4244 C   0  0  0  0  0  0  0  0  0  0  0  0
  -23.7808  -40.9298  -10.8994 C   0  0  0  0  0  0  0  0  0  0  0  0
  -22.4157  -40.6329  -11.4411 C   0  0  0  0  0  0  0  0  0  0  0  0
  -21.5391  -41.7886  -11.3943 N   0  0  0  0  0  0  0  0  0  0  0  0
  -20.2969  -42.0014  -10.7254 C   0  0  0  0  0  0  0  0  0  0  0  0
  -19.8660  -41.6930   -9.4548 C   0  0  0  0  0  0  0  0  0  0  0  0
  -18.5851  -42.0314   -9.0840 C   0  0  0  0  0  0  0  0  0  0  0  0
  -17.7448  -42.6916  -10.0220 C   0  0  0  0  0  0  0  0  0  0  0  0
  -18.1295  -43.0178  -11.2911 C   0  0  0  0  0  0  0  0  0  0  0  0
  -19.4084  -42.6617  -11.6157 C   0  0  0  0  0  0  0  0  0  0  0  0
  -17.8423  -41.8429   -7.8328 C   0  0  0  0  0  0  0  0  0  0  0  0
  -17.0928  -42.8285   -7.3715 O   0  0  0  0  0  0  0  0  0  0  0  0
  -17.7587  -40.7250   -6.9528 N   0  0  0  0  0  0  0  0  0  0  0  0
  1  2  1  0
  2  3  1  0
  2  4  1  0
  4  5  1  0
  5  6  2  0
  6  7  1  0
  7  8  2  0
  8  9  1  0
  9 10  2  0
  7 11  1  0
 11 12  1  0
 11 13  1  0
 11 14  1  0
 14 15  1  0
 15 16  1  0
 16 17  1  6
 16 18  1  0
 18 19  1  1
 19 20  1  0
 20 21  2  0
 21 22  1  0
 22 23  2  0
 23 24  1  0
 24 25  2  0
 22 26  1  0
 26 27  1  0
 27 28  1  0
 28 29  1  0
 29 30  1  0
 30 31  1  0
 31 32  1  0
 32 33  2  0
 33 34  1  0
 34 35  2  0
 35 36  1  0
 36 37  2  0
 34 38  1  0
 38 39  2  0
 38 40  1  0
 10  5  1  0
 25 20  1  0
 37 32  1  0
 40 18  1  0
M  END
$$$$
