
     RDKit          3D

 40 43  0  0  0  0  0  0  0  0999 V2000
   -9.1722  -42.0004   -9.1408 C   0  0  0  0  0  0  0  0  0  0  0  0
  -10.2645  -41.2971   -9.9165 C   0  0  0  0  0  0  0  0  0  0  0  0
   -9.9807  -41.2607  -11.3990 C   0  0  0  0  0  0  0  0  0  0  0  0
  -11.5968  -41.9687   -9.6508 C   0  0  0  0  0  0  0  0  0  0  0  0
  -12.7079  -41.2747  -10.3284 C   0  0  0  0  0  0  0  0  0  0  0  0
  -13.5381  -40.3647   -9.6767 C   0  0  0  0  0  0  0  0  0  0  0  0
  -14.5775  -39.7166  -10.3151 C   0  0  0  0  0  0  0  0  0  0  0  0
  -14.7980  -39.9852  -11.6530 C   0  0  0  0  0  0  0  0  0  0  0  0
  -13.9958  -40.8638  -12.2805 N   0  0  0  0  0  0  0  0  0  0  0  0
  -12.9827  -41.4959  -11.6598 C   0  0  0  0  0  0  0  0  0  0  0  0
  -15.4472  -38.7408   -9.5692 C   0  0  0  0  0  0  0  0  0  0  0  0
  -15.2940  -39.0775   -8.1018 C   0  0  0  0  0  0  0  0  0  0  0  0
  -14.8806  -37.3719   -9.8322 C   0  0  0  0  0  0  0  0  0  0  0  0
  -16.7867  -38.9328  -10.0440 N   0  0  0  0  0  0  0  0  0  0  0  0
  -17.5786  -39.7903   -9.1927 C   0  0  0  0  0  0  0  0  0  0  0  0
  -18.6221  -38.9321   -8.5145 C   0  0  1  0  0  0  0  0  0  0  0  0
  -19.3804  -38.3488   -9.5287 O   0  0  0  0  0  0  0  0  0  0  0  0
  -19.4999  -39.7586   -7.5782 C   0  0  2  0  0  0  0  0  0  0  0  0
  -20.4774  -38.8866   -6.8471 C   0  0  0  0  0  0  0  0  0  0  0  0
  -21.5493  -39.5628   -6.0802 C   0  0  0  0  0  0  0  0  0  0  0  0
  -22.6516  -40.2702   -6.5214 C   0  0  0  0  0  0  0  0  0  0  0  0
  -23.5052  -40.8152   -5.5757 C   0  0  0  0  0  0  0  0  0  0  0  0
  -23.2373  -40.6384   -4.1956 C   0  0  0  0  0  0  0  0  0  0  0  0
  -22.1586  -39.9460   -3.7311 C   0  0  0  0  0  0  0  0  0  0  0  0
  -21.3346  -39.4214   -4.6916 C   0  0  0  0  0  0  0  0  0  0  0  0
  -24.6544  -41.5522   -5.7452 O   0  0  0  0  0  0  0  0  0  0  0  0
  -25.0917  -42.6650   -6.4305 C   0  0  0  0  0  0  0  0  0  0  0  0
  -24.3244  -43.8844   -6.0108 C   0  0  0  0  0  0  0  0  0  0  0  0
  -24.4156  -44.9661   -7.0895 C   0  0  0  0  0  0  0  0  0  0  0  0
  -23.5843  -44.5456   -8.2630 C   0  0  0  0  0  0  0  0  0  0  0  0
  -22.2455  -45.1044   -8.2204 N   0  0  0  0  0  0  0  0  0  0  0  0
  -20.9649  -44.4773   -8.1709 C   0  0  0  0  0  0  0  0  0  0  0  0
  -20.4837  -43.4135   -7.4415 C   0  0  0  0  0  0  0  0  0  0  0  0
  -19.1736  -43.0280   -7.6084 C   0  0  0  0  0  0  0  0  0  0  0  0
  -18.3544  -43.7402   -8.5268 C   0  0  0  0  0  0  0  0  0  0  0  0
  -18.7881  -44.8008   -9.2699 C   0  0  0  0  0  0  0  0  0  0  0  0
  -20.0952  -45.1474   -9.0724 C   0  0  0  0  0  0  0  0  0  0  0  0
  -18.3789  -41.9575   -6.9959 C   0  0  0  0  0  0  0  0  0  0  0  0
  -17.1383  -42.2097   -6.6170 O   0  0  0  0  0  0  0  0  0  0  0  0
  -18.7002  -40.5987   -6.7105 N   0  0  0  0  0  0  0  0  0  0  0  0
  1  2  1  0
  2  3  1  0
  2  4  1  0
  4  5  1  0
  5  6  2  0
  6  7  1  0
  7  8  2  0
  8  9  1  0
  9 10  2  0
  7 11  1  0
 11 12  1  0
 11 13  1  0
 11 14  1  0
 14 15  1  0
 15 16  1  0
 16 17  1  6
 16 18  1  0
 18 19  1  1
 19 20  1  0
 20 21  2  0
 21 22  1  0
 22 23  2  0
 23 24  1  0
 24 25  2  0
 22 26  1  0
 26 27  1  0
 27 28  1  0
 28 29  1  0
 29 30  1  0
 30 31  1  0
 31 32  1  0
 32 33  2  0
 33 34  1  0
 34 35  2  0
 35 36  1  0
 36 37  2  0
 34 38  1  0
 38 39  2  0
 38 40  1  0
 10  5  1  0
 25 20  1  0
 37 32  1  0
 40 18  1  0
M  END
$$$$
