
     RDKit          3D

 40 43  0  0  0  0  0  0  0  0999 V2000
  -23.6940  -36.1532   -6.3382 C   0  0  0  0  0  0  0  0  0  0  0  0
  -23.5244  -37.5238   -6.9564 C   0  0  0  0  0  0  0  0  0  0  0  0
  -24.3522  -37.6933   -8.2077 C   0  0  0  0  0  0  0  0  0  0  0  0
  -22.0599  -37.7747   -7.2548 C   0  0  0  0  0  0  0  0  0  0  0  0
  -21.7656  -39.2130   -7.3963 C   0  0  0  0  0  0  0  0  0  0  0  0
  -20.9608  -39.9102   -6.4974 C   0  0  0  0  0  0  0  0  0  0  0  0
  -20.6878  -41.2574   -6.6335 C   0  0  0  0  0  0  0  0  0  0  0  0
  -21.2375  -41.9353   -7.7053 C   0  0  0  0  0  0  0  0  0  0  0  0
  -22.0141  -41.2609   -8.5721 N   0  0  0  0  0  0  0  0  0  0  0  0
  -22.2809  -39.9484   -8.4407 C   0  0  0  0  0  0  0  0  0  0  0  0
  -19.8130  -41.9679   -5.6360 C   0  0  0  0  0  0  0  0  0  0  0  0
  -19.6392  -41.0136   -4.4744 C   0  0  0  0  0  0  0  0  0  0  0  0
  -20.5784  -43.1803   -5.1797 C   0  0  0  0  0  0  0  0  0  0  0  0
  -18.5770  -42.2591   -6.3024 N   0  0  0  0  0  0  0  0  0  0  0  0
  -17.7235  -41.1038   -6.4565 C   0  0  0  0  0  0  0  0  0  0  0  0
  -18.5638  -39.9798   -7.0183 C   0  0  1  0  0  0  0  0  0  0  0  0
  -18.3326  -38.8664   -6.2116 O   0  0  0  0  0  0  0  0  0  0  0  0
  -18.2038  -39.6887   -8.4729 C   0  0  2  0  0  0  0  0  0  0  0  0
  -19.1485  -38.6892   -9.0717 C   0  0  0  0  0  0  0  0  0  0  0  0
  -18.7948  -38.1295  -10.3969 C   0  0  0  0  0  0  0  0  0  0  0  0
  -17.7874  -37.2538  -10.7555 C   0  0  0  0  0  0  0  0  0  0  0  0
  -17.6728  -36.8932  -12.0884 C   0  0  0  0  0  0  0  0  0  0  0  0
  -18.5775  -37.4191  -13.0438 C   0  0  0  0  0  0  0  0  0  0  0  0
  -19.5803  -38.2839  -12.7197 C   0  0  0  0  0  0  0  0  0  0  0  0
  -19.6652  -38.6209  -11.3946 C   0  0  0  0  0  0  0  0  0  0  0  0
  -16.7726  -36.0521  -12.7004 O   0  0  0  0  0  0  0  0  0  0  0  0
  -15.4107  -35.8563  -12.7792 C   0  0  0  0  0  0  0  0  0  0  0  0
  -14.7314  -37.0651  -13.3529 C   0  0  0  0  0  0  0  0  0  0  0  0
  -13.2513  -37.0765  -12.9641 C   0  0  0  0  0  0  0  0  0  0  0  0
  -13.1402  -37.4023  -11.5058 C   0  0  0  0  0  0  0  0  0  0  0  0
  -12.9180  -38.8171  -11.2709 N   0  0  0  0  0  0  0  0  0  0  0  0
  -13.6862  -39.7849  -10.5575 C   0  0  0  0  0  0  0  0  0  0  0  0
  -15.0369  -40.0478  -10.5192 C   0  0  0  0  0  0  0  0  0  0  0  0
  -15.4956  -41.0695   -9.7201 C   0  0  0  0  0  0  0  0  0  0  0  0
  -14.5619  -41.8254   -8.9594 C   0  0  0  0  0  0  0  0  0  0  0  0
  -13.2147  -41.6012   -8.9670 C   0  0  0  0  0  0  0  0  0  0  0  0
  -12.8050  -40.5767   -9.7735 C   0  0  0  0  0  0  0  0  0  0  0  0
  -16.8446  -41.5865   -9.4639 C   0  0  0  0  0  0  0  0  0  0  0  0
  -17.0368  -42.8928   -9.4114 O   0  0  0  0  0  0  0  0  0  0  0  0
  -18.0794  -40.9111   -9.2400 N   0  0  0  0  0  0  0  0  0  0  0  0
  1  2  1  0
  2  3  1  0
  2  4  1  0
  4  5  1  0
  5  6  2  0
  6  7  1  0
  7  8  2  0
  8  9  1  0
  9 10  2  0
  7 11  1  0
 11 12  1  0
 11 13  1  0
 11 14  1  0
 14 15  1  0
 15 16  1  0
 16 17  1  1
 16 18  1  0
 18 19  1  6
 19 20  1  0
 20 21  2  0
 21 22  1  0
 22 23  2  0
 23 24  1  0
 24 25  2  0
 22 26  1  0
 26 27  1  0
 27 28  1  0
 28 29  1  0
 29 30  1  0
 30 31  1  0
 31 32  1  0
 32 33  2  0
 33 34  1  0
 34 35  2  0
 35 36  1  0
 36 37  2  0
 34 38  1  0
 38 39  2  0
 38 40  1  0
 10  5  1  0
 25 20  1  0
 37 32  1  0
 40 18  1  0
M  END
$$$$
