
     RDKit          3D

 40 43  0  0  0  0  0  0  0  0999 V2000
  -25.8117  -42.7080  -10.4574 C   0  0  0  0  0  0  0  0  0  0  0  0
  -25.0622  -41.4535  -10.8501 C   0  0  0  0  0  0  0  0  0  0  0  0
  -25.6656  -40.7819  -12.0603 C   0  0  0  0  0  0  0  0  0  0  0  0
  -25.0208  -40.4924   -9.6791 C   0  0  0  0  0  0  0  0  0  0  0  0
  -23.8252  -40.6981   -8.8402 C   0  0  0  0  0  0  0  0  0  0  0  0
  -22.7530  -39.8080   -8.8241 C   0  0  0  0  0  0  0  0  0  0  0  0
  -21.6352  -40.0042   -8.0368 C   0  0  0  0  0  0  0  0  0  0  0  0
  -21.5838  -41.1293   -7.2355 C   0  0  0  0  0  0  0  0  0  0  0  0
  -22.6195  -41.9874   -7.2522 N   0  0  0  0  0  0  0  0  0  0  0  0
  -23.7092  -41.7974   -8.0187 C   0  0  0  0  0  0  0  0  0  0  0  0
  -20.5019  -39.0140   -8.0525 C   0  0  0  0  0  0  0  0  0  0  0  0
  -20.1584  -38.7913   -9.5093 C   0  0  0  0  0  0  0  0  0  0  0  0
  -21.0378  -37.7380   -7.4622 C   0  0  0  0  0  0  0  0  0  0  0  0
  -19.4244  -39.6060   -7.3142 N   0  0  0  0  0  0  0  0  0  0  0  0
  -18.2955  -39.9681   -8.1398 C   0  0  0  0  0  0  0  0  0  0  0  0
  -17.0921  -39.2024   -7.6393 C   0  0  1  0  0  0  0  0  0  0  0  0
  -16.6278  -39.8799   -6.5125 O   0  0  0  0  0  0  0  0  0  0  0  0
  -16.0076  -39.1081   -8.7093 C   0  0  2  0  0  0  0  0  0  0  0  0
  -15.4581  -37.7151   -8.7977 C   0  0  0  0  0  0  0  0  0  0  0  0
  -14.2431  -37.5151   -9.6213 C   0  0  0  0  0  0  0  0  0  0  0  0
  -12.9392  -37.9161   -9.3996 C   0  0  0  0  0  0  0  0  0  0  0  0
  -11.9829  -37.5996  -10.3510 C   0  0  0  0  0  0  0  0  0  0  0  0
  -12.3533  -36.8804  -11.5143 C   0  0  0  0  0  0  0  0  0  0  0  0
  -13.6307  -36.4719  -11.7597 C   0  0  0  0  0  0  0  0  0  0  0  0
  -14.5514  -36.8018  -10.8005 C   0  0  0  0  0  0  0  0  0  0  0  0
  -10.6355  -37.8764  -10.3735 O   0  0  0  0  0  0  0  0  0  0  0  0
   -9.7859  -38.9514  -10.2258 C   0  0  0  0  0  0  0  0  0  0  0  0
  -10.0574  -39.9921  -11.2722 C   0  0  0  0  0  0  0  0  0  0  0  0
   -9.5241  -41.3528  -10.8181 C   0  0  0  0  0  0  0  0  0  0  0  0
  -10.4040  -41.8722   -9.7222 C   0  0  0  0  0  0  0  0  0  0  0  0
  -11.4367  -42.7632  -10.2181 N   0  0  0  0  0  0  0  0  0  0  0  0
  -12.8599  -42.6784  -10.1615 C   0  0  0  0  0  0  0  0  0  0  0  0
  -13.7335  -41.6365  -10.3770 C   0  0  0  0  0  0  0  0  0  0  0  0
  -15.0847  -41.8609  -10.2477 C   0  0  0  0  0  0  0  0  0  0  0  0
  -15.5397  -43.1619   -9.8980 C   0  0  0  0  0  0  0  0  0  0  0  0
  -14.7107  -44.2243   -9.6762 C   0  0  0  0  0  0  0  0  0  0  0  0
  -13.3780  -43.9548   -9.8145 C   0  0  0  0  0  0  0  0  0  0  0  0
  -16.2466  -40.9788  -10.4047 C   0  0  0  0  0  0  0  0  0  0  0  0
  -17.3168  -41.4263  -11.0375 O   0  0  0  0  0  0  0  0  0  0  0  0
  -16.4691  -39.6381   -9.9759 N   0  0  0  0  0  0  0  0  0  0  0  0
  1  2  1  0
  2  3  1  0
  2  4  1  0
  4  5  1  0
  5  6  2  0
  6  7  1  0
  7  8  2  0
  8  9  1  0
  9 10  2  0
  7 11  1  0
 11 12  1  0
 11 13  1  0
 11 14  1  0
 14 15  1  0
 15 16  1  0
 16 17  1  1
 16 18  1  0
 18 19  1  6
 19 20  1  0
 20 21  2  0
 21 22  1  0
 22 23  2  0
 23 24  1  0
 24 25  2  0
 22 26  1  0
 26 27  1  0
 27 28  1  0
 28 29  1  0
 29 30  1  0
 30 31  1  0
 31 32  1  0
 32 33  2  0
 33 34  1  0
 34 35  2  0
 35 36  1  0
 36 37  2  0
 34 38  1  0
 38 39  2  0
 38 40  1  0
 10  5  1  0
 25 20  1  0
 37 32  1  0
 40 18  1  0
M  END
$$$$
