
     RDKit          3D

 40 43  0  0  0  0  0  0  0  0999 V2000
  -21.8975  -44.2586   -4.5876 C   0  0  0  0  0  0  0  0  0  0  0  0
  -21.3607  -42.9105   -5.0166 C   0  0  0  0  0  0  0  0  0  0  0  0
  -20.1013  -43.0321   -5.8405 C   0  0  0  0  0  0  0  0  0  0  0  0
  -22.4249  -42.1559   -5.7878 C   0  0  0  0  0  0  0  0  0  0  0  0
  -22.0154  -40.7688   -6.0772 C   0  0  0  0  0  0  0  0  0  0  0  0
  -21.4609  -40.3850   -7.2967 C   0  0  0  0  0  0  0  0  0  0  0  0
  -21.0789  -39.0847   -7.5638 C   0  0  0  0  0  0  0  0  0  0  0  0
  -21.2564  -38.1311   -6.5790 C   0  0  0  0  0  0  0  0  0  0  0  0
  -21.7918  -38.5032   -5.4025 N   0  0  0  0  0  0  0  0  0  0  0  0
  -22.1644  -39.7697   -5.1410 C   0  0  0  0  0  0  0  0  0  0  0  0
  -20.4849  -38.7177   -8.8970 C   0  0  0  0  0  0  0  0  0  0  0  0
  -20.8667  -39.8310   -9.8482 C   0  0  0  0  0  0  0  0  0  0  0  0
  -21.1511  -37.4390   -9.3271 C   0  0  0  0  0  0  0  0  0  0  0  0
  -19.0673  -38.6159   -8.7049 N   0  0  0  0  0  0  0  0  0  0  0  0
  -18.5708  -39.4630   -7.6452 C   0  0  0  0  0  0  0  0  0  0  0  0
  -17.2082  -38.9478   -7.2415 C   0  0  1  0  0  0  0  0  0  0  0  0
  -16.8710  -39.5973   -6.0547 O   0  0  0  0  0  0  0  0  0  0  0  0
  -16.1685  -39.2128   -8.3274 C   0  0  2  0  0  0  0  0  0  0  0  0
  -15.1168  -38.1432   -8.3383 C   0  0  0  0  0  0  0  0  0  0  0  0
  -13.9169  -38.3790   -9.1744 C   0  0  0  0  0  0  0  0  0  0  0  0
  -12.8754  -39.2722   -9.0083 C   0  0  0  0  0  0  0  0  0  0  0  0
  -11.8672  -39.2911   -9.9586 C   0  0  0  0  0  0  0  0  0  0  0  0
  -11.9209  -38.4070  -11.0647 C   0  0  0  0  0  0  0  0  0  0  0  0
  -12.9350  -37.5158  -11.2545 C   0  0  0  0  0  0  0  0  0  0  0  0
  -13.9157  -37.5235  -10.2981 C   0  0  0  0  0  0  0  0  0  0  0  0
  -10.7359  -40.0707  -10.0291 O   0  0  0  0  0  0  0  0  0  0  0  0
  -10.3761  -41.3997   -9.9700 C   0  0  0  0  0  0  0  0  0  0  0  0
  -11.0289  -42.1776  -11.0748 C   0  0  0  0  0  0  0  0  0  0  0  0
  -11.0734  -43.6659  -10.7212 C   0  0  0  0  0  0  0  0  0  0  0  0
  -12.0914  -43.8729   -9.6415 C   0  0  0  0  0  0  0  0  0  0  0  0
  -13.3884  -44.2529  -10.1703 N   0  0  0  0  0  0  0  0  0  0  0  0
  -14.6649  -43.6222  -10.0765 C   0  0  0  0  0  0  0  0  0  0  0  0
  -15.0594  -42.3096  -10.2048 C   0  0  0  0  0  0  0  0  0  0  0  0
  -16.3911  -41.9958  -10.0600 C   0  0  0  0  0  0  0  0  0  0  0  0
  -17.3210  -43.0356   -9.7845 C   0  0  0  0  0  0  0  0  0  0  0  0
  -16.9755  -44.3500   -9.6501 C   0  0  0  0  0  0  0  0  0  0  0  0
  -15.6432  -44.6146   -9.8007 C   0  0  0  0  0  0  0  0  0  0  0  0
  -17.1137  -40.7210  -10.1337 C   0  0  0  0  0  0  0  0  0  0  0  0
  -18.2708  -40.6700  -10.7698 O   0  0  0  0  0  0  0  0  0  0  0  0
  -16.7951  -39.4326   -9.6148 N   0  0  0  0  0  0  0  0  0  0  0  0
  1  2  1  0
  2  3  1  0
  2  4  1  0
  4  5  1  0
  5  6  2  0
  6  7  1  0
  7  8  2  0
  8  9  1  0
  9 10  2  0
  7 11  1  0
 11 12  1  0
 11 13  1  0
 11 14  1  0
 14 15  1  0
 15 16  1  0
 16 17  1  1
 16 18  1  0
 18 19  1  6
 19 20  1  0
 20 21  2  0
 21 22  1  0
 22 23  2  0
 23 24  1  0
 24 25  2  0
 22 26  1  0
 26 27  1  0
 27 28  1  0
 28 29  1  0
 29 30  1  0
 30 31  1  0
 31 32  1  0
 32 33  2  0
 33 34  1  0
 34 35  2  0
 35 36  1  0
 36 37  2  0
 34 38  1  0
 38 39  2  0
 38 40  1  0
 10  5  1  0
 25 20  1  0
 37 32  1  0
 40 18  1  0
M  END
$$$$
