
     RDKit          3D

 40 43  0  0  0  0  0  0  0  0999 V2000
  -12.2575  -35.7314  -13.6710 C   0  0  0  0  0  0  0  0  0  0  0  0
  -12.9724  -36.8819  -14.3455 C   0  0  0  0  0  0  0  0  0  0  0  0
  -13.0617  -36.7016  -15.8419 C   0  0  0  0  0  0  0  0  0  0  0  0
  -12.2755  -38.1856  -14.0118 C   0  0  0  0  0  0  0  0  0  0  0  0
  -13.0711  -39.0138  -13.0863 C   0  0  0  0  0  0  0  0  0  0  0  0
  -12.8980  -38.9784  -11.7040 C   0  0  0  0  0  0  0  0  0  0  0  0
  -13.6453  -39.7556  -10.8406 C   0  0  0  0  0  0  0  0  0  0  0  0
  -14.6011  -40.5994  -11.3744 C   0  0  0  0  0  0  0  0  0  0  0  0
  -14.7670  -40.6323  -12.7089 N   0  0  0  0  0  0  0  0  0  0  0  0
  -14.0395  -39.8757  -13.5512 C   0  0  0  0  0  0  0  0  0  0  0  0
  -13.4227  -39.6823   -9.3539 C   0  0  0  0  0  0  0  0  0  0  0  0
  -12.1185  -40.4024   -9.0881 C   0  0  0  0  0  0  0  0  0  0  0  0
  -13.2700  -38.2247   -9.0135 C   0  0  0  0  0  0  0  0  0  0  0  0
  -14.5455  -40.3247   -8.7348 N   0  0  0  0  0  0  0  0  0  0  0  0
  -15.7992  -40.0513   -9.3985 C   0  0  0  0  0  0  0  0  0  0  0  0
  -16.5457  -39.0281   -8.5732 C   0  0  1  0  0  0  0  0  0  0  0  0
  -16.9251  -38.0099   -9.4469 O   0  0  0  0  0  0  0  0  0  0  0  0
  -17.7619  -39.6456   -7.8878 C   0  0  2  0  0  0  0  0  0  0  0  0
  -18.6875  -38.5829   -7.3738 C   0  0  0  0  0  0  0  0  0  0  0  0
  -20.0197  -39.0171   -6.8930 C   0  0  0  0  0  0  0  0  0  0  0  0
  -21.1092  -39.4961   -7.5957 C   0  0  0  0  0  0  0  0  0  0  0  0
  -22.2484  -39.8426   -6.8871 C   0  0  0  0  0  0  0  0  0  0  0  0
  -22.2755  -39.7000   -5.4776 C   0  0  0  0  0  0  0  0  0  0  0  0
  -21.2169  -39.2305   -4.7582 C   0  0  0  0  0  0  0  0  0  0  0  0
  -20.1065  -38.8983   -5.4885 C   0  0  0  0  0  0  0  0  0  0  0  0
  -23.4509  -40.3367   -7.3370 O   0  0  0  0  0  0  0  0  0  0  0  0
  -23.9316  -41.3504   -8.1374 C   0  0  0  0  0  0  0  0  0  0  0  0
  -23.5401  -42.6917   -7.5902 C   0  0  0  0  0  0  0  0  0  0  0  0
  -23.5944  -43.7511   -8.6933 C   0  0  0  0  0  0  0  0  0  0  0  0
  -22.4487  -43.5259   -9.6323 C   0  0  0  0  0  0  0  0  0  0  0  0
  -21.2946  -44.3413   -9.3016 N   0  0  0  0  0  0  0  0  0  0  0  0
  -19.9611  -43.9834   -8.9416 C   0  0  0  0  0  0  0  0  0  0  0  0
  -19.4586  -43.0258   -8.0898 C   0  0  0  0  0  0  0  0  0  0  0  0
  -18.0955  -42.9140   -7.9410 C   0  0  0  0  0  0  0  0  0  0  0  0
  -17.2457  -43.7916   -8.6688 C   0  0  0  0  0  0  0  0  0  0  0  0
  -17.6992  -44.7558   -9.5230 C   0  0  0  0  0  0  0  0  0  0  0  0
  -19.0589  -44.8296   -9.6402 C   0  0  0  0  0  0  0  0  0  0  0  0
  -17.2661  -42.0147   -7.1311 C   0  0  0  0  0  0  0  0  0  0  0  0
  -16.2218  -42.5043   -6.4863 O   0  0  0  0  0  0  0  0  0  0  0  0
  -17.3672  -40.6144   -6.8860 N   0  0  0  0  0  0  0  0  0  0  0  0
  1  2  1  0
  2  3  1  0
  2  4  1  0
  4  5  1  0
  5  6  2  0
  6  7  1  0
  7  8  2  0
  8  9  1  0
  9 10  2  0
  7 11  1  0
 11 12  1  0
 11 13  1  0
 11 14  1  0
 14 15  1  0
 15 16  1  0
 16 17  1  6
 16 18  1  0
 18 19  1  1
 19 20  1  0
 20 21  2  0
 21 22  1  0
 22 23  2  0
 23 24  1  0
 24 25  2  0
 22 26  1  0
 26 27  1  0
 27 28  1  0
 28 29  1  0
 29 30  1  0
 30 31  1  0
 31 32  1  0
 32 33  2  0
 33 34  1  0
 34 35  2  0
 35 36  1  0
 36 37  2  0
 34 38  1  0
 38 39  2  0
 38 40  1  0
 10  5  1  0
 25 20  1  0
 37 32  1  0
 40 18  1  0
M  END
$$$$
