
     RDKit          3D

 40 43  0  0  0  0  0  0  0  0999 V2000
  -22.6014  -41.0995   -3.2114 C   0  0  0  0  0  0  0  0  0  0  0  0
  -23.7278  -41.7894   -3.9496 C   0  0  0  0  0  0  0  0  0  0  0  0
  -25.0177  -41.7776   -3.1649 C   0  0  0  0  0  0  0  0  0  0  0  0
  -23.9281  -41.1394   -5.3038 C   0  0  0  0  0  0  0  0  0  0  0  0
  -22.7892  -41.3878   -6.2075 C   0  0  0  0  0  0  0  0  0  0  0  0
  -21.7747  -40.4555   -6.4162 C   0  0  0  0  0  0  0  0  0  0  0  0
  -20.7096  -40.6923   -7.2633 C   0  0  0  0  0  0  0  0  0  0  0  0
  -20.6531  -41.9034   -7.9270 C   0  0  0  0  0  0  0  0  0  0  0  0
  -21.6331  -42.8022   -7.7244 N   0  0  0  0  0  0  0  0  0  0  0  0
  -22.6714  -42.5729   -6.8994 C   0  0  0  0  0  0  0  0  0  0  0  0
  -19.6368  -39.6545   -7.4560 C   0  0  0  0  0  0  0  0  0  0  0  0
  -19.3740  -39.5930   -8.9450 C   0  0  0  0  0  0  0  0  0  0  0  0
  -20.2171  -38.3455   -6.9940 C   0  0  0  0  0  0  0  0  0  0  0  0
  -18.4943  -40.0964   -6.7103 N   0  0  0  0  0  0  0  0  0  0  0  0
  -17.3522  -40.4025   -7.5404 C   0  0  0  0  0  0  0  0  0  0  0  0
  -16.3673  -39.2630   -7.4101 C   0  0  1  0  0  0  0  0  0  0  0  0
  -15.2831  -39.7531   -6.6834 O   0  0  0  0  0  0  0  0  0  0  0  0
  -15.9252  -38.7500   -8.7781 C   0  0  2  0  0  0  0  0  0  0  0  0
  -15.9688  -37.2515   -8.8312 C   0  0  0  0  0  0  0  0  0  0  0  0
  -15.3502  -36.5951  -10.0062 C   0  0  0  0  0  0  0  0  0  0  0  0
  -14.0207  -36.4768  -10.3648 C   0  0  0  0  0  0  0  0  0  0  0  0
  -13.7130  -35.8084  -11.5389 C   0  0  0  0  0  0  0  0  0  0  0  0
  -14.7507  -35.2655  -12.3366 C   0  0  0  0  0  0  0  0  0  0  0  0
  -16.0700  -35.3664  -12.0083 C   0  0  0  0  0  0  0  0  0  0  0  0
  -16.3399  -36.0339  -10.8429 C   0  0  0  0  0  0  0  0  0  0  0  0
  -12.4898  -35.5550  -12.1151 O   0  0  0  0  0  0  0  0  0  0  0  0
  -11.3468  -36.2313  -12.4831 C   0  0  0  0  0  0  0  0  0  0  0  0
  -11.6567  -37.2819  -13.5088 C   0  0  0  0  0  0  0  0  0  0  0  0
  -10.5575  -38.3466  -13.5265 C   0  0  0  0  0  0  0  0  0  0  0  0
  -10.6722  -39.1761  -12.2840 C   0  0  0  0  0  0  0  0  0  0  0  0
  -11.4486  -40.3839  -12.4955 N   0  0  0  0  0  0  0  0  0  0  0  0
  -12.6568  -40.8441  -11.8920 C   0  0  0  0  0  0  0  0  0  0  0  0
  -13.8369  -40.2066  -11.5822 C   0  0  0  0  0  0  0  0  0  0  0  0
  -14.8495  -40.9270  -10.9919 C   0  0  0  0  0  0  0  0  0  0  0  0
  -14.6491  -42.3084  -10.7211 C   0  0  0  0  0  0  0  0  0  0  0  0
  -13.4971  -42.9818  -11.0117 C   0  0  0  0  0  0  0  0  0  0  0  0
  -12.5191  -42.2266  -11.5957 C   0  0  0  0  0  0  0  0  0  0  0  0
  -16.1951  -40.5472  -10.5469 C   0  0  0  0  0  0  0  0  0  0  0  0
  -17.2099  -41.3566  -10.7941 O   0  0  0  0  0  0  0  0  0  0  0  0
  -16.6597  -39.3964   -9.8463 N   0  0  0  0  0  0  0  0  0  0  0  0
  1  2  1  0
  2  3  1  0
  2  4  1  0
  4  5  1  0
  5  6  2  0
  6  7  1  0
  7  8  2  0
  8  9  1  0
  9 10  2  0
  7 11  1  0
 11 12  1  0
 11 13  1  0
 11 14  1  0
 14 15  1  0
 15 16  1  0
 16 17  1  6
 16 18  1  0
 18 19  1  1
 19 20  1  0
 20 21  2  0
 21 22  1  0
 22 23  2  0
 23 24  1  0
 24 25  2  0
 22 26  1  0
 26 27  1  0
 27 28  1  0
 28 29  1  0
 29 30  1  0
 30 31  1  0
 31 32  1  0
 32 33  2  0
 33 34  1  0
 34 35  2  0
 35 36  1  0
 36 37  2  0
 34 38  1  0
 38 39  2  0
 38 40  1  0
 10  5  1  0
 25 20  1  0
 37 32  1  0
 40 18  1  0
M  END
$$$$
