
     RDKit          3D

 40 43  0  0  0  0  0  0  0  0999 V2000
  -23.3875  -38.9625   -2.7328 C   0  0  0  0  0  0  0  0  0  0  0  0
  -23.1209  -39.7529   -3.9952 C   0  0  0  0  0  0  0  0  0  0  0  0
  -22.9380  -38.8618   -5.2003 C   0  0  0  0  0  0  0  0  0  0  0  0
  -21.9035  -40.6345   -3.8013 C   0  0  0  0  0  0  0  0  0  0  0  0
  -21.6989  -41.5486   -4.9406 C   0  0  0  0  0  0  0  0  0  0  0  0
  -20.5952  -41.4633   -5.7873 C   0  0  0  0  0  0  0  0  0  0  0  0
  -20.4072  -42.3216   -6.8531 C   0  0  0  0  0  0  0  0  0  0  0  0
  -21.3541  -43.3017   -7.0838 C   0  0  0  0  0  0  0  0  0  0  0  0
  -22.4187  -43.3827   -6.2657 N   0  0  0  0  0  0  0  0  0  0  0  0
  -22.6032  -42.5472   -5.2270 C   0  0  0  0  0  0  0  0  0  0  0  0
  -19.1982  -42.1908   -7.7398 C   0  0  0  0  0  0  0  0  0  0  0  0
  -18.5681  -43.5655   -7.7970 C   0  0  0  0  0  0  0  0  0  0  0  0
  -19.7053  -41.8136   -9.1052 C   0  0  0  0  0  0  0  0  0  0  0  0
  -18.3419  -41.2146   -7.1312 N   0  0  0  0  0  0  0  0  0  0  0  0
  -16.9377  -41.5359   -7.2422 C   0  0  0  0  0  0  0  0  0  0  0  0
  -16.1616  -40.2396   -7.1931 C   0  0  1  0  0  0  0  0  0  0  0  0
  -14.8290  -40.5802   -6.9644 O   0  0  0  0  0  0  0  0  0  0  0  0
  -16.3121  -39.4509   -8.4913 C   0  0  2  0  0  0  0  0  0  0  0  0
  -16.9911  -38.1359   -8.2467 C   0  0  0  0  0  0  0  0  0  0  0  0
  -17.0015  -37.1593   -9.3606 C   0  0  0  0  0  0  0  0  0  0  0  0
  -15.9703  -36.4198   -9.9083 C   0  0  0  0  0  0  0  0  0  0  0  0
  -16.2581  -35.5728  -10.9665 C   0  0  0  0  0  0  0  0  0  0  0  0
  -17.5837  -35.4805  -11.4584 C   0  0  0  0  0  0  0  0  0  0  0  0
  -18.6205  -36.1971  -10.9383 C   0  0  0  0  0  0  0  0  0  0  0  0
  -18.3020  -37.0253   -9.8947 C   0  0  0  0  0  0  0  0  0  0  0  0
  -15.4281  -34.7401  -11.6807 O   0  0  0  0  0  0  0  0  0  0  0  0
  -14.2295  -34.7887  -12.3592 C   0  0  0  0  0  0  0  0  0  0  0  0
  -14.3030  -35.7599  -13.5008 C   0  0  0  0  0  0  0  0  0  0  0  0
  -12.8973  -36.2074  -13.9080 C   0  0  0  0  0  0  0  0  0  0  0  0
  -12.3566  -37.1170  -12.8471 C   0  0  0  0  0  0  0  0  0  0  0  0
  -12.5808  -38.5178  -13.1534 N   0  0  0  0  0  0  0  0  0  0  0  0
  -13.3044  -39.5299  -12.4551 C   0  0  0  0  0  0  0  0  0  0  0  0
  -14.5331  -39.5267  -11.8342 C   0  0  0  0  0  0  0  0  0  0  0  0
  -14.9794  -40.6802  -11.2316 C   0  0  0  0  0  0  0  0  0  0  0  0
  -14.1606  -41.8421  -11.2696 C   0  0  0  0  0  0  0  0  0  0  0  0
  -12.9370  -41.8917  -11.8741 C   0  0  0  0  0  0  0  0  0  0  0  0
  -12.5342  -40.7236  -12.4580 C   0  0  0  0  0  0  0  0  0  0  0  0
  -16.2130  -40.9934  -10.5017 C   0  0  0  0  0  0  0  0  0  0  0  0
  -16.8217  -42.1447  -10.7256 O   0  0  0  0  0  0  0  0  0  0  0  0
  -16.9372  -40.2506   -9.5246 N   0  0  0  0  0  0  0  0  0  0  0  0
  1  2  1  0
  2  3  1  0
  2  4  1  0
  4  5  1  0
  5  6  2  0
  6  7  1  0
  7  8  2  0
  8  9  1  0
  9 10  2  0
  7 11  1  0
 11 12  1  0
 11 13  1  0
 11 14  1  0
 14 15  1  0
 15 16  1  0
 16 17  1  6
 16 18  1  0
 18 19  1  1
 19 20  1  0
 20 21  2  0
 21 22  1  0
 22 23  2  0
 23 24  1  0
 24 25  2  0
 22 26  1  0
 26 27  1  0
 27 28  1  0
 28 29  1  0
 29 30  1  0
 30 31  1  0
 31 32  1  0
 32 33  2  0
 33 34  1  0
 34 35  2  0
 35 36  1  0
 36 37  2  0
 34 38  1  0
 38 39  2  0
 38 40  1  0
 10  5  1  0
 25 20  1  0
 37 32  1  0
 40 18  1  0
M  END
$$$$
