
     RDKit          3D

 36 38  0  0  0  0  0  0  0  0999 V2000
  -14.1094  -34.7738  -11.7424 C   0  0  0  0  0  0  0  0  0  0  0  0
  -12.8947  -35.4882  -12.3482 C   0  0  0  0  0  0  0  0  0  0  0  0
  -11.6334  -35.0796  -11.6205 C   0  0  0  0  0  0  0  0  0  0  0  0
  -13.0998  -36.9538  -12.3133 C   0  0  0  0  0  0  0  0  0  0  0  0
  -13.4327  -37.6314  -13.4654 C   0  0  0  0  0  0  0  0  0  0  0  0
  -13.6251  -39.0102  -13.4214 C   0  0  0  0  0  0  0  0  0  0  0  0
  -13.4802  -39.6841  -12.2225 C   0  0  0  0  0  0  0  0  0  0  0  0
  -13.1476  -39.0218  -11.0611 C   0  0  0  0  0  0  0  0  0  0  0  0
  -12.9986  -39.7617   -9.7821 C   0  0  0  0  0  0  0  0  0  0  0  0
  -14.1336  -39.5864   -8.9161 N   0  0  0  0  0  0  0  0  0  0  0  0
  -15.3448  -40.0925   -9.5313 C   0  0  0  0  0  0  0  0  0  0  0  0
  -16.5267  -39.9731   -8.5592 C   0  0  1  0  0  0  0  0  0  0  0  0
  -16.3318  -38.7423   -7.9138 O   0  0  0  0  0  0  0  0  0  0  0  0
  -17.8123  -39.8980   -9.3695 C   0  0  2  0  0  0  0  0  0  0  0  0
  -19.0376  -39.8200   -8.4767 C   0  0  0  0  0  0  0  0  0  0  0  0
  -19.2854  -38.4348   -7.9272 C   0  0  2  0  0  0  0  0  0  0  0  0
  -19.0847  -38.4342   -6.4444 C   0  0  0  0  0  0  0  0  0  0  0  0
  -20.5864  -37.9315   -8.3986 C   0  0  0  0  0  0  0  0  0  0  0  0
  -21.7457  -38.0390   -7.4728 C   0  0  0  0  0  0  0  0  0  0  0  0
  -22.0312  -39.3996   -6.9353 C   0  0  0  0  0  0  0  0  0  0  0  0
  -23.0912  -40.0865   -7.7837 C   0  0  0  0  0  0  0  0  0  0  0  0
  -23.8919  -41.0093   -6.8904 C   0  0  0  0  0  0  0  0  0  0  0  0
  -23.6809  -42.4758   -7.2305 C   0  0  0  0  0  0  0  0  0  0  0  0
  -22.6191  -43.0335   -6.2862 C   0  0  0  0  0  0  0  0  0  0  0  0
  -21.7995  -44.0195   -6.9474 N   0  0  0  0  0  0  0  0  0  0  0  0
  -22.4235  -45.3877   -6.8265 C   0  0  0  0  0  0  0  0  0  0  0  0
  -20.5337  -43.8572   -7.6163 C   0  0  0  0  0  0  0  0  0  0  0  0
  -20.0887  -42.9994   -8.5847 C   0  0  0  0  0  0  0  0  0  0  0  0
  -18.7825  -43.1119   -9.0054 C   0  0  0  0  0  0  0  0  0  0  0  0
  -17.9776  -44.1134   -8.4107 C   0  0  0  0  0  0  0  0  0  0  0  0
  -18.4185  -44.9809   -7.4368 C   0  0  0  0  0  0  0  0  0  0  0  0
  -19.6676  -44.8106   -7.0897 N   0  0  0  0  0  0  0  0  0  0  0  0
  -17.9949  -42.3680   -9.9903 C   0  0  0  0  0  0  0  0  0  0  0  0
  -17.1724  -43.0452  -10.7764 O   0  0  0  0  0  0  0  0  0  0  0  0
  -17.9074  -40.9957  -10.3098 N   0  0  0  0  0  0  0  0  0  0  0  0
  -12.9626  -37.6532  -11.1346 C   0  0  0  0  0  0  0  0  0  0  0  0
  1  2  1  0
  2  3  1  0
  2  4  1  0
  4  5  2  0
  5  6  1  0
  6  7  2  0
  7  8  1  0
  8  9  1  0
  9 10  1  0
 10 11  1  0
 11 12  1  0
 12 13  1  6
 12 14  1  0
 14 15  1  1
 15 16  1  0
 16 17  1  1
 16 18  1  0
 18 19  1  0
 19 20  1  0
 20 21  1  0
 21 22  1  0
 22 23  1  0
 23 24  1  0
 24 25  1  0
 25 26  1  0
 25 27  1  0
 27 28  2  0
 28 29  1  0
 29 30  2  0
 30 31  1  0
 31 32  2  0
 29 33  1  0
 33 34  2  0
 33 35  1  0
  8 36  2  0
 32 27  1  0
 35 14  1  0
 36  4  1  0
M  END
$$$$
