
     RDKit          3D

 36 38  0  0  0  0  0  0  0  0999 V2000
  -22.7333  -38.5634   -4.0237 C   0  0  0  0  0  0  0  0  0  0  0  0
  -22.4975  -39.9064   -4.7261 C   0  0  0  0  0  0  0  0  0  0  0  0
  -23.7393  -40.7653   -4.6386 C   0  0  0  0  0  0  0  0  0  0  0  0
  -22.0839  -39.6784   -6.1291 C   0  0  0  0  0  0  0  0  0  0  0  0
  -22.8346  -38.8616   -6.9454 C   0  0  0  0  0  0  0  0  0  0  0  0
  -22.4377  -38.6550   -8.2645 C   0  0  0  0  0  0  0  0  0  0  0  0
  -21.2950  -39.2716   -8.7404 C   0  0  0  0  0  0  0  0  0  0  0  0
  -20.5328  -40.0915   -7.9374 C   0  0  0  0  0  0  0  0  0  0  0  0
  -19.3099  -40.7474   -8.4665 C   0  0  0  0  0  0  0  0  0  0  0  0
  -18.1241  -40.3364   -7.7638 N   0  0  0  0  0  0  0  0  0  0  0  0
  -17.7735  -38.9668   -8.0843 C   0  0  0  0  0  0  0  0  0  0  0  0
  -17.0220  -38.9076   -9.4214 C   0  0  1  0  0  0  0  0  0  0  0  0
  -17.6139  -37.8398  -10.1136 O   0  0  0  0  0  0  0  0  0  0  0  0
  -15.5677  -38.5583   -9.1425 C   0  0  2  0  0  0  0  0  0  0  0  0
  -14.8747  -38.0043  -10.3743 C   0  0  0  0  0  0  0  0  0  0  0  0
  -15.1907  -36.5493  -10.6301 C   0  0  2  0  0  0  0  0  0  0  0  0
  -15.9840  -36.4170  -11.8919 C   0  0  0  0  0  0  0  0  0  0  0  0
  -13.9582  -35.7467  -10.5602 C   0  0  0  0  0  0  0  0  0  0  0  0
  -13.2963  -35.3835  -11.8418 C   0  0  0  0  0  0  0  0  0  0  0  0
  -12.9670  -36.5159  -12.7532 C   0  0  0  0  0  0  0  0  0  0  0  0
  -11.5273  -36.9595  -12.5390 C   0  0  0  0  0  0  0  0  0  0  0  0
  -10.9880  -37.4785  -13.8545 C   0  0  0  0  0  0  0  0  0  0  0  0
  -10.7086  -38.9723  -13.8201 C   0  0  0  0  0  0  0  0  0  0  0  0
  -11.9146  -39.6940  -14.4158 C   0  0  0  0  0  0  0  0  0  0  0  0
  -12.1451  -40.9562  -13.7563 N   0  0  0  0  0  0  0  0  0  0  0  0
  -11.3422  -42.0488  -14.4178 C   0  0  0  0  0  0  0  0  0  0  0  0
  -13.0197  -41.2660  -12.6542 C   0  0  0  0  0  0  0  0  0  0  0  0
  -13.1996  -40.7124  -11.4161 C   0  0  0  0  0  0  0  0  0  0  0  0
  -14.1525  -41.2621  -10.5880 C   0  0  0  0  0  0  0  0  0  0  0  0
  -14.8883  -42.3722  -11.0683 C   0  0  0  0  0  0  0  0  0  0  0  0
  -14.7122  -42.9357  -12.3120 C   0  0  0  0  0  0  0  0  0  0  0  0
  -13.7920  -42.3577  -13.0392 N   0  0  0  0  0  0  0  0  0  0  0  0
  -14.6025  -40.9203   -9.2373 C   0  0  0  0  0  0  0  0  0  0  0  0
  -14.8519  -41.9074   -8.3908 O   0  0  0  0  0  0  0  0  0  0  0  0
  -14.8503  -39.6897   -8.5915 N   0  0  0  0  0  0  0  0  0  0  0  0
  -20.9508  -40.2784   -6.6324 C   0  0  0  0  0  0  0  0  0  0  0  0
  1  2  1  0
  2  3  1  0
  2  4  1  0
  4  5  2  0
  5  6  1  0
  6  7  2  0
  7  8  1  0
  8  9  1  0
  9 10  1  0
 10 11  1  0
 11 12  1  0
 12 13  1  6
 12 14  1  0
 14 15  1  6
 15 16  1  0
 16 17  1  6
 16 18  1  0
 18 19  1  0
 19 20  1  0
 20 21  1  0
 21 22  1  0
 22 23  1  0
 23 24  1  0
 24 25  1  0
 25 26  1  0
 25 27  1  0
 27 28  2  0
 28 29  1  0
 29 30  2  0
 30 31  1  0
 31 32  2  0
 29 33  1  0
 33 34  2  0
 33 35  1  0
  8 36  2  0
 32 27  1  0
 35 14  1  0
 36  4  1  0
M  END
$$$$
