
     RDKit          3D

 36 38  0  0  0  0  0  0  0  0999 V2000
  -11.3251  -34.5576  -11.8623 C   0  0  0  0  0  0  0  0  0  0  0  0
  -12.8246  -34.8363  -11.6994 C   0  0  0  0  0  0  0  0  0  0  0  0
  -13.6288  -33.8674  -12.5371 C   0  0  0  0  0  0  0  0  0  0  0  0
  -13.1192  -36.2438  -12.0510 C   0  0  0  0  0  0  0  0  0  0  0  0
  -13.5216  -36.5660  -13.3282 C   0  0  0  0  0  0  0  0  0  0  0  0
  -13.7980  -37.8931  -13.6483 C   0  0  0  0  0  0  0  0  0  0  0  0
  -13.6657  -38.8727  -12.6811 C   0  0  0  0  0  0  0  0  0  0  0  0
  -13.2644  -38.5677  -11.3990 C   0  0  0  0  0  0  0  0  0  0  0  0
  -13.1302  -39.6326  -10.3726 C   0  0  0  0  0  0  0  0  0  0  0  0
  -14.4006  -40.1993  -10.0064 N   0  0  0  0  0  0  0  0  0  0  0  0
  -15.3983  -39.1659   -9.8110 C   0  0  0  0  0  0  0  0  0  0  0  0
  -16.4389  -39.6179   -8.7772 C   0  0  1  0  0  0  0  0  0  0  0  0
  -16.4394  -38.6029   -7.8079 O   0  0  0  0  0  0  0  0  0  0  0  0
  -17.8040  -39.6486   -9.4483 C   0  0  2  0  0  0  0  0  0  0  0  0
  -18.9315  -39.5359   -8.4380 C   0  0  0  0  0  0  0  0  0  0  0  0
  -19.1747  -38.1189   -7.9744 C   0  0  2  0  0  0  0  0  0  0  0  0
  -18.8203  -37.9913   -6.5262 C   0  0  0  0  0  0  0  0  0  0  0  0
  -20.5366  -37.6959   -8.3412 C   0  0  0  0  0  0  0  0  0  0  0  0
  -21.5877  -37.7633   -7.2908 C   0  0  0  0  0  0  0  0  0  0  0  0
  -21.7618  -39.0837   -6.6216 C   0  0  0  0  0  0  0  0  0  0  0  0
  -22.8768  -39.8698   -7.2954 C   0  0  0  0  0  0  0  0  0  0  0  0
  -23.5430  -40.7410   -6.2524 C   0  0  0  0  0  0  0  0  0  0  0  0
  -23.3112  -42.2231   -6.4981 C   0  0  0  0  0  0  0  0  0  0  0  0
  -22.1355  -42.6690   -5.6327 C   0  0  0  0  0  0  0  0  0  0  0  0
  -21.3513  -43.6800   -6.2993 N   0  0  0  0  0  0  0  0  0  0  0  0
  -21.9052  -45.0523   -6.0062 C   0  0  0  0  0  0  0  0  0  0  0  0
  -20.1698  -43.5338   -7.1107 C   0  0  0  0  0  0  0  0  0  0  0  0
  -19.8624  -42.7444   -8.1850 C   0  0  0  0  0  0  0  0  0  0  0  0
  -18.6039  -42.8505   -8.7334 C   0  0  0  0  0  0  0  0  0  0  0  0
  -17.7026  -43.7749   -8.1524 C   0  0  0  0  0  0  0  0  0  0  0  0
  -18.0049  -44.5734   -7.0724 C   0  0  0  0  0  0  0  0  0  0  0  0
  -19.2166  -44.4139   -6.6076 N   0  0  0  0  0  0  0  0  0  0  0  0
  -17.9534  -42.1654   -9.8519 C   0  0  0  0  0  0  0  0  0  0  0  0
  -17.1915  -42.8788  -10.6667 O   0  0  0  0  0  0  0  0  0  0  0  0
  -17.9537  -40.8217  -10.2847 N   0  0  0  0  0  0  0  0  0  0  0  0
  -12.9968  -37.2421  -11.1097 C   0  0  0  0  0  0  0  0  0  0  0  0
  1  2  1  0
  2  3  1  0
  2  4  1  0
  4  5  2  0
  5  6  1  0
  6  7  2  0
  7  8  1  0
  8  9  1  0
  9 10  1  0
 10 11  1  0
 11 12  1  0
 12 13  1  1
 12 14  1  0
 14 15  1  1
 15 16  1  0
 16 17  1  1
 16 18  1  0
 18 19  1  0
 19 20  1  0
 20 21  1  0
 21 22  1  0
 22 23  1  0
 23 24  1  0
 24 25  1  0
 25 26  1  0
 25 27  1  0
 27 28  2  0
 28 29  1  0
 29 30  2  0
 30 31  1  0
 31 32  2  0
 29 33  1  0
 33 34  2  0
 33 35  1  0
  8 36  2  0
 32 27  1  0
 35 14  1  0
 36  4  1  0
M  END
$$$$
