
     RDKit          3D

 36 38  0  0  0  0  0  0  0  0999 V2000
  -14.5962  -34.7853  -11.1479 C   0  0  0  0  0  0  0  0  0  0  0  0
  -13.7652  -35.0804  -12.4030 C   0  0  0  0  0  0  0  0  0  0  0  0
  -12.4025  -34.4342  -12.2895 C   0  0  0  0  0  0  0  0  0  0  0  0
  -13.6653  -36.5424  -12.6121 C   0  0  0  0  0  0  0  0  0  0  0  0
  -13.7269  -37.0629  -13.8858 C   0  0  0  0  0  0  0  0  0  0  0  0
  -13.6336  -38.4402  -14.0715 C   0  0  0  0  0  0  0  0  0  0  0  0
  -13.4802  -39.2701  -12.9760 C   0  0  0  0  0  0  0  0  0  0  0  0
  -13.4167  -38.7661  -11.6954 C   0  0  0  0  0  0  0  0  0  0  0  0
  -13.2542  -39.6728  -10.5305 C   0  0  0  0  0  0  0  0  0  0  0  0
  -14.1815  -39.3722   -9.4728 N   0  0  0  0  0  0  0  0  0  0  0  0
  -15.4762  -38.9931  -10.0034 C   0  0  0  0  0  0  0  0  0  0  0  0
  -16.5681  -39.2009   -8.9448 C   0  0  1  0  0  0  0  0  0  0  0  0
  -16.6216  -37.9842   -8.2475 O   0  0  0  0  0  0  0  0  0  0  0  0
  -17.8963  -39.4112   -9.6565 C   0  0  2  0  0  0  0  0  0  0  0  0
  -19.0583  -39.4535   -8.6804 C   0  0  0  0  0  0  0  0  0  0  0  0
  -19.5021  -38.0832   -8.2250 C   0  0  2  0  0  0  0  0  0  0  0  0
  -19.2112  -37.9145   -6.7669 C   0  0  0  0  0  0  0  0  0  0  0  0
  -20.8968  -37.8445   -8.6326 C   0  0  0  0  0  0  0  0  0  0  0  0
  -21.9602  -38.0552   -7.6141 C   0  0  0  0  0  0  0  0  0  0  0  0
  -21.9763  -39.3893   -6.9497 C   0  0  0  0  0  0  0  0  0  0  0  0
  -22.9560  -40.3148   -7.6561 C   0  0  0  0  0  0  0  0  0  0  0  0
  -23.5305  -41.2707   -6.6330 C   0  0  0  0  0  0  0  0  0  0  0  0
  -23.0958  -42.7078   -6.8709 C   0  0  0  0  0  0  0  0  0  0  0  0
  -21.8973  -42.9959   -5.9705 C   0  0  0  0  0  0  0  0  0  0  0  0
  -20.9658  -43.8908   -6.6129 N   0  0  0  0  0  0  0  0  0  0  0  0
  -21.3399  -45.3258   -6.3357 C   0  0  0  0  0  0  0  0  0  0  0  0
  -19.7907  -43.5854   -7.3886 C   0  0  0  0  0  0  0  0  0  0  0  0
  -19.5597  -42.7584   -8.4537 C   0  0  0  0  0  0  0  0  0  0  0  0
  -18.2825  -42.6936   -8.9641 C   0  0  0  0  0  0  0  0  0  0  0  0
  -17.2836  -43.4916   -8.3560 C   0  0  0  0  0  0  0  0  0  0  0  0
  -17.5085  -44.3270   -7.2851 C   0  0  0  0  0  0  0  0  0  0  0  0
  -18.7439  -44.3322   -6.8568 N   0  0  0  0  0  0  0  0  0  0  0  0
  -17.6964  -41.9240  -10.0631 C   0  0  0  0  0  0  0  0  0  0  0  0
  -16.8222  -42.5264  -10.8543 O   0  0  0  0  0  0  0  0  0  0  0  0
  -17.8632  -40.5909  -10.4964 N   0  0  0  0  0  0  0  0  0  0  0  0
  -13.5120  -37.3951  -11.5411 C   0  0  0  0  0  0  0  0  0  0  0  0
  1  2  1  0
  2  3  1  0
  2  4  1  0
  4  5  2  0
  5  6  1  0
  6  7  2  0
  7  8  1  0
  8  9  1  0
  9 10  1  0
 10 11  1  0
 11 12  1  0
 12 13  1  1
 12 14  1  0
 14 15  1  1
 15 16  1  0
 16 17  1  1
 16 18  1  0
 18 19  1  0
 19 20  1  0
 20 21  1  0
 21 22  1  0
 22 23  1  0
 23 24  1  0
 24 25  1  0
 25 26  1  0
 25 27  1  0
 27 28  2  0
 28 29  1  0
 29 30  2  0
 30 31  1  0
 31 32  2  0
 29 33  1  0
 33 34  2  0
 33 35  1  0
  8 36  2  0
 32 27  1  0
 35 14  1  0
 36  4  1  0
M  END
$$$$
