
     RDKit          3D

 36 38  0  0  0  0  0  0  0  0999 V2000
  -12.2997  -40.9116  -13.7213 C   0  0  0  0  0  0  0  0  0  0  0  0
  -13.6102  -40.1610  -13.9897 C   0  0  0  0  0  0  0  0  0  0  0  0
  -14.7915  -41.0780  -13.7636 C   0  0  0  0  0  0  0  0  0  0  0  0
  -13.6832  -38.9502  -13.1413 C   0  0  0  0  0  0  0  0  0  0  0  0
  -13.7517  -37.7035  -13.7228 C   0  0  0  0  0  0  0  0  0  0  0  0
  -13.8183  -36.5704  -12.9155 C   0  0  0  0  0  0  0  0  0  0  0  0
  -13.8149  -36.7088  -11.5395 C   0  0  0  0  0  0  0  0  0  0  0  0
  -13.7469  -37.9481  -10.9416 C   0  0  0  0  0  0  0  0  0  0  0  0
  -13.7419  -38.0773   -9.4621 C   0  0  0  0  0  0  0  0  0  0  0  0
  -14.7609  -38.9762   -8.9905 N   0  0  0  0  0  0  0  0  0  0  0  0
  -15.6015  -38.3396   -7.9958 C   0  0  0  0  0  0  0  0  0  0  0  0
  -16.6785  -39.3162   -7.5035 C   0  0  1  0  0  0  0  0  0  0  0  0
  -17.0809  -38.8030   -6.2609 O   0  0  0  0  0  0  0  0  0  0  0  0
  -17.8600  -39.2537   -8.4600 C   0  0  2  0  0  0  0  0  0  0  0  0
  -19.1831  -39.4114   -7.7325 C   0  0  0  0  0  0  0  0  0  0  0  0
  -19.6444  -38.1418   -7.0560 C   0  0  2  0  0  0  0  0  0  0  0  0
  -19.6210  -38.3215   -5.5706 C   0  0  0  0  0  0  0  0  0  0  0  0
  -20.9281  -37.7038   -7.6290 C   0  0  0  0  0  0  0  0  0  0  0  0
  -22.1695  -38.0427   -6.8829 C   0  0  0  0  0  0  0  0  0  0  0  0
  -22.3653  -39.4838   -6.5566 C   0  0  0  0  0  0  0  0  0  0  0  0
  -23.2362  -40.1468   -7.6135 C   0  0  0  0  0  0  0  0  0  0  0  0
  -24.0304  -41.2521   -6.9515 C   0  0  0  0  0  0  0  0  0  0  0  0
  -23.6213  -42.6334   -7.4366 C   0  0  0  0  0  0  0  0  0  0  0  0
  -22.6233  -43.2109   -6.4363 C   0  0  0  0  0  0  0  0  0  0  0  0
  -21.6284  -44.0181   -7.0992 N   0  0  0  0  0  0  0  0  0  0  0  0
  -22.1084  -45.4426   -7.2282 C   0  0  0  0  0  0  0  0  0  0  0  0
  -20.3182  -43.6497   -7.5720 C   0  0  0  0  0  0  0  0  0  0  0  0
  -19.8590  -42.6318   -8.3624 C   0  0  0  0  0  0  0  0  0  0  0  0
  -18.5079  -42.5640   -8.6190 C   0  0  0  0  0  0  0  0  0  0  0  0
  -17.6737  -43.5564   -8.0501 C   0  0  0  0  0  0  0  0  0  0  0  0
  -18.1284  -44.5843   -7.2550 C   0  0  0  0  0  0  0  0  0  0  0  0
  -19.4207  -44.5798   -7.0563 N   0  0  0  0  0  0  0  0  0  0  0  0
  -17.6963  -41.6242   -9.3946 C   0  0  0  0  0  0  0  0  0  0  0  0
  -16.7176  -42.1097  -10.1426 O   0  0  0  0  0  0  0  0  0  0  0  0
  -17.7228  -40.2194   -9.5309 N   0  0  0  0  0  0  0  0  0  0  0  0
  -13.6817  -39.0552  -11.7678 C   0  0  0  0  0  0  0  0  0  0  0  0
  1  2  1  0
  2  3  1  0
  2  4  1  0
  4  5  2  0
  5  6  1  0
  6  7  2  0
  7  8  1  0
  8  9  1  0
  9 10  1  0
 10 11  1  0
 11 12  1  0
 12 13  1  1
 12 14  1  0
 14 15  1  1
 15 16  1  0
 16 17  1  1
 16 18  1  0
 18 19  1  0
 19 20  1  0
 20 21  1  0
 21 22  1  0
 22 23  1  0
 23 24  1  0
 24 25  1  0
 25 26  1  0
 25 27  1  0
 27 28  2  0
 28 29  1  0
 29 30  2  0
 30 31  1  0
 31 32  2  0
 29 33  1  0
 33 34  2  0
 33 35  1  0
  8 36  2  0
 32 27  1  0
 35 14  1  0
 36  4  1  0
M  END
$$$$
