
     RDKit          3D

 36 38  0  0  0  0  0  0  0  0999 V2000
  -13.4755  -33.8419  -12.8503 C   0  0  0  0  0  0  0  0  0  0  0  0
  -14.6852  -34.6435  -12.3535 C   0  0  0  0  0  0  0  0  0  0  0  0
  -15.8902  -34.3608  -13.2226 C   0  0  0  0  0  0  0  0  0  0  0  0
  -14.3573  -36.0866  -12.3200 C   0  0  0  0  0  0  0  0  0  0  0  0
  -14.0672  -36.7554  -13.4887 C   0  0  0  0  0  0  0  0  0  0  0  0
  -13.7616  -38.1136  -13.4464 C   0  0  0  0  0  0  0  0  0  0  0  0
  -13.7527  -38.7762  -12.2325 C   0  0  0  0  0  0  0  0  0  0  0  0
  -14.0404  -38.1225  -11.0545 C   0  0  0  0  0  0  0  0  0  0  0  0
  -14.0285  -38.8509   -9.7603 C   0  0  0  0  0  0  0  0  0  0  0  0
  -15.1758  -38.5407   -8.9501 N   0  0  0  0  0  0  0  0  0  0  0  0
  -15.0501  -39.1118   -7.6236 C   0  0  0  0  0  0  0  0  0  0  0  0
  -16.0404  -40.2711   -7.4461 C   0  0  1  0  0  0  0  0  0  0  0  0
  -16.4628  -40.1750   -6.1113 O   0  0  0  0  0  0  0  0  0  0  0  0
  -17.2374  -40.0263   -8.3528 C   0  0  2  0  0  0  0  0  0  0  0  0
  -18.5346  -39.9562   -7.5672 C   0  0  0  0  0  0  0  0  0  0  0  0
  -18.7512  -38.6205   -6.8954 C   0  0  2  0  0  0  0  0  0  0  0  0
  -18.6911  -38.7847   -5.4093 C   0  0  0  0  0  0  0  0  0  0  0  0
  -19.9704  -37.9842   -7.4217 C   0  0  0  0  0  0  0  0  0  0  0  0
  -21.2158  -38.1061   -6.6176 C   0  0  0  0  0  0  0  0  0  0  0  0
  -21.6299  -39.4917   -6.2566 C   0  0  0  0  0  0  0  0  0  0  0  0
  -22.6440  -40.0147   -7.2633 C   0  0  0  0  0  0  0  0  0  0  0  0
  -23.5778  -40.9669   -6.5479 C   0  0  0  0  0  0  0  0  0  0  0  0
  -23.4222  -42.4021   -7.0241 C   0  0  0  0  0  0  0  0  0  0  0  0
  -22.4884  -43.1242   -6.0564 C   0  0  0  0  0  0  0  0  0  0  0  0
  -21.6696  -44.0914   -6.7457 N   0  0  0  0  0  0  0  0  0  0  0  0
  -22.3814  -45.4190   -6.8278 C   0  0  0  0  0  0  0  0  0  0  0  0
  -20.3393  -43.9485   -7.2802 C   0  0  0  0  0  0  0  0  0  0  0  0
  -19.7556  -43.0289   -8.1081 C   0  0  0  0  0  0  0  0  0  0  0  0
  -18.4245  -43.1868   -8.4228 C   0  0  0  0  0  0  0  0  0  0  0  0
  -17.7392  -44.2962   -7.8714 C   0  0  0  0  0  0  0  0  0  0  0  0
  -18.3198  -45.2264   -7.0388 C   0  0  0  0  0  0  0  0  0  0  0  0
  -19.5838  -45.0074   -6.7858 N   0  0  0  0  0  0  0  0  0  0  0  0
  -17.5056  -42.4019   -9.2494 C   0  0  0  0  0  0  0  0  0  0  0  0
  -16.6540  -43.0500  -10.0290 O   0  0  0  0  0  0  0  0  0  0  0  0
  -17.3081  -41.0134   -9.4105 N   0  0  0  0  0  0  0  0  0  0  0  0
  -14.3402  -36.7743  -11.1266 C   0  0  0  0  0  0  0  0  0  0  0  0
  1  2  1  0
  2  3  1  0
  2  4  1  0
  4  5  2  0
  5  6  1  0
  6  7  2  0
  7  8  1  0
  8  9  1  0
  9 10  1  0
 10 11  1  0
 11 12  1  0
 12 13  1  1
 12 14  1  0
 14 15  1  1
 15 16  1  0
 16 17  1  1
 16 18  1  0
 18 19  1  0
 19 20  1  0
 20 21  1  0
 21 22  1  0
 22 23  1  0
 23 24  1  0
 24 25  1  0
 25 26  1  0
 25 27  1  0
 27 28  2  0
 28 29  1  0
 29 30  2  0
 30 31  1  0
 31 32  2  0
 29 33  1  0
 33 34  2  0
 33 35  1  0
  8 36  2  0
 32 27  1  0
 35 14  1  0
 36  4  1  0
M  END
$$$$
