
     RDKit          3D

 36 38  0  0  0  0  0  0  0  0999 V2000
  -12.0725  -35.0387  -12.7064 C   0  0  0  0  0  0  0  0  0  0  0  0
  -12.5732  -35.6766  -11.4044 C   0  0  0  0  0  0  0  0  0  0  0  0
  -13.7411  -34.8889  -10.8538 C   0  0  0  0  0  0  0  0  0  0  0  0
  -12.9275  -37.0947  -11.6387 C   0  0  0  0  0  0  0  0  0  0  0  0
  -13.4435  -37.4849  -12.8547 C   0  0  0  0  0  0  0  0  0  0  0  0
  -13.7752  -38.8214  -13.0643 C   0  0  0  0  0  0  0  0  0  0  0  0
  -13.5832  -39.7419  -12.0502 C   0  0  0  0  0  0  0  0  0  0  0  0
  -13.0681  -39.3684  -10.8283 C   0  0  0  0  0  0  0  0  0  0  0  0
  -12.8711  -40.3704   -9.7499 C   0  0  0  0  0  0  0  0  0  0  0  0
  -13.8845  -40.2825   -8.7330 N   0  0  0  0  0  0  0  0  0  0  0  0
  -15.0945  -39.6746   -9.2506 C   0  0  0  0  0  0  0  0  0  0  0  0
  -16.2336  -39.8005   -8.2294 C   0  0  1  0  0  0  0  0  0  0  0  0
  -16.1160  -38.6567   -7.4248 O   0  0  0  0  0  0  0  0  0  0  0  0
  -17.5587  -39.7357   -8.9742 C   0  0  2  0  0  0  0  0  0  0  0  0
  -18.7390  -39.6815   -8.0210 C   0  0  0  0  0  0  0  0  0  0  0  0
  -18.9770  -38.3044   -7.4474 C   0  0  2  0  0  0  0  0  0  0  0  0
  -18.7027  -38.3134   -5.9765 C   0  0  0  0  0  0  0  0  0  0  0  0
  -20.3062  -37.8145   -7.8491 C   0  0  0  0  0  0  0  0  0  0  0  0
  -21.4165  -37.9452   -6.8679 C   0  0  0  0  0  0  0  0  0  0  0  0
  -21.6573  -39.3138   -6.3291 C   0  0  0  0  0  0  0  0  0  0  0  0
  -22.7493  -40.0077   -7.1299 C   0  0  0  0  0  0  0  0  0  0  0  0
  -23.4925  -40.9486   -6.2063 C   0  0  0  0  0  0  0  0  0  0  0  0
  -23.2799  -42.4092   -6.5695 C   0  0  0  0  0  0  0  0  0  0  0  0
  -22.1652  -42.9605   -5.6842 C   0  0  0  0  0  0  0  0  0  0  0  0
  -21.3669  -43.9300   -6.3940 N   0  0  0  0  0  0  0  0  0  0  0  0
  -21.9665  -45.3074   -6.2546 C   0  0  0  0  0  0  0  0  0  0  0  0
  -20.1382  -43.7453   -7.1235 C   0  0  0  0  0  0  0  0  0  0  0  0
  -19.7530  -42.8736   -8.1051 C   0  0  0  0  0  0  0  0  0  0  0  0
  -18.4680  -42.9652   -8.5911 C   0  0  0  0  0  0  0  0  0  0  0  0
  -17.6217  -43.9607   -8.0461 C   0  0  0  0  0  0  0  0  0  0  0  0
  -18.0023  -44.8422   -7.0594 C   0  0  0  0  0  0  0  0  0  0  0  0
  -19.2347  -44.6914   -6.6492 N   0  0  0  0  0  0  0  0  0  0  0  0
  -17.7402  -42.2027   -9.6072 C   0  0  0  0  0  0  0  0  0  0  0  0
  -16.9491  -42.8623  -10.4392 O   0  0  0  0  0  0  0  0  0  0  0  0
  -17.6864  -40.8268   -9.9184 N   0  0  0  0  0  0  0  0  0  0  0  0
  -12.7478  -38.0351  -10.6484 C   0  0  0  0  0  0  0  0  0  0  0  0
  1  2  1  0
  2  3  1  0
  2  4  1  0
  4  5  2  0
  5  6  1  0
  6  7  2  0
  7  8  1  0
  8  9  1  0
  9 10  1  0
 10 11  1  0
 11 12  1  0
 12 13  1  1
 12 14  1  0
 14 15  1  1
 15 16  1  0
 16 17  1  1
 16 18  1  0
 18 19  1  0
 19 20  1  0
 20 21  1  0
 21 22  1  0
 22 23  1  0
 23 24  1  0
 24 25  1  0
 25 26  1  0
 25 27  1  0
 27 28  2  0
 28 29  1  0
 29 30  2  0
 30 31  1  0
 31 32  2  0
 29 33  1  0
 33 34  2  0
 33 35  1  0
  8 36  2  0
 32 27  1  0
 35 14  1  0
 36  4  1  0
M  END
$$$$
