
     RDKit          3D

 36 38  0  0  0  0  0  0  0  0999 V2000
  -14.1327  -34.6039  -12.1574 C   0  0  0  0  0  0  0  0  0  0  0  0
  -12.7605  -35.2890  -12.1332 C   0  0  0  0  0  0  0  0  0  0  0  0
  -11.8967  -34.6870  -11.0474 C   0  0  0  0  0  0  0  0  0  0  0  0
  -12.9267  -36.7494  -11.9579 C   0  0  0  0  0  0  0  0  0  0  0  0
  -13.3236  -37.5310  -13.0203 C   0  0  0  0  0  0  0  0  0  0  0  0
  -13.4786  -38.9040  -12.8443 C   0  0  0  0  0  0  0  0  0  0  0  0
  -13.2326  -39.4678  -11.6057 C   0  0  0  0  0  0  0  0  0  0  0  0
  -12.8349  -38.7006  -10.5328 C   0  0  0  0  0  0  0  0  0  0  0  0
  -12.5775  -39.3231   -9.2092 C   0  0  0  0  0  0  0  0  0  0  0  0
  -13.5275  -40.3580   -8.9001 N   0  0  0  0  0  0  0  0  0  0  0  0
  -14.7922  -40.1250   -9.5693 C   0  0  0  0  0  0  0  0  0  0  0  0
  -15.9382  -40.0958   -8.5485 C   0  0  1  0  0  0  0  0  0  0  0  0
  -15.7306  -38.9167   -7.8163 O   0  0  0  0  0  0  0  0  0  0  0  0
  -17.2536  -39.9731   -9.3033 C   0  0  2  0  0  0  0  0  0  0  0  0
  -18.4404  -39.9005   -8.3594 C   0  0  0  0  0  0  0  0  0  0  0  0
  -18.6395  -38.5286   -7.7593 C   0  0  2  0  0  0  0  0  0  0  0  0
  -18.3795  -38.5768   -6.2865 C   0  0  0  0  0  0  0  0  0  0  0  0
  -19.9486  -37.9880   -8.1622 C   0  0  0  0  0  0  0  0  0  0  0  0
  -21.0716  -38.1030   -7.1936 C   0  0  0  0  0  0  0  0  0  0  0  0
  -21.3611  -39.4741   -6.6856 C   0  0  0  0  0  0  0  0  0  0  0  0
  -22.4672  -40.1158   -7.5102 C   0  0  0  0  0  0  0  0  0  0  0  0
  -23.2488  -41.0510   -6.6129 C   0  0  0  0  0  0  0  0  0  0  0  0
  -23.0796  -42.5100   -7.0048 C   0  0  0  0  0  0  0  0  0  0  0  0
  -21.9915  -43.1150   -6.1215 C   0  0  0  0  0  0  0  0  0  0  0  0
  -21.2180  -44.0949   -6.8445 N   0  0  0  0  0  0  0  0  0  0  0  0
  -21.8627  -45.4548   -6.7391 C   0  0  0  0  0  0  0  0  0  0  0  0
  -19.9773  -43.9348   -7.5592 C   0  0  0  0  0  0  0  0  0  0  0  0
  -19.5553  -43.0560   -8.5190 C   0  0  0  0  0  0  0  0  0  0  0  0
  -18.2693  -43.1788   -8.9957 C   0  0  0  0  0  0  0  0  0  0  0  0
  -17.4605  -44.2121   -8.4642 C   0  0  0  0  0  0  0  0  0  0  0  0
  -17.8783  -45.1010   -7.4995 C   0  0  0  0  0  0  0  0  0  0  0  0
  -19.1090  -44.9191   -7.0970 N   0  0  0  0  0  0  0  0  0  0  0  0
  -17.5080  -42.4194   -9.9893 C   0  0  0  0  0  0  0  0  0  0  0  0
  -16.7307  -43.0868  -10.8280 O   0  0  0  0  0  0  0  0  0  0  0  0
  -17.4073  -41.0398  -10.2712 N   0  0  0  0  0  0  0  0  0  0  0  0
  -12.6892  -37.3406  -10.7366 C   0  0  0  0  0  0  0  0  0  0  0  0
  1  2  1  0
  2  3  1  0
  2  4  1  0
  4  5  2  0
  5  6  1  0
  6  7  2  0
  7  8  1  0
  8  9  1  0
  9 10  1  0
 10 11  1  0
 11 12  1  0
 12 13  1  1
 12 14  1  0
 14 15  1  1
 15 16  1  0
 16 17  1  1
 16 18  1  0
 18 19  1  0
 19 20  1  0
 20 21  1  0
 21 22  1  0
 22 23  1  0
 23 24  1  0
 24 25  1  0
 25 26  1  0
 25 27  1  0
 27 28  2  0
 28 29  1  0
 29 30  2  0
 30 31  1  0
 31 32  2  0
 29 33  1  0
 33 34  2  0
 33 35  1  0
  8 36  2  0
 32 27  1  0
 35 14  1  0
 36  4  1  0
M  END
$$$$
