
     RDKit          3D

 36 38  0  0  0  0  0  0  0  0999 V2000
  -23.2095  -37.4471   -8.1559 C   0  0  0  0  0  0  0  0  0  0  0  0
  -23.7676  -38.8037   -7.7076 C   0  0  0  0  0  0  0  0  0  0  0  0
  -23.9455  -39.7144   -8.9019 C   0  0  0  0  0  0  0  0  0  0  0  0
  -22.8804  -39.4035   -6.6856 C   0  0  0  0  0  0  0  0  0  0  0  0
  -23.3159  -39.5348   -5.3855 C   0  0  0  0  0  0  0  0  0  0  0  0
  -22.4726  -40.0990   -4.4311 C   0  0  0  0  0  0  0  0  0  0  0  0
  -21.2079  -40.5211   -4.7985 C   0  0  0  0  0  0  0  0  0  0  0  0
  -20.7568  -40.3972   -6.0943 C   0  0  0  0  0  0  0  0  0  0  0  0
  -19.3945  -40.8539   -6.4701 C   0  0  0  0  0  0  0  0  0  0  0  0
  -18.9437  -40.2655   -7.7028 N   0  0  0  0  0  0  0  0  0  0  0  0
  -18.0299  -39.1676   -7.4558 C   0  0  0  0  0  0  0  0  0  0  0  0
  -17.3404  -38.7437   -8.7600 C   0  0  1  0  0  0  0  0  0  0  0  0
  -17.8055  -37.4415   -8.9996 O   0  0  0  0  0  0  0  0  0  0  0  0
  -15.8398  -38.6859   -8.5159 C   0  0  2  0  0  0  0  0  0  0  0  0
  -15.0893  -38.1813   -9.7352 C   0  0  0  0  0  0  0  0  0  0  0  0
  -15.1382  -36.6788   -9.8836 C   0  0  2  0  0  0  0  0  0  0  0  0
  -15.9266  -36.3149  -11.1022 C   0  0  0  0  0  0  0  0  0  0  0  0
  -13.7774  -36.1211   -9.8097 C   0  0  0  0  0  0  0  0  0  0  0  0
  -13.0940  -35.7945  -11.0899 C   0  0  0  0  0  0  0  0  0  0  0  0
  -13.0033  -36.9004  -12.0851 C   0  0  0  0  0  0  0  0  0  0  0  0
  -11.6650  -37.6128  -11.9563 C   0  0  0  0  0  0  0  0  0  0  0  0
  -11.2655  -38.1267  -13.3227 C   0  0  0  0  0  0  0  0  0  0  0  0
  -11.2655  -39.6451  -13.3962 C   0  0  0  0  0  0  0  0  0  0  0  0
  -12.5992  -40.0909  -13.9901 C   0  0  0  0  0  0  0  0  0  0  0  0
  -13.0409  -41.3336  -13.4054 N   0  0  0  0  0  0  0  0  0  0  0  0
  -12.4710  -42.5044  -14.1672 C   0  0  0  0  0  0  0  0  0  0  0  0
  -13.9283  -41.5563  -12.2925 C   0  0  0  0  0  0  0  0  0  0  0  0
  -13.9703  -41.0684  -11.0150 C   0  0  0  0  0  0  0  0  0  0  0  0
  -14.9860  -41.4927  -10.1879 C   0  0  0  0  0  0  0  0  0  0  0  0
  -15.9264  -42.4133  -10.7101 C   0  0  0  0  0  0  0  0  0  0  0  0
  -15.8900  -42.9098  -11.9937 C   0  0  0  0  0  0  0  0  0  0  0  0
  -14.8985  -42.4590  -12.7172 N   0  0  0  0  0  0  0  0  0  0  0  0
  -15.3295  -41.1714   -8.8013 C   0  0  0  0  0  0  0  0  0  0  0  0
  -15.7342  -42.1540   -8.0116 O   0  0  0  0  0  0  0  0  0  0  0  0
  -15.3291  -39.9652   -8.0679 N   0  0  0  0  0  0  0  0  0  0  0  0
  -21.6153  -39.8335   -7.0205 C   0  0  0  0  0  0  0  0  0  0  0  0
  1  2  1  0
  2  3  1  0
  2  4  1  0
  4  5  2  0
  5  6  1  0
  6  7  2  0
  7  8  1  0
  8  9  1  0
  9 10  1  0
 10 11  1  0
 11 12  1  0
 12 13  1  1
 12 14  1  0
 14 15  1  6
 15 16  1  0
 16 17  1  6
 16 18  1  0
 18 19  1  0
 19 20  1  0
 20 21  1  0
 21 22  1  0
 22 23  1  0
 23 24  1  0
 24 25  1  0
 25 26  1  0
 25 27  1  0
 27 28  2  0
 28 29  1  0
 29 30  2  0
 30 31  1  0
 31 32  2  0
 29 33  1  0
 33 34  2  0
 33 35  1  0
  8 36  2  0
 32 27  1  0
 35 14  1  0
 36  4  1  0
M  END
$$$$
