
     RDKit          3D

 36 38  0  0  0  0  0  0  0  0999 V2000
  -22.0213  -40.9907   -2.6508 C   0  0  0  0  0  0  0  0  0  0  0  0
  -22.2263  -41.8259   -3.9209 C   0  0  0  0  0  0  0  0  0  0  0  0
  -23.6974  -42.1117   -4.1249 C   0  0  0  0  0  0  0  0  0  0  0  0
  -21.6342  -41.1301   -5.0856 C   0  0  0  0  0  0  0  0  0  0  0  0
  -21.8419  -41.6154   -6.3578 C   0  0  0  0  0  0  0  0  0  0  0  0
  -21.2790  -40.9542   -7.4468 C   0  0  0  0  0  0  0  0  0  0  0  0
  -20.5179  -39.8182   -7.2397 C   0  0  0  0  0  0  0  0  0  0  0  0
  -20.3004  -39.3194   -5.9740 C   0  0  0  0  0  0  0  0  0  0  0  0
  -19.4782  -38.0995   -5.7704 C   0  0  0  0  0  0  0  0  0  0  0  0
  -18.1155  -38.4115   -5.4319 N   0  0  0  0  0  0  0  0  0  0  0  0
  -17.5342  -39.3290   -6.3920 C   0  0  0  0  0  0  0  0  0  0  0  0
  -16.5685  -38.5845   -7.3242 C   0  0  1  0  0  0  0  0  0  0  0  0
  -15.5827  -38.0648   -6.4713 O   0  0  0  0  0  0  0  0  0  0  0  0
  -15.9196  -39.5975   -8.2556 C   0  0  2  0  0  0  0  0  0  0  0  0
  -16.2392  -39.3103   -9.7116 C   0  0  0  0  0  0  0  0  0  0  0  0
  -15.3929  -38.2055  -10.2992 C   0  0  2  0  0  0  0  0  0  0  0  0
  -16.2526  -37.0229  -10.6175 C   0  0  0  0  0  0  0  0  0  0  0  0
  -14.5842  -38.7290  -11.4129 C   0  0  0  0  0  0  0  0  0  0  0  0
  -15.0809  -38.4983  -12.7958 C   0  0  0  0  0  0  0  0  0  0  0  0
  -16.4698  -38.9593  -13.0787 C   0  0  0  0  0  0  0  0  0  0  0  0
  -16.4451  -40.3508  -13.6938 C   0  0  0  0  0  0  0  0  0  0  0  0
  -17.6261  -40.4781  -14.6317 C   0  0  0  0  0  0  0  0  0  0  0  0
  -18.6540  -41.4842  -14.1399 C   0  0  0  0  0  0  0  0  0  0  0  0
  -19.7511  -40.7198  -13.4037 C   0  0  0  0  0  0  0  0  0  0  0  0
  -20.2649  -41.4849  -12.2938 N   0  0  0  0  0  0  0  0  0  0  0  0
  -21.3901  -42.3806  -12.7495 C   0  0  0  0  0  0  0  0  0  0  0  0
  -19.8796  -41.4550  -10.9059 C   0  0  0  0  0  0  0  0  0  0  0  0
  -18.6737  -41.5445  -10.2659 C   0  0  0  0  0  0  0  0  0  0  0  0
  -18.6577  -41.4687   -8.8911 C   0  0  0  0  0  0  0  0  0  0  0  0
  -19.8942  -41.3055   -8.2211 C   0  0  0  0  0  0  0  0  0  0  0  0
  -21.1116  -41.2160   -8.8579 C   0  0  0  0  0  0  0  0  0  0  0  0
  -21.0441  -41.2945  -10.1613 N   0  0  0  0  0  0  0  0  0  0  0  0
  -17.5699  -41.5154   -7.9124 C   0  0  0  0  0  0  0  0  0  0  0  0
  -17.7605  -42.1996   -6.7949 O   0  0  0  0  0  0  0  0  0  0  0  0
  -16.2752  -40.9532   -7.8897 N   0  0  0  0  0  0  0  0  0  0  0  0
  -20.8715  -39.9963   -4.9118 C   0  0  0  0  0  0  0  0  0  0  0  0
  1  2  1  0
  2  3  1  0
  2  4  1  0
  4  5  2  0
  5  6  1  0
  6  7  2  0
  7  8  1  0
  8  9  1  0
  9 10  1  0
 10 11  1  0
 11 12  1  0
 12 13  1  1
 12 14  1  0
 14 15  1  6
 15 16  1  0
 16 17  1  6
 16 18  1  0
 18 19  1  0
 19 20  1  0
 20 21  1  0
 21 22  1  0
 22 23  1  0
 23 24  1  0
 24 25  1  0
 25 26  1  0
 25 27  1  0
 27 28  2  0
 28 29  1  0
 29 30  2  0
 30 31  1  0
 31 32  2  0
 29 33  1  0
 33 34  2  0
 33 35  1  0
  8 36  2  0
 32 27  1  0
 35 14  1  0
 36  4  1  0
M  END
$$$$
