
     RDKit          3D

 36 38  0  0  0  0  0  0  0  0999 V2000
  -23.1277  -38.3315   -6.6331 C   0  0  0  0  0  0  0  0  0  0  0  0
  -22.6007  -39.1615   -7.8105 C   0  0  0  0  0  0  0  0  0  0  0  0
  -22.3077  -38.2631   -8.9914 C   0  0  0  0  0  0  0  0  0  0  0  0
  -21.4061  -39.9300   -7.3939 C   0  0  0  0  0  0  0  0  0  0  0  0
  -21.4170  -41.3061   -7.4501 C   0  0  0  0  0  0  0  0  0  0  0  0
  -20.2883  -42.0199   -7.0542 C   0  0  0  0  0  0  0  0  0  0  0  0
  -19.1693  -41.3399   -6.6092 C   0  0  0  0  0  0  0  0  0  0  0  0
  -19.1416  -39.9640   -6.5467 C   0  0  0  0  0  0  0  0  0  0  0  0
  -17.9318  -39.2508   -6.0637 C   0  0  0  0  0  0  0  0  0  0  0  0
  -17.2777  -38.5157   -7.1128 N   0  0  0  0  0  0  0  0  0  0  0  0
  -16.2453  -39.3126   -7.7456 C   0  0  0  0  0  0  0  0  0  0  0  0
  -14.8933  -38.5895   -7.6724 C   0  0  1  0  0  0  0  0  0  0  0  0
  -14.6466  -38.4376   -6.2993 O   0  0  0  0  0  0  0  0  0  0  0  0
  -13.8260  -39.5013   -8.2593 C   0  0  2  0  0  0  0  0  0  0  0  0
  -13.1621  -38.8817   -9.4759 C   0  0  0  0  0  0  0  0  0  0  0  0
  -12.1119  -37.8553   -9.1218 C   0  0  2  0  0  0  0  0  0  0  0  0
  -12.5613  -36.4975   -9.5616 C   0  0  0  0  0  0  0  0  0  0  0  0
  -10.7961  -38.2884   -9.6211 C   0  0  0  0  0  0  0  0  0  0  0  0
  -10.3173  -37.7056  -10.9032 C   0  0  0  0  0  0  0  0  0  0  0  0
  -11.2358  -37.8430  -12.0690 C   0  0  0  0  0  0  0  0  0  0  0  0
  -10.8612  -39.0683  -12.8896 C   0  0  0  0  0  0  0  0  0  0  0  0
  -11.2020  -38.7937  -14.3385 C   0  0  0  0  0  0  0  0  0  0  0  0
  -12.3325  -39.6734  -14.8472 C   0  0  0  0  0  0  0  0  0  0  0  0
  -13.6334  -38.8820  -14.7418 C   0  0  0  0  0  0  0  0  0  0  0  0
  -14.7425  -39.7434  -14.4117 N   0  0  0  0  0  0  0  0  0  0  0  0
  -15.3560  -40.3138  -15.6664 C   0  0  0  0  0  0  0  0  0  0  0  0
  -15.3062  -40.0559  -13.1231 C   0  0  0  0  0  0  0  0  0  0  0  0
  -14.7646  -40.4857  -11.9426 C   0  0  0  0  0  0  0  0  0  0  0  0
  -15.6077  -40.6845  -10.8723 C   0  0  0  0  0  0  0  0  0  0  0  0
  -16.9886  -40.4343  -11.0599 C   0  0  0  0  0  0  0  0  0  0  0  0
  -17.5411  -40.0030  -12.2449 C   0  0  0  0  0  0  0  0  0  0  0  0
  -16.6773  -39.8359  -13.2121 N   0  0  0  0  0  0  0  0  0  0  0  0
  -15.3688  -41.1180   -9.4944 C   0  0  0  0  0  0  0  0  0  0  0  0
  -16.2284  -41.9614   -8.9443 O   0  0  0  0  0  0  0  0  0  0  0  0
  -14.3596  -40.8150   -8.5549 N   0  0  0  0  0  0  0  0  0  0  0  0
  -20.2763  -39.2816   -6.9461 C   0  0  0  0  0  0  0  0  0  0  0  0
  1  2  1  0
  2  3  1  0
  2  4  1  0
  4  5  2  0
  5  6  1  0
  6  7  2  0
  7  8  1  0
  8  9  1  0
  9 10  1  0
 10 11  1  0
 11 12  1  0
 12 13  1  1
 12 14  1  0
 14 15  1  6
 15 16  1  0
 16 17  1  6
 16 18  1  0
 18 19  1  0
 19 20  1  0
 20 21  1  0
 21 22  1  0
 22 23  1  0
 23 24  1  0
 24 25  1  0
 25 26  1  0
 25 27  1  0
 27 28  2  0
 28 29  1  0
 29 30  2  0
 30 31  1  0
 31 32  2  0
 29 33  1  0
 33 34  2  0
 33 35  1  0
  8 36  2  0
 32 27  1  0
 35 14  1  0
 36  4  1  0
M  END
$$$$
