
     RDKit          3D

 36 38  0  0  0  0  0  0  0  0999 V2000
  -22.9784  -39.6820   -8.3817 C   0  0  0  0  0  0  0  0  0  0  0  0
  -22.9330  -39.2370   -6.9145 C   0  0  0  0  0  0  0  0  0  0  0  0
  -24.3037  -39.3660   -6.2883 C   0  0  0  0  0  0  0  0  0  0  0  0
  -21.9158  -40.0212   -6.1786 C   0  0  0  0  0  0  0  0  0  0  0  0
  -22.2697  -41.1974   -5.5554 C   0  0  0  0  0  0  0  0  0  0  0  0
  -21.3053  -41.9269   -4.8641 C   0  0  0  0  0  0  0  0  0  0  0  0
  -20.0035  -41.4630   -4.8107 C   0  0  0  0  0  0  0  0  0  0  0  0
  -19.6328  -40.2887   -5.4284 C   0  0  0  0  0  0  0  0  0  0  0  0
  -18.2305  -39.8047   -5.3583 C   0  0  0  0  0  0  0  0  0  0  0  0
  -17.3181  -40.6772   -6.0476 N   0  0  0  0  0  0  0  0  0  0  0  0
  -16.0017  -40.0795   -6.1548 C   0  0  0  0  0  0  0  0  0  0  0  0
  -16.0273  -38.9074   -7.1456 C   0  0  1  0  0  0  0  0  0  0  0  0
  -15.0444  -38.0235   -6.6743 O   0  0  0  0  0  0  0  0  0  0  0  0
  -15.6018  -39.4220   -8.5127 C   0  0  2  0  0  0  0  0  0  0  0  0
  -16.2349  -38.6232   -9.6378 C   0  0  0  0  0  0  0  0  0  0  0  0
  -15.5377  -37.3087   -9.8989 C   0  0  2  0  0  0  0  0  0  0  0  0
  -16.4446  -36.1737   -9.5408 C   0  0  0  0  0  0  0  0  0  0  0  0
  -14.9959  -37.2895  -11.2680 C   0  0  0  0  0  0  0  0  0  0  0  0
  -15.7857  -36.5861  -12.3139 C   0  0  0  0  0  0  0  0  0  0  0  0
  -17.2034  -37.0196  -12.4670 C   0  0  0  0  0  0  0  0  0  0  0  0
  -17.3174  -38.0577  -13.5737 C   0  0  0  0  0  0  0  0  0  0  0  0
  -18.6767  -37.9139  -14.2236 C   0  0  0  0  0  0  0  0  0  0  0  0
  -19.5720  -39.1164  -13.9722 C   0  0  0  0  0  0  0  0  0  0  0  0
  -20.4781  -38.7934  -12.7870 C   0  0  0  0  0  0  0  0  0  0  0  0
  -20.7350  -39.9691  -11.9915 N   0  0  0  0  0  0  0  0  0  0  0  0
  -21.9345  -40.7125  -12.5250 C   0  0  0  0  0  0  0  0  0  0  0  0
  -20.0524  -40.4447  -10.8152 C   0  0  0  0  0  0  0  0  0  0  0  0
  -18.7350  -40.6703  -10.5230 C   0  0  0  0  0  0  0  0  0  0  0  0
  -18.4156  -41.1305   -9.2652 C   0  0  0  0  0  0  0  0  0  0  0  0
  -19.4731  -41.3460   -8.3489 C   0  0  0  0  0  0  0  0  0  0  0  0
  -20.8010  -41.1226   -8.6359 C   0  0  0  0  0  0  0  0  0  0  0  0
  -21.0234  -40.6853   -9.8479 N   0  0  0  0  0  0  0  0  0  0  0  0
  -17.1383  -41.4579   -8.6287 C   0  0  0  0  0  0  0  0  0  0  0  0
  -17.0784  -42.5344   -7.8601 O   0  0  0  0  0  0  0  0  0  0  0  0
  -15.8698  -40.8389   -8.6493 N   0  0  0  0  0  0  0  0  0  0  0  0
  -20.6110  -39.5854   -6.1074 C   0  0  0  0  0  0  0  0  0  0  0  0
  1  2  1  0
  2  3  1  0
  2  4  1  0
  4  5  2  0
  5  6  1  0
  6  7  2  0
  7  8  1  0
  8  9  1  0
  9 10  1  0
 10 11  1  0
 11 12  1  0
 12 13  1  1
 12 14  1  0
 14 15  1  6
 15 16  1  0
 16 17  1  6
 16 18  1  0
 18 19  1  0
 19 20  1  0
 20 21  1  0
 21 22  1  0
 22 23  1  0
 23 24  1  0
 24 25  1  0
 25 26  1  0
 25 27  1  0
 27 28  2  0
 28 29  1  0
 29 30  2  0
 30 31  1  0
 31 32  2  0
 29 33  1  0
 33 34  2  0
 33 35  1  0
  8 36  2  0
 32 27  1  0
 35 14  1  0
 36  4  1  0
M  END
$$$$
