
     RDKit          3D

 36 38  0  0  0  0  0  0  0  0999 V2000
  -13.6056  -34.8999  -10.9914 C   0  0  0  0  0  0  0  0  0  0  0  0
  -12.5452  -35.5474  -11.8910 C   0  0  0  0  0  0  0  0  0  0  0  0
  -11.1730  -35.3909  -11.2745 C   0  0  0  0  0  0  0  0  0  0  0  0
  -12.8827  -36.9689  -12.1292 C   0  0  0  0  0  0  0  0  0  0  0  0
  -13.3327  -37.3730  -13.3666 C   0  0  0  0  0  0  0  0  0  0  0  0
  -13.6492  -38.7126  -13.5798 C   0  0  0  0  0  0  0  0  0  0  0  0
  -13.5084  -39.6222  -12.5477 C   0  0  0  0  0  0  0  0  0  0  0  0
  -13.0596  -39.2348  -11.3041 C   0  0  0  0  0  0  0  0  0  0  0  0
  -12.9169  -40.2253  -10.2067 C   0  0  0  0  0  0  0  0  0  0  0  0
  -13.9501  -40.0918   -9.2149 N   0  0  0  0  0  0  0  0  0  0  0  0
  -15.2566  -39.9752   -9.8321 C   0  0  0  0  0  0  0  0  0  0  0  0
  -16.3595  -40.0780   -8.7694 C   0  0  1  0  0  0  0  0  0  0  0  0
  -16.1919  -38.9346   -7.9731 O   0  0  0  0  0  0  0  0  0  0  0  0
  -17.7097  -39.9911   -9.4654 C   0  0  2  0  0  0  0  0  0  0  0  0
  -18.8413  -39.7794   -8.4758 C   0  0  0  0  0  0  0  0  0  0  0  0
  -18.9689  -38.3459   -8.0165 C   0  0  2  0  0  0  0  0  0  0  0  0
  -18.6313  -38.2475   -6.5621 C   0  0  0  0  0  0  0  0  0  0  0  0
  -20.2821  -37.8068   -8.4080 C   0  0  0  0  0  0  0  0  0  0  0  0
  -21.3540  -37.7812   -7.3770 C   0  0  0  0  0  0  0  0  0  0  0  0
  -21.6542  -39.0805   -6.7113 C   0  0  0  0  0  0  0  0  0  0  0  0
  -22.8209  -39.7677   -7.4055 C   0  0  0  0  0  0  0  0  0  0  0  0
  -23.5790  -40.5763   -6.3749 C   0  0  0  0  0  0  0  0  0  0  0  0
  -23.4725  -42.0733   -6.6166 C   0  0  0  0  0  0  0  0  0  0  0  0
  -22.3559  -42.6184   -5.7300 C   0  0  0  0  0  0  0  0  0  0  0  0
  -21.6505  -43.6946   -6.3823 N   0  0  0  0  0  0  0  0  0  0  0  0
  -22.3267  -45.0132   -6.0996 C   0  0  0  0  0  0  0  0  0  0  0  0
  -20.4461  -43.6527   -7.1720 C   0  0  0  0  0  0  0  0  0  0  0  0
  -20.0519  -42.8946   -8.2404 C   0  0  0  0  0  0  0  0  0  0  0  0
  -18.7975  -43.1103   -8.7657 C   0  0  0  0  0  0  0  0  0  0  0  0
  -17.9907  -44.1087   -8.1685 C   0  0  0  0  0  0  0  0  0  0  0  0
  -18.3808  -44.8764   -7.0943 C   0  0  0  0  0  0  0  0  0  0  0  0
  -19.5823  -44.6116   -6.6517 N   0  0  0  0  0  0  0  0  0  0  0  0
  -18.0697  -42.4859   -9.8721 C   0  0  0  0  0  0  0  0  0  0  0  0
  -17.3580  -43.2639  -10.6729 O   0  0  0  0  0  0  0  0  0  0  0  0
  -17.9455  -41.1479  -10.3046 N   0  0  0  0  0  0  0  0  0  0  0  0
  -12.7529  -37.8988  -11.1213 C   0  0  0  0  0  0  0  0  0  0  0  0
  1  2  1  0
  2  3  1  0
  2  4  1  0
  4  5  2  0
  5  6  1  0
  6  7  2  0
  7  8  1  0
  8  9  1  0
  9 10  1  0
 10 11  1  0
 11 12  1  0
 12 13  1  1
 12 14  1  0
 14 15  1  1
 15 16  1  0
 16 17  1  1
 16 18  1  0
 18 19  1  0
 19 20  1  0
 20 21  1  0
 21 22  1  0
 22 23  1  0
 23 24  1  0
 24 25  1  0
 25 26  1  0
 25 27  1  0
 27 28  2  0
 28 29  1  0
 29 30  2  0
 30 31  1  0
 31 32  2  0
 29 33  1  0
 33 34  2  0
 33 35  1  0
  8 36  2  0
 32 27  1  0
 35 14  1  0
 36  4  1  0
M  END
$$$$
