
     RDKit          3D

 36 38  0  0  0  0  0  0  0  0999 V2000
  -16.5294  -45.3161  -12.7581 C   0  0  0  0  0  0  0  0  0  0  0  0
  -16.6613  -44.9810  -11.2671 C   0  0  0  0  0  0  0  0  0  0  0  0
  -15.8179  -45.9286  -10.4435 C   0  0  0  0  0  0  0  0  0  0  0  0
  -16.2906  -43.5675  -11.0310 C   0  0  0  0  0  0  0  0  0  0  0  0
  -16.8431  -42.5709  -11.8047 C   0  0  0  0  0  0  0  0  0  0  0  0
  -16.4863  -41.2442  -11.5755 C   0  0  0  0  0  0  0  0  0  0  0  0
  -15.5816  -40.9415  -10.5742 C   0  0  0  0  0  0  0  0  0  0  0  0
  -15.0197  -41.9260   -9.7913 C   0  0  0  0  0  0  0  0  0  0  0  0
  -14.0479  -41.5824   -8.7221 C   0  0  0  0  0  0  0  0  0  0  0  0
  -14.6936  -41.0698   -7.5434 N   0  0  0  0  0  0  0  0  0  0  0  0
  -15.0893  -39.6867   -7.7226 C   0  0  0  0  0  0  0  0  0  0  0  0
  -16.5179  -39.4694   -7.2048 C   0  0  1  0  0  0  0  0  0  0  0  0
  -16.6727  -38.0752   -7.1668 O   0  0  0  0  0  0  0  0  0  0  0  0
  -17.4926  -40.0382   -8.2253 C   0  0  2  0  0  0  0  0  0  0  0  0
  -18.8092  -39.2824   -8.2295 C   0  0  0  0  0  0  0  0  0  0  0  0
  -18.7450  -37.9810   -8.9939 C   0  0  2  0  0  0  0  0  0  0  0  0
  -18.9062  -36.8305   -8.0509 C   0  0  0  0  0  0  0  0  0  0  0  0
  -19.6830  -38.0168  -10.1285 C   0  0  0  0  0  0  0  0  0  0  0  0
  -21.0027  -37.3528   -9.9553 C   0  0  0  0  0  0  0  0  0  0  0  0
  -21.8060  -37.7883   -8.7778 C   0  0  0  0  0  0  0  0  0  0  0  0
  -22.7955  -38.8686   -9.1890 C   0  0  0  0  0  0  0  0  0  0  0  0
  -24.0246  -38.7467   -8.3143 C   0  0  0  0  0  0  0  0  0  0  0  0
  -24.1965  -39.9361   -7.3834 C   0  0  0  0  0  0  0  0  0  0  0  0
  -23.6065  -39.5645   -6.0255 C   0  0  0  0  0  0  0  0  0  0  0  0
  -22.9951  -40.7075   -5.3923 N   0  0  0  0  0  0  0  0  0  0  0  0
  -24.0160  -41.4680   -4.5827 C   0  0  0  0  0  0  0  0  0  0  0  0
  -21.6205  -41.1385   -5.4136 C   0  0  0  0  0  0  0  0  0  0  0  0
  -20.7221  -41.3560   -6.4222 C   0  0  0  0  0  0  0  0  0  0  0  0
  -19.4517  -41.7675   -6.0865 C   0  0  0  0  0  0  0  0  0  0  0  0
  -19.1523  -41.9441   -4.7140 C   0  0  0  0  0  0  0  0  0  0  0  0
  -20.0512  -41.7286   -3.6937 C   0  0  0  0  0  0  0  0  0  0  0  0
  -21.2339  -41.3385   -4.0919 N   0  0  0  0  0  0  0  0  0  0  0  0
  -18.2678  -42.0731   -6.8918 C   0  0  0  0  0  0  0  0  0  0  0  0
  -17.5305  -43.1188   -6.5513 O   0  0  0  0  0  0  0  0  0  0  0  0
  -17.6947  -41.4587   -8.0263 N   0  0  0  0  0  0  0  0  0  0  0  0
  -15.3923  -43.2341  -10.0413 C   0  0  0  0  0  0  0  0  0  0  0  0
  1  2  1  0
  2  3  1  0
  2  4  1  0
  4  5  2  0
  5  6  1  0
  6  7  2  0
  7  8  1  0
  8  9  1  0
  9 10  1  0
 10 11  1  0
 11 12  1  0
 12 13  1  6
 12 14  1  0
 14 15  1  1
 15 16  1  0
 16 17  1  1
 16 18  1  0
 18 19  1  0
 19 20  1  0
 20 21  1  0
 21 22  1  0
 22 23  1  0
 23 24  1  0
 24 25  1  0
 25 26  1  0
 25 27  1  0
 27 28  2  0
 28 29  1  0
 29 30  2  0
 30 31  1  0
 31 32  2  0
 29 33  1  0
 33 34  2  0
 33 35  1  0
  8 36  2  0
 32 27  1  0
 35 14  1  0
 36  4  1  0
M  END
$$$$
