
     RDKit          3D

 35 37  0  0  0  0  0  0  0  0999 V2000
  -11.8375  -42.4361  -14.5630 C   0  0  0  0  0  0  0  0  0  0  0  0
  -13.1294  -42.4451  -13.8039 C   0  0  0  0  0  0  0  0  0  0  0  0
  -13.1699  -41.3767  -12.7128 C   0  0  0  0  0  0  0  0  0  0  0  0
  -12.9950  -41.9824  -11.3521 C   0  0  0  0  0  0  0  0  0  0  0  0
  -12.9949  -40.9683  -10.3024 N   0  0  0  0  0  0  0  0  0  0  0  0
  -13.4747  -39.6685  -10.5014 C   0  0  0  0  0  0  0  0  0  0  0  0
  -12.7141  -38.8577  -11.1169 O   0  0  0  0  0  0  0  0  0  0  0  0
  -14.7839  -39.2111  -10.0482 C   0  0  2  0  0  0  0  0  0  0  0  0
  -14.9126  -37.7128  -10.4112 C   0  0  0  0  0  0  0  0  0  0  0  0
  -14.9723  -39.3072   -8.5242 C   0  0  0  0  0  0  0  0  0  0  0  0
  -16.1895  -38.5611   -8.1370 C   0  0  2  0  0  0  0  0  0  0  0  0
  -15.9316  -38.0875   -6.8125 O   0  0  0  0  0  0  0  0  0  0  0  0
  -17.4018  -39.5005   -7.8984 C   0  0  2  0  0  0  0  0  0  0  0  0
  -18.5368  -38.5795   -7.5719 C   0  0  0  0  0  0  0  0  0  0  0  0
  -19.9198  -39.1187   -7.5076 C   0  0  0  0  0  0  0  0  0  0  0  0
  -20.5041  -38.8396   -6.2633 C   0  0  0  0  0  0  0  0  0  0  0  0
  -21.7811  -39.2217   -5.9010 C   0  0  0  0  0  0  0  0  0  0  0  0
  -22.4472  -39.9075   -6.8648 C   0  0  0  0  0  0  0  0  0  0  0  0
  -21.9133  -40.2236   -8.1434 C   0  0  0  0  0  0  0  0  0  0  0  0
  -22.9359  -41.0157   -8.8929 C   0  0  0  0  0  0  0  0  0  0  0  0
  -23.7780  -41.9189   -8.0281 C   0  0  0  0  0  0  0  0  0  0  0  0
  -23.1601  -42.7460   -7.0066 C   0  0  0  0  0  0  0  0  0  0  0  0
  -22.6994  -44.1420   -7.4426 C   0  0  0  0  0  0  0  0  0  0  0  0
  -21.5379  -44.0768   -8.2883 N   0  0  0  0  0  0  0  0  0  0  0  0
  -20.1661  -43.7632   -8.0164 C   0  0  0  0  0  0  0  0  0  0  0  0
  -19.5405  -42.7538   -7.3278 C   0  0  0  0  0  0  0  0  0  0  0  0
  -18.1369  -42.7318   -7.3386 C   0  0  0  0  0  0  0  0  0  0  0  0
  -17.4688  -43.7546   -8.0513 C   0  0  0  0  0  0  0  0  0  0  0  0
  -18.0953  -44.7601   -8.7328 C   0  0  0  0  0  0  0  0  0  0  0  0
  -17.3151  -45.8038   -9.4605 C   0  0  0  0  0  0  0  0  0  0  0  0
  -19.4035  -44.7244   -8.6895 N   0  0  0  0  0  0  0  0  0  0  0  0
  -17.1543  -41.7957   -6.7951 C   0  0  0  0  0  0  0  0  0  0  0  0
  -16.1170  -42.3388   -6.2170 O   0  0  0  0  0  0  0  0  0  0  0  0
  -17.0982  -40.3817   -6.7716 N   0  0  0  0  0  0  0  0  0  0  0  0
  -20.6481  -39.8204   -8.4534 C   0  0  0  0  0  0  0  0  0  0  0  0
  1  2  1  0
  2  3  1  0
  3  4  1  0
  4  5  1  0
  5  6  1  0
  6  7  2  0
  6  8  1  0
  8  9  1  1
  8 10  1  0
 10 11  1  0
 11 12  1  1
 11 13  1  0
 13 14  1  1
 14 15  1  0
 15 16  2  0
 16 17  1  0
 17 18  2  0
 18 19  1  0
 19 20  1  0
 20 21  1  0
 21 22  1  0
 22 23  1  0
 23 24  1  0
 24 25  1  0
 25 26  2  0
 26 27  1  0
 27 28  2  0
 28 29  1  0
 29 30  1  0
 29 31  2  0
 27 32  1  0
 32 33  2  0
 32 34  1  0
 19 35  2  0
 31 25  1  0
 34 13  1  0
 35 15  1  0
M  END
$$$$
