
     RDKit          3D

 35 37  0  0  0  0  0  0  0  0999 V2000
  -23.3812  -42.6953   -2.0650 C   0  0  0  0  0  0  0  0  0  0  0  0
  -23.7502  -43.7863   -3.0236 C   0  0  0  0  0  0  0  0  0  0  0  0
  -22.9793  -43.6896   -4.3389 C   0  0  0  0  0  0  0  0  0  0  0  0
  -22.1800  -42.4226   -4.4087 C   0  0  0  0  0  0  0  0  0  0  0  0
  -21.5191  -42.2682   -5.7009 N   0  0  0  0  0  0  0  0  0  0  0  0
  -20.1499  -42.0068   -5.8277 C   0  0  0  0  0  0  0  0  0  0  0  0
  -19.3508  -42.8074   -5.2487 O   0  0  0  0  0  0  0  0  0  0  0  0
  -19.6073  -40.8827   -6.5831 C   0  0  2  0  0  0  0  0  0  0  0  0
  -18.4590  -41.4196   -7.4699 C   0  0  0  0  0  0  0  0  0  0  0  0
  -18.9944  -39.7866   -5.6942 C   0  0  0  0  0  0  0  0  0  0  0  0
  -17.5882  -39.5647   -6.0962 C   0  0  2  0  0  0  0  0  0  0  0  0
  -17.2443  -38.2842   -5.5605 O   0  0  0  0  0  0  0  0  0  0  0  0
  -17.4476  -39.3095   -7.6207 C   0  0  2  0  0  0  0  0  0  0  0  0
  -17.3535  -37.8203   -7.7489 C   0  0  0  0  0  0  0  0  0  0  0  0
  -16.9791  -37.2219   -9.0563 C   0  0  0  0  0  0  0  0  0  0  0  0
  -17.9534  -36.3062   -9.4804 C   0  0  0  0  0  0  0  0  0  0  0  0
  -17.8899  -35.5956  -10.6632 C   0  0  0  0  0  0  0  0  0  0  0  0
  -16.7844  -35.8573  -11.4065 C   0  0  0  0  0  0  0  0  0  0  0  0
  -15.7624  -36.7725  -11.0355 C   0  0  0  0  0  0  0  0  0  0  0  0
  -14.7461  -36.8059  -12.1312 C   0  0  0  0  0  0  0  0  0  0  0  0
  -15.3167  -36.6161  -13.5136 C   0  0  0  0  0  0  0  0  0  0  0  0
  -16.5111  -37.3344  -13.9222 C   0  0  0  0  0  0  0  0  0  0  0  0
  -16.2967  -38.7128  -14.5587 C   0  0  0  0  0  0  0  0  0  0  0  0
  -15.8764  -39.6860  -13.5866 N   0  0  0  0  0  0  0  0  0  0  0  0
  -16.5720  -40.3420  -12.5190 C   0  0  0  0  0  0  0  0  0  0  0  0
  -17.3937  -39.9048  -11.5100 C   0  0  0  0  0  0  0  0  0  0  0  0
  -17.8425  -40.8548  -10.5790 C   0  0  0  0  0  0  0  0  0  0  0  0
  -17.4223  -42.1942  -10.7517 C   0  0  0  0  0  0  0  0  0  0  0  0
  -16.6070  -42.6263  -11.7599 C   0  0  0  0  0  0  0  0  0  0  0  0
  -16.2101  -44.0607  -11.8722 C   0  0  0  0  0  0  0  0  0  0  0  0
  -16.2182  -41.6940  -12.5931 N   0  0  0  0  0  0  0  0  0  0  0  0
  -18.6465  -40.7500   -9.3625 C   0  0  0  0  0  0  0  0  0  0  0  0
  -19.5502  -41.6788   -9.2015 O   0  0  0  0  0  0  0  0  0  0  0  0
  -18.6402  -39.8215   -8.2943 N   0  0  0  0  0  0  0  0  0  0  0  0
  -15.8708  -37.4470   -9.8552 C   0  0  0  0  0  0  0  0  0  0  0  0
  1  2  1  0
  2  3  1  0
  3  4  1  0
  4  5  1  0
  5  6  1  0
  6  7  2  0
  6  8  1  0
  8  9  1  6
  8 10  1  0
 10 11  1  0
 11 12  1  1
 11 13  1  0
 13 14  1  1
 14 15  1  0
 15 16  2  0
 16 17  1  0
 17 18  2  0
 18 19  1  0
 19 20  1  0
 20 21  1  0
 21 22  1  0
 22 23  1  0
 23 24  1  0
 24 25  1  0
 25 26  2  0
 26 27  1  0
 27 28  2  0
 28 29  1  0
 29 30  1  0
 29 31  2  0
 27 32  1  0
 32 33  2  0
 32 34  1  0
 19 35  2  0
 31 25  1  0
 34 13  1  0
 35 15  1  0
M  END
$$$$
