
     RDKit          3D

 35 37  0  0  0  0  0  0  0  0999 V2000
  -13.7544  -35.3806  -14.2948 C   0  0  0  0  0  0  0  0  0  0  0  0
  -12.8302  -35.4126  -13.1157 C   0  0  0  0  0  0  0  0  0  0  0  0
  -13.4632  -36.0857  -11.8992 C   0  0  0  0  0  0  0  0  0  0  0  0
  -14.5234  -37.0639  -12.3095 C   0  0  0  0  0  0  0  0  0  0  0  0
  -15.1475  -37.7037  -11.1556 N   0  0  0  0  0  0  0  0  0  0  0  0
  -14.7550  -38.9596  -10.6783 C   0  0  0  0  0  0  0  0  0  0  0  0
  -15.1222  -39.9750  -11.3482 O   0  0  0  0  0  0  0  0  0  0  0  0
  -13.9551  -39.1535   -9.4736 C   0  0  2  0  0  0  0  0  0  0  0  0
  -12.7300  -40.0183   -9.8540 C   0  0  0  0  0  0  0  0  0  0  0  0
  -14.6973  -39.9157   -8.3621 C   0  0  0  0  0  0  0  0  0  0  0  0
  -15.7786  -39.0610   -7.8253 C   0  0  2  0  0  0  0  0  0  0  0  0
  -15.4188  -38.8148   -6.4633 O   0  0  0  0  0  0  0  0  0  0  0  0
  -17.1115  -39.8383   -7.6567 C   0  0  2  0  0  0  0  0  0  0  0  0
  -18.1142  -38.7936   -7.2744 C   0  0  0  0  0  0  0  0  0  0  0  0
  -19.5587  -39.1406   -7.2535 C   0  0  0  0  0  0  0  0  0  0  0  0
  -20.1170  -38.8669   -5.9962 C   0  0  0  0  0  0  0  0  0  0  0  0
  -21.4393  -39.0928   -5.6669 C   0  0  0  0  0  0  0  0  0  0  0  0
  -22.1793  -39.6151   -6.6781 C   0  0  0  0  0  0  0  0  0  0  0  0
  -21.6756  -39.9162   -7.9725 C   0  0  0  0  0  0  0  0  0  0  0  0
  -22.7862  -40.5087   -8.7789 C   0  0  0  0  0  0  0  0  0  0  0  0
  -23.7562  -41.3428   -7.9814 C   0  0  0  0  0  0  0  0  0  0  0  0
  -23.2719  -42.3129   -7.0150 C   0  0  0  0  0  0  0  0  0  0  0  0
  -23.0006  -43.7270   -7.5420 C   0  0  0  0  0  0  0  0  0  0  0  0
  -21.8292  -43.7663   -8.3756 N   0  0  0  0  0  0  0  0  0  0  0  0
  -20.4313  -43.6630   -8.0764 C   0  0  0  0  0  0  0  0  0  0  0  0
  -19.6833  -42.7972   -7.3180 C   0  0  0  0  0  0  0  0  0  0  0  0
  -18.2899  -42.9678   -7.3203 C   0  0  0  0  0  0  0  0  0  0  0  0
  -17.7580  -44.0232   -8.0972 C   0  0  0  0  0  0  0  0  0  0  0  0
  -18.5065  -44.8856   -8.8482 C   0  0  0  0  0  0  0  0  0  0  0  0
  -17.8663  -45.9762   -9.6409 C   0  0  0  0  0  0  0  0  0  0  0  0
  -19.7981  -44.6733   -8.8091 N   0  0  0  0  0  0  0  0  0  0  0  0
  -17.1962  -42.2138   -6.7099 C   0  0  0  0  0  0  0  0  0  0  0  0
  -16.2513  -42.9315   -6.1647 O   0  0  0  0  0  0  0  0  0  0  0  0
  -16.9474  -40.8256   -6.5906 N   0  0  0  0  0  0  0  0  0  0  0  0
  -20.3627  -39.6713   -8.2482 C   0  0  0  0  0  0  0  0  0  0  0  0
  1  2  1  0
  2  3  1  0
  3  4  1  0
  4  5  1  0
  5  6  1  0
  6  7  2  0
  6  8  1  0
  8  9  1  6
  8 10  1  0
 10 11  1  0
 11 12  1  1
 11 13  1  0
 13 14  1  1
 14 15  1  0
 15 16  2  0
 16 17  1  0
 17 18  2  0
 18 19  1  0
 19 20  1  0
 20 21  1  0
 21 22  1  0
 22 23  1  0
 23 24  1  0
 24 25  1  0
 25 26  2  0
 26 27  1  0
 27 28  2  0
 28 29  1  0
 29 30  1  0
 29 31  2  0
 27 32  1  0
 32 33  2  0
 32 34  1  0
 19 35  2  0
 31 25  1  0
 34 13  1  0
 35 15  1  0
M  END
$$$$
