
     RDKit          3D

 35 37  0  0  0  0  0  0  0  0999 V2000
  -13.5588  -34.7799  -14.0906 C   0  0  0  0  0  0  0  0  0  0  0  0
  -14.7734  -35.2433  -13.3453 C   0  0  0  0  0  0  0  0  0  0  0  0
  -14.4276  -35.8295  -11.9777 C   0  0  0  0  0  0  0  0  0  0  0  0
  -13.6459  -37.1021  -12.1136 C   0  0  0  0  0  0  0  0  0  0  0  0
  -13.4250  -37.7442  -10.8216 N   0  0  0  0  0  0  0  0  0  0  0  0
  -14.0559  -38.9364  -10.4478 C   0  0  0  0  0  0  0  0  0  0  0  0
  -14.7645  -39.5179  -11.3278 O   0  0  0  0  0  0  0  0  0  0  0  0
  -13.9365  -39.5338   -9.1221 C   0  0  2  0  0  0  0  0  0  0  0  0
  -12.8226  -40.6056   -9.1855 C   0  0  0  0  0  0  0  0  0  0  0  0
  -15.2123  -40.2593   -8.6603 C   0  0  0  0  0  0  0  0  0  0  0  0
  -16.3593  -39.3295   -8.7496 C   0  0  2  0  0  0  0  0  0  0  0  0
  -16.0824  -38.3019   -7.7944 O   0  0  0  0  0  0  0  0  0  0  0  0
  -17.6606  -39.9465   -8.1705 C   0  0  2  0  0  0  0  0  0  0  0  0
  -18.5072  -38.7679   -7.8004 C   0  0  0  0  0  0  0  0  0  0  0  0
  -19.9286  -38.9793   -7.4228 C   0  0  0  0  0  0  0  0  0  0  0  0
  -20.1908  -38.4406   -6.1545 C   0  0  0  0  0  0  0  0  0  0  0  0
  -21.4211  -38.4894   -5.5284 C   0  0  0  0  0  0  0  0  0  0  0  0
  -22.3845  -39.1160   -6.2510 C   0  0  0  0  0  0  0  0  0  0  0  0
  -22.1847  -39.6833   -7.5386 C   0  0  0  0  0  0  0  0  0  0  0  0
  -23.4692  -40.3104   -7.9763 C   0  0  0  0  0  0  0  0  0  0  0  0
  -24.2845  -40.9033   -6.8554 C   0  0  0  0  0  0  0  0  0  0  0  0
  -23.6512  -41.7259   -5.8396 C   0  0  0  0  0  0  0  0  0  0  0  0
  -23.5667  -43.2289   -6.1309 C   0  0  0  0  0  0  0  0  0  0  0  0
  -22.6043  -43.5161   -7.1604 N   0  0  0  0  0  0  0  0  0  0  0  0
  -21.1715  -43.4831   -7.1746 C   0  0  0  0  0  0  0  0  0  0  0  0
  -20.2380  -42.5651   -6.7620 C   0  0  0  0  0  0  0  0  0  0  0  0
  -18.8872  -42.8535   -7.0127 C   0  0  0  0  0  0  0  0  0  0  0  0
  -18.5850  -44.0715   -7.6649 C   0  0  0  0  0  0  0  0  0  0  0  0
  -19.5172  -44.9848   -8.0709 C   0  0  0  0  0  0  0  0  0  0  0  0
  -19.1143  -46.2494   -8.7535 C   0  0  0  0  0  0  0  0  0  0  0  0
  -20.7588  -44.6578   -7.8134 N   0  0  0  0  0  0  0  0  0  0  0  0
  -17.6535  -42.1012   -6.7907 C   0  0  0  0  0  0  0  0  0  0  0  0
  -16.6490  -42.7904   -6.3205 O   0  0  0  0  0  0  0  0  0  0  0  0
  -17.3191  -40.7405   -6.9911 N   0  0  0  0  0  0  0  0  0  0  0  0
  -20.9513  -39.6055   -8.1151 C   0  0  0  0  0  0  0  0  0  0  0  0
  1  2  1  0
  2  3  1  0
  3  4  1  0
  4  5  1  0
  5  6  1  0
  6  7  2  0
  6  8  1  0
  8  9  1  6
  8 10  1  0
 10 11  1  0
 11 12  1  1
 11 13  1  0
 13 14  1  1
 14 15  1  0
 15 16  2  0
 16 17  1  0
 17 18  2  0
 18 19  1  0
 19 20  1  0
 20 21  1  0
 21 22  1  0
 22 23  1  0
 23 24  1  0
 24 25  1  0
 25 26  2  0
 26 27  1  0
 27 28  2  0
 28 29  1  0
 29 30  1  0
 29 31  2  0
 27 32  1  0
 32 33  2  0
 32 34  1  0
 19 35  2  0
 31 25  1  0
 34 13  1  0
 35 15  1  0
M  END
$$$$
