
     RDKit          3D

 35 37  0  0  0  0  0  0  0  0999 V2000
  -13.6519  -34.9584  -12.8629 C   0  0  0  0  0  0  0  0  0  0  0  0
  -14.0556  -36.4001  -12.9264 C   0  0  0  0  0  0  0  0  0  0  0  0
  -12.9018  -37.3422  -12.5881 C   0  0  0  0  0  0  0  0  0  0  0  0
  -12.8298  -37.6059  -11.1135 C   0  0  0  0  0  0  0  0  0  0  0  0
  -14.1569  -37.7341  -10.5196 N   0  0  0  0  0  0  0  0  0  0  0  0
  -14.6605  -38.9487  -10.0396 C   0  0  0  0  0  0  0  0  0  0  0  0
  -15.7839  -39.3307  -10.4944 O   0  0  0  0  0  0  0  0  0  0  0  0
  -13.9672  -39.7831   -9.0640 C   0  0  2  0  0  0  0  0  0  0  0  0
  -14.0888  -41.2537   -9.5287 C   0  0  0  0  0  0  0  0  0  0  0  0
  -14.5839  -39.7195   -7.6558 C   0  0  0  0  0  0  0  0  0  0  0  0
  -15.7669  -38.8319   -7.6829 C   0  0  2  0  0  0  0  0  0  0  0  0
  -15.8026  -38.2177   -6.3920 O   0  0  0  0  0  0  0  0  0  0  0  0
  -17.0984  -39.6296   -7.6822 C   0  0  2  0  0  0  0  0  0  0  0  0
  -18.1167  -38.6674   -7.1525 C   0  0  0  0  0  0  0  0  0  0  0  0
  -19.5591  -39.0160   -7.2268 C   0  0  0  0  0  0  0  0  0  0  0  0
  -20.1490  -38.9617   -5.9554 C   0  0  0  0  0  0  0  0  0  0  0  0
  -21.4774  -39.2433   -5.7021 C   0  0  0  0  0  0  0  0  0  0  0  0
  -22.1895  -39.5874   -6.8055 C   0  0  0  0  0  0  0  0  0  0  0  0
  -21.6530  -39.6626   -8.1194 C   0  0  0  0  0  0  0  0  0  0  0  0
  -22.7401  -40.1115   -9.0420 C   0  0  0  0  0  0  0  0  0  0  0  0
  -23.7237  -41.0713   -8.4224 C   0  0  0  0  0  0  0  0  0  0  0  0
  -23.2566  -42.1908   -7.6236 C   0  0  0  0  0  0  0  0  0  0  0  0
  -22.9637  -43.4939   -8.3767 C   0  0  0  0  0  0  0  0  0  0  0  0
  -21.7724  -43.3880   -9.1756 N   0  0  0  0  0  0  0  0  0  0  0  0
  -20.3827  -43.3342   -8.8287 C   0  0  0  0  0  0  0  0  0  0  0  0
  -19.6587  -42.6085   -7.9157 C   0  0  0  0  0  0  0  0  0  0  0  0
  -18.2646  -42.7732   -7.9126 C   0  0  0  0  0  0  0  0  0  0  0  0
  -17.7075  -43.6797   -8.8444 C   0  0  0  0  0  0  0  0  0  0  0  0
  -18.4322  -44.4032   -9.7495 C   0  0  0  0  0  0  0  0  0  0  0  0
  -17.7663  -45.3415  -10.7001 C   0  0  0  0  0  0  0  0  0  0  0  0
  -19.7257  -44.2035   -9.7067 N   0  0  0  0  0  0  0  0  0  0  0  0
  -17.1907  -42.1318   -7.1559 C   0  0  0  0  0  0  0  0  0  0  0  0
  -16.2546  -42.9298   -6.7176 O   0  0  0  0  0  0  0  0  0  0  0  0
  -16.9537  -40.7836   -6.7959 N   0  0  0  0  0  0  0  0  0  0  0  0
  -20.3355  -39.3713   -8.3169 C   0  0  0  0  0  0  0  0  0  0  0  0
  1  2  1  0
  2  3  1  0
  3  4  1  0
  4  5  1  0
  5  6  1  0
  6  7  2  0
  6  8  1  0
  8  9  1  6
  8 10  1  0
 10 11  1  0
 11 12  1  1
 11 13  1  0
 13 14  1  1
 14 15  1  0
 15 16  2  0
 16 17  1  0
 17 18  2  0
 18 19  1  0
 19 20  1  0
 20 21  1  0
 21 22  1  0
 22 23  1  0
 23 24  1  0
 24 25  1  0
 25 26  2  0
 26 27  1  0
 27 28  2  0
 28 29  1  0
 29 30  1  0
 29 31  2  0
 27 32  1  0
 32 33  2  0
 32 34  1  0
 19 35  2  0
 31 25  1  0
 34 13  1  0
 35 15  1  0
M  END
$$$$
