
     RDKit          3D

 35 37  0  0  0  0  0  0  0  0999 V2000
  -15.1462  -33.9483  -12.7829 C   0  0  0  0  0  0  0  0  0  0  0  0
  -13.8004  -33.8895  -12.1266 C   0  0  0  0  0  0  0  0  0  0  0  0
  -13.3471  -35.2527  -11.6071 C   0  0  0  0  0  0  0  0  0  0  0  0
  -14.4460  -36.2677  -11.7133 C   0  0  0  0  0  0  0  0  0  0  0  0
  -14.7080  -36.9200  -10.4341 N   0  0  0  0  0  0  0  0  0  0  0  0
  -14.8253  -38.3082  -10.2989 C   0  0  0  0  0  0  0  0  0  0  0  0
  -15.4737  -38.9258  -11.2005 O   0  0  0  0  0  0  0  0  0  0  0  0
  -14.2451  -39.0655   -9.1950 C   0  0  2  0  0  0  0  0  0  0  0  0
  -13.2235  -40.0625   -9.7915 C   0  0  0  0  0  0  0  0  0  0  0  0
  -15.2749  -39.9080   -8.4225 C   0  0  0  0  0  0  0  0  0  0  0  0
  -16.3989  -39.0407   -8.0070 C   0  0  2  0  0  0  0  0  0  0  0  0
  -16.0277  -38.5392   -6.7203 O   0  0  0  0  0  0  0  0  0  0  0  0
  -17.6737  -39.8571   -7.6641 C   0  0  2  0  0  0  0  0  0  0  0  0
  -18.7172  -38.8244   -7.3679 C   0  0  0  0  0  0  0  0  0  0  0  0
  -20.1360  -39.2406   -7.2217 C   0  0  0  0  0  0  0  0  0  0  0  0
  -20.6487  -38.8298   -5.9824 C   0  0  0  0  0  0  0  0  0  0  0  0
  -21.9381  -39.0783   -5.5536 C   0  0  0  0  0  0  0  0  0  0  0  0
  -22.6932  -39.7700   -6.4448 C   0  0  0  0  0  0  0  0  0  0  0  0
  -22.2350  -40.2157   -7.7141 C   0  0  0  0  0  0  0  0  0  0  0  0
  -23.3458  -40.9687   -8.3729 C   0  0  0  0  0  0  0  0  0  0  0  0
  -24.2255  -41.7375   -7.4201 C   0  0  0  0  0  0  0  0  0  0  0  0
  -23.6389  -42.5421   -6.3627 C   0  0  0  0  0  0  0  0  0  0  0  0
  -23.3097  -43.9981   -6.7131 C   0  0  0  0  0  0  0  0  0  0  0  0
  -22.1792  -44.0878   -7.5978 N   0  0  0  0  0  0  0  0  0  0  0  0
  -20.7772  -43.8721   -7.3925 C   0  0  0  0  0  0  0  0  0  0  0  0
  -20.0465  -42.8741   -6.7972 C   0  0  0  0  0  0  0  0  0  0  0  0
  -18.6471  -42.9702   -6.8540 C   0  0  0  0  0  0  0  0  0  0  0  0
  -18.0913  -44.0913   -7.5134 C   0  0  0  0  0  0  0  0  0  0  0  0
  -18.8224  -45.0849   -8.1018 C   0  0  0  0  0  0  0  0  0  0  0  0
  -18.1573  -46.2371   -8.7782 C   0  0  0  0  0  0  0  0  0  0  0  0
  -20.1209  -44.9371   -8.0197 N   0  0  0  0  0  0  0  0  0  0  0  0
  -17.5721  -42.0847   -6.4096 C   0  0  0  0  0  0  0  0  0  0  0  0
  -16.5613  -42.6720   -5.8277 O   0  0  0  0  0  0  0  0  0  0  0  0
  -17.4006  -40.6820   -6.4881 N   0  0  0  0  0  0  0  0  0  0  0  0
  -20.9537  -39.9417   -8.0919 C   0  0  0  0  0  0  0  0  0  0  0  0
  1  2  1  0
  2  3  1  0
  3  4  1  0
  4  5  1  0
  5  6  1  0
  6  7  2  0
  6  8  1  0
  8  9  1  6
  8 10  1  0
 10 11  1  0
 11 12  1  1
 11 13  1  0
 13 14  1  1
 14 15  1  0
 15 16  2  0
 16 17  1  0
 17 18  2  0
 18 19  1  0
 19 20  1  0
 20 21  1  0
 21 22  1  0
 22 23  1  0
 23 24  1  0
 24 25  1  0
 25 26  2  0
 26 27  1  0
 27 28  2  0
 28 29  1  0
 29 30  1  0
 29 31  2  0
 27 32  1  0
 32 33  2  0
 32 34  1  0
 19 35  2  0
 31 25  1  0
 34 13  1  0
 35 15  1  0
M  END
$$$$
