
     RDKit          3D

 35 37  0  0  0  0  0  0  0  0999 V2000
  -14.0525  -33.4218  -10.8569 C   0  0  0  0  0  0  0  0  0  0  0  0
  -13.6253  -34.1289  -12.1070 C   0  0  0  0  0  0  0  0  0  0  0  0
  -13.0699  -35.5237  -11.8249 C   0  0  0  0  0  0  0  0  0  0  0  0
  -14.1687  -36.5416  -11.7509 C   0  0  0  0  0  0  0  0  0  0  0  0
  -13.6445  -37.8985  -11.6308 N   0  0  0  0  0  0  0  0  0  0  0  0
  -14.2899  -38.9003  -10.8965 C   0  0  0  0  0  0  0  0  0  0  0  0
  -15.0026  -39.7275  -11.5465 O   0  0  0  0  0  0  0  0  0  0  0  0
  -14.1808  -39.0396   -9.4483 C   0  0  2  0  0  0  0  0  0  0  0  0
  -12.8690  -39.8012   -9.1443 C   0  0  0  0  0  0  0  0  0  0  0  0
  -15.3186  -39.8672   -8.8254 C   0  0  0  0  0  0  0  0  0  0  0  0
  -16.5203  -39.0156   -8.6887 C   0  0  2  0  0  0  0  0  0  0  0  0
  -16.1994  -38.0797   -7.6562 O   0  0  0  0  0  0  0  0  0  0  0  0
  -17.7117  -39.7806   -8.0526 C   0  0  2  0  0  0  0  0  0  0  0  0
  -18.6609  -38.7081   -7.6149 C   0  0  0  0  0  0  0  0  0  0  0  0
  -20.0272  -39.0807   -7.1656 C   0  0  0  0  0  0  0  0  0  0  0  0
  -20.2762  -38.5911   -5.8749 C   0  0  0  0  0  0  0  0  0  0  0  0
  -21.4570  -38.7842   -5.1846 C   0  0  0  0  0  0  0  0  0  0  0  0
  -22.3843  -39.5042   -5.8663 C   0  0  0  0  0  0  0  0  0  0  0  0
  -22.1952  -40.0289   -7.1735 C   0  0  0  0  0  0  0  0  0  0  0  0
  -23.4253  -40.7887   -7.5535 C   0  0  0  0  0  0  0  0  0  0  0  0
  -24.1068  -41.4831   -6.4020 C   0  0  0  0  0  0  0  0  0  0  0  0
  -23.3315  -42.2437   -5.4377 C   0  0  0  0  0  0  0  0  0  0  0  0
  -23.0985  -43.7241   -5.7619 C   0  0  0  0  0  0  0  0  0  0  0  0
  -22.1690  -43.8892   -6.8469 N   0  0  0  0  0  0  0  0  0  0  0  0
  -20.7516  -43.6974   -6.9374 C   0  0  0  0  0  0  0  0  0  0  0  0
  -19.9033  -42.6871   -6.5581 C   0  0  0  0  0  0  0  0  0  0  0  0
  -18.5449  -42.8206   -6.8865 C   0  0  0  0  0  0  0  0  0  0  0  0
  -18.1473  -43.9889   -7.5773 C   0  0  0  0  0  0  0  0  0  0  0  0
  -18.9945  -44.9945   -7.9501 C   0  0  0  0  0  0  0  0  0  0  0  0
  -18.4936  -46.1976   -8.6775 C   0  0  0  0  0  0  0  0  0  0  0  0
  -20.2483  -44.8106   -7.6200 N   0  0  0  0  0  0  0  0  0  0  0  0
  -17.3911  -41.9391   -6.7167 C   0  0  0  0  0  0  0  0  0  0  0  0
  -16.2923  -42.5189   -6.3145 O   0  0  0  0  0  0  0  0  0  0  0  0
  -17.2200  -40.5473   -6.9086 N   0  0  0  0  0  0  0  0  0  0  0  0
  -21.0118  -39.8073   -7.8138 C   0  0  0  0  0  0  0  0  0  0  0  0
  1  2  1  0
  2  3  1  0
  3  4  1  0
  4  5  1  0
  5  6  1  0
  6  7  2  0
  6  8  1  0
  8  9  1  6
  8 10  1  0
 10 11  1  0
 11 12  1  1
 11 13  1  0
 13 14  1  1
 14 15  1  0
 15 16  2  0
 16 17  1  0
 17 18  2  0
 18 19  1  0
 19 20  1  0
 20 21  1  0
 21 22  1  0
 22 23  1  0
 23 24  1  0
 24 25  1  0
 25 26  2  0
 26 27  1  0
 27 28  2  0
 28 29  1  0
 29 30  1  0
 29 31  2  0
 27 32  1  0
 32 33  2  0
 32 34  1  0
 19 35  2  0
 31 25  1  0
 34 13  1  0
 35 15  1  0
M  END
$$$$
