
     RDKit          3D

 35 37  0  0  0  0  0  0  0  0999 V2000
  -12.2149  -34.6795  -12.6546 C   0  0  0  0  0  0  0  0  0  0  0  0
  -13.2721  -35.6514  -12.2267 C   0  0  0  0  0  0  0  0  0  0  0  0
  -13.5384  -36.7228  -13.2825 C   0  0  0  0  0  0  0  0  0  0  0  0
  -13.3852  -38.1003  -12.7098 C   0  0  0  0  0  0  0  0  0  0  0  0
  -13.9907  -38.2084  -11.3862 N   0  0  0  0  0  0  0  0  0  0  0  0
  -14.2684  -39.4368  -10.7755 C   0  0  0  0  0  0  0  0  0  0  0  0
  -14.9590  -40.2714  -11.4398 O   0  0  0  0  0  0  0  0  0  0  0  0
  -13.8069  -39.7990   -9.4397 C   0  0  2  0  0  0  0  0  0  0  0  0
  -12.7888  -40.9542   -9.5885 C   0  0  0  0  0  0  0  0  0  0  0  0
  -14.9283  -40.3226   -8.5255 C   0  0  0  0  0  0  0  0  0  0  0  0
  -16.1050  -39.4338   -8.6418 C   0  0  2  0  0  0  0  0  0  0  0  0
  -15.8355  -38.3402   -7.7606 O   0  0  0  0  0  0  0  0  0  0  0  0
  -17.3719  -40.0500   -7.9905 C   0  0  2  0  0  0  0  0  0  0  0  0
  -18.2873  -38.8861   -7.7660 C   0  0  0  0  0  0  0  0  0  0  0  0
  -19.6964  -39.1320   -7.3640 C   0  0  0  0  0  0  0  0  0  0  0  0
  -19.9969  -38.4589   -6.1707 C   0  0  0  0  0  0  0  0  0  0  0  0
  -21.2261  -38.5023   -5.5420 C   0  0  0  0  0  0  0  0  0  0  0  0
  -22.1474  -39.2671   -6.1817 C   0  0  0  0  0  0  0  0  0  0  0  0
  -21.9075  -39.9746   -7.3907 C   0  0  0  0  0  0  0  0  0  0  0  0
  -23.1510  -40.7238   -7.7473 C   0  0  0  0  0  0  0  0  0  0  0  0
  -23.9374  -41.2220   -6.5615 C   0  0  0  0  0  0  0  0  0  0  0  0
  -23.2638  -41.8765   -5.4536 C   0  0  0  0  0  0  0  0  0  0  0  0
  -23.0910  -43.3964   -5.5594 C   0  0  0  0  0  0  0  0  0  0  0  0
  -22.1074  -43.7506   -6.5472 N   0  0  0  0  0  0  0  0  0  0  0  0
  -20.6788  -43.6365   -6.5667 C   0  0  0  0  0  0  0  0  0  0  0  0
  -19.8025  -42.6224   -6.2703 C   0  0  0  0  0  0  0  0  0  0  0  0
  -18.4357  -42.8604   -6.4853 C   0  0  0  0  0  0  0  0  0  0  0  0
  -18.0598  -44.1292   -6.9843 C   0  0  0  0  0  0  0  0  0  0  0  0
  -18.9353  -45.1377   -7.2749 C   0  0  0  0  0  0  0  0  0  0  0  0
  -18.4560  -46.4506   -7.7985 C   0  0  0  0  0  0  0  0  0  0  0  0
  -20.1952  -44.8544   -7.0579 N   0  0  0  0  0  0  0  0  0  0  0  0
  -17.2489  -42.0163   -6.3580 C   0  0  0  0  0  0  0  0  0  0  0  0
  -16.2091  -42.5837   -5.8083 O   0  0  0  0  0  0  0  0  0  0  0  0
  -16.9923  -40.6732   -6.7233 N   0  0  0  0  0  0  0  0  0  0  0  0
  -20.6771  -39.8963   -7.9736 C   0  0  0  0  0  0  0  0  0  0  0  0
  1  2  1  0
  2  3  1  0
  3  4  1  0
  4  5  1  0
  5  6  1  0
  6  7  2  0
  6  8  1  0
  8  9  1  6
  8 10  1  0
 10 11  1  0
 11 12  1  1
 11 13  1  0
 13 14  1  1
 14 15  1  0
 15 16  2  0
 16 17  1  0
 17 18  2  0
 18 19  1  0
 19 20  1  0
 20 21  1  0
 21 22  1  0
 22 23  1  0
 23 24  1  0
 24 25  1  0
 25 26  2  0
 26 27  1  0
 27 28  2  0
 28 29  1  0
 29 30  1  0
 29 31  2  0
 27 32  1  0
 32 33  2  0
 32 34  1  0
 19 35  2  0
 31 25  1  0
 34 13  1  0
 35 15  1  0
M  END
$$$$
