
     RDKit          3D

 35 37  0  0  0  0  0  0  0  0999 V2000
  -15.9745  -36.2724  -13.6809 C   0  0  0  0  0  0  0  0  0  0  0  0
  -14.5301  -36.0073  -13.3827 C   0  0  0  0  0  0  0  0  0  0  0  0
  -14.1807  -36.2721  -11.9194 C   0  0  0  0  0  0  0  0  0  0  0  0
  -12.9617  -37.1374  -11.7996 C   0  0  0  0  0  0  0  0  0  0  0  0
  -13.2944  -38.4843  -11.3462 N   0  0  0  0  0  0  0  0  0  0  0  0
  -14.1942  -38.7346  -10.3037 C   0  0  0  0  0  0  0  0  0  0  0  0
  -15.4023  -38.3843  -10.4840 O   0  0  0  0  0  0  0  0  0  0  0  0
  -13.8184  -39.3709   -9.0457 C   0  0  2  0  0  0  0  0  0  0  0  0
  -12.7902  -40.4814   -9.3667 C   0  0  0  0  0  0  0  0  0  0  0  0
  -14.9948  -40.0602   -8.3329 C   0  0  0  0  0  0  0  0  0  0  0  0
  -16.1501  -39.1371   -8.2979 C   0  0  2  0  0  0  0  0  0  0  0  0
  -15.9067  -38.2764   -7.1821 O   0  0  0  0  0  0  0  0  0  0  0  0
  -17.4570  -39.8499   -7.8586 C   0  0  2  0  0  0  0  0  0  0  0  0
  -18.3980  -38.7373   -7.5124 C   0  0  0  0  0  0  0  0  0  0  0  0
  -19.8312  -39.0425   -7.2667 C   0  0  0  0  0  0  0  0  0  0  0  0
  -20.2281  -38.5790   -6.0037 C   0  0  0  0  0  0  0  0  0  0  0  0
  -21.5011  -38.7235   -5.4874 C   0  0  0  0  0  0  0  0  0  0  0  0
  -22.3636  -39.3664   -6.3154 C   0  0  0  0  0  0  0  0  0  0  0  0
  -22.0256  -39.8610   -7.6042 C   0  0  0  0  0  0  0  0  0  0  0  0
  -23.2311  -40.5351   -8.1760 C   0  0  0  0  0  0  0  0  0  0  0  0
  -24.1008  -41.2232   -7.1548 C   0  0  0  0  0  0  0  0  0  0  0  0
  -23.5073  -42.0573   -6.1244 C   0  0  0  0  0  0  0  0  0  0  0  0
  -23.3125  -43.5383   -6.4707 C   0  0  0  0  0  0  0  0  0  0  0  0
  -22.2532  -43.7244   -7.4257 N   0  0  0  0  0  0  0  0  0  0  0  0
  -20.8284  -43.6135   -7.3162 C   0  0  0  0  0  0  0  0  0  0  0  0
  -19.9869  -42.6669   -6.7870 C   0  0  0  0  0  0  0  0  0  0  0  0
  -18.6055  -42.8700   -6.9336 C   0  0  0  0  0  0  0  0  0  0  0  0
  -18.1806  -44.0379   -7.6086 C   0  0  0  0  0  0  0  0  0  0  0  0
  -19.0218  -44.9800   -8.1310 C   0  0  0  0  0  0  0  0  0  0  0  0
  -18.4916  -46.1876   -8.8296 C   0  0  0  0  0  0  0  0  0  0  0  0
  -20.2972  -44.7329   -7.9666 N   0  0  0  0  0  0  0  0  0  0  0  0
  -17.4400  -42.0635   -6.5756 C   0  0  0  0  0  0  0  0  0  0  0  0
  -16.4397  -42.7190   -6.0510 O   0  0  0  0  0  0  0  0  0  0  0  0
  -17.1691  -40.6789   -6.6889 N   0  0  0  0  0  0  0  0  0  0  0  0
  -20.7553  -39.6898   -8.0695 C   0  0  0  0  0  0  0  0  0  0  0  0
  1  2  1  0
  2  3  1  0
  3  4  1  0
  4  5  1  0
  5  6  1  0
  6  7  2  0
  6  8  1  0
  8  9  1  6
  8 10  1  0
 10 11  1  0
 11 12  1  1
 11 13  1  0
 13 14  1  1
 14 15  1  0
 15 16  2  0
 16 17  1  0
 17 18  2  0
 18 19  1  0
 19 20  1  0
 20 21  1  0
 21 22  1  0
 22 23  1  0
 23 24  1  0
 24 25  1  0
 25 26  2  0
 26 27  1  0
 27 28  2  0
 28 29  1  0
 29 30  1  0
 29 31  2  0
 27 32  1  0
 32 33  2  0
 32 34  1  0
 19 35  2  0
 31 25  1  0
 34 13  1  0
 35 15  1  0
M  END
$$$$
