
     RDKit          3D

 35 37  0  0  0  0  0  0  0  0999 V2000
  -13.5064  -35.3498  -15.1786 C   0  0  0  0  0  0  0  0  0  0  0  0
  -13.4679  -34.8247  -13.7757 C   0  0  0  0  0  0  0  0  0  0  0  0
  -13.1959  -35.9244  -12.7508 C   0  0  0  0  0  0  0  0  0  0  0  0
  -14.3816  -36.8299  -12.5974 C   0  0  0  0  0  0  0  0  0  0  0  0
  -14.6680  -37.1165  -11.1952 N   0  0  0  0  0  0  0  0  0  0  0  0
  -14.6026  -38.4058  -10.6544 C   0  0  0  0  0  0  0  0  0  0  0  0
  -14.8799  -39.3741  -11.4290 O   0  0  0  0  0  0  0  0  0  0  0  0
  -14.2333  -38.6850   -9.2708 C   0  0  2  0  0  0  0  0  0  0  0  0
  -12.9037  -39.4757   -9.2870 C   0  0  0  0  0  0  0  0  0  0  0  0
  -15.2544  -39.5663   -8.5305 C   0  0  0  0  0  0  0  0  0  0  0  0
  -16.5352  -38.8351   -8.4165 C   0  0  2  0  0  0  0  0  0  0  0  0
  -16.3565  -37.9380   -7.3173 O   0  0  0  0  0  0  0  0  0  0  0  0
  -17.6824  -39.7401   -7.8930 C   0  0  2  0  0  0  0  0  0  0  0  0
  -18.7350  -38.7842   -7.4226 C   0  0  0  0  0  0  0  0  0  0  0  0
  -20.0820  -39.2991   -7.0648 C   0  0  0  0  0  0  0  0  0  0  0  0
  -20.4223  -38.9310   -5.7548 C   0  0  0  0  0  0  0  0  0  0  0  0
  -21.6093  -39.2709   -5.1353 C   0  0  0  0  0  0  0  0  0  0  0  0
  -22.4450  -40.0094   -5.9094 C   0  0  0  0  0  0  0  0  0  0  0  0
  -22.1607  -40.4160   -7.2411 C   0  0  0  0  0  0  0  0  0  0  0  0
  -23.3065  -41.2414   -7.7314 C   0  0  0  0  0  0  0  0  0  0  0  0
  -23.9726  -42.0743   -6.6659 C   0  0  0  0  0  0  0  0  0  0  0  0
  -23.1751  -42.8411   -5.7249 C   0  0  0  0  0  0  0  0  0  0  0  0
  -22.8059  -44.2688   -6.1447 C   0  0  0  0  0  0  0  0  0  0  0  0
  -21.8234  -44.2752   -7.1951 N   0  0  0  0  0  0  0  0  0  0  0  0
  -20.4246  -43.9631   -7.2063 C   0  0  0  0  0  0  0  0  0  0  0  0
  -19.6799  -42.9194   -6.7160 C   0  0  0  0  0  0  0  0  0  0  0  0
  -18.3032  -42.9174   -6.9905 C   0  0  0  0  0  0  0  0  0  0  0  0
  -17.7817  -43.9937   -7.7454 C   0  0  0  0  0  0  0  0  0  0  0  0
  -18.5260  -45.0331   -8.2288 C   0  0  0  0  0  0  0  0  0  0  0  0
  -17.8972  -46.1329   -9.0179 C   0  0  0  0  0  0  0  0  0  0  0  0
  -19.8029  -44.9768   -7.9441 N   0  0  0  0  0  0  0  0  0  0  0  0
  -17.2351  -41.9611   -6.7043 C   0  0  0  0  0  0  0  0  0  0  0  0
  -16.1083  -42.4793   -6.2953 O   0  0  0  0  0  0  0  0  0  0  0  0
  -17.1739  -40.5495   -6.7865 N   0  0  0  0  0  0  0  0  0  0  0  0
  -20.9755  -40.0513   -7.8086 C   0  0  0  0  0  0  0  0  0  0  0  0
  1  2  1  0
  2  3  1  0
  3  4  1  0
  4  5  1  0
  5  6  1  0
  6  7  2  0
  6  8  1  0
  8  9  1  6
  8 10  1  0
 10 11  1  0
 11 12  1  1
 11 13  1  0
 13 14  1  1
 14 15  1  0
 15 16  2  0
 16 17  1  0
 17 18  2  0
 18 19  1  0
 19 20  1  0
 20 21  1  0
 21 22  1  0
 22 23  1  0
 23 24  1  0
 24 25  1  0
 25 26  2  0
 26 27  1  0
 27 28  2  0
 28 29  1  0
 29 30  1  0
 29 31  2  0
 27 32  1  0
 32 33  2  0
 32 34  1  0
 19 35  2  0
 31 25  1  0
 34 13  1  0
 35 15  1  0
M  END
$$$$
