
     RDKit          3D

 35 37  0  0  0  0  0  0  0  0999 V2000
  -15.4390  -35.2606  -13.2415 C   0  0  0  0  0  0  0  0  0  0  0  0
  -16.1874  -35.4591  -11.9586 C   0  0  0  0  0  0  0  0  0  0  0  0
  -15.9400  -36.8377  -11.3488 C   0  0  0  0  0  0  0  0  0  0  0  0
  -14.4787  -37.1753  -11.3432 C   0  0  0  0  0  0  0  0  0  0  0  0
  -14.2536  -38.6142  -11.4390 N   0  0  0  0  0  0  0  0  0  0  0  0
  -14.5926  -39.5062  -10.4150 C   0  0  0  0  0  0  0  0  0  0  0  0
  -15.5381  -40.3229  -10.6470 O   0  0  0  0  0  0  0  0  0  0  0  0
  -13.9210  -39.5449   -9.1203 C   0  0  2  0  0  0  0  0  0  0  0  0
  -12.7499  -40.5502   -9.2254 C   0  0  0  0  0  0  0  0  0  0  0  0
  -14.8222  -40.0447   -7.9778 C   0  0  0  0  0  0  0  0  0  0  0  0
  -16.0062  -39.1644   -7.8721 C   0  0  2  0  0  0  0  0  0  0  0  0
  -15.8318  -38.4493   -6.6461 O   0  0  0  0  0  0  0  0  0  0  0  0
  -17.3058  -39.9620   -7.5821 C   0  0  2  0  0  0  0  0  0  0  0  0
  -18.3105  -38.9218   -7.1930 C   0  0  0  0  0  0  0  0  0  0  0  0
  -19.7416  -39.3001   -7.0654 C   0  0  0  0  0  0  0  0  0  0  0  0
  -20.2299  -38.9730   -5.7917 C   0  0  0  0  0  0  0  0  0  0  0  0
  -21.5237  -39.2114   -5.3704 C   0  0  0  0  0  0  0  0  0  0  0  0
  -22.3094  -39.8033   -6.3060 C   0  0  0  0  0  0  0  0  0  0  0  0
  -21.8770  -40.1609   -7.6117 C   0  0  0  0  0  0  0  0  0  0  0  0
  -23.0184  -40.8204   -8.3166 C   0  0  0  0  0  0  0  0  0  0  0  0
  -23.9165  -41.6331   -7.4190 C   0  0  0  0  0  0  0  0  0  0  0  0
  -23.3497  -42.5394   -6.4358 C   0  0  0  0  0  0  0  0  0  0  0  0
  -23.0739  -43.9728   -6.9051 C   0  0  0  0  0  0  0  0  0  0  0  0
  -21.9543  -44.0294   -7.8061 N   0  0  0  0  0  0  0  0  0  0  0  0
  -20.5441  -43.8785   -7.5992 C   0  0  0  0  0  0  0  0  0  0  0  0
  -19.7745  -42.9569   -6.9339 C   0  0  0  0  0  0  0  0  0  0  0  0
  -18.3798  -43.0954   -7.0132 C   0  0  0  0  0  0  0  0  0  0  0  0
  -17.8684  -44.1781   -7.7661 C   0  0  0  0  0  0  0  0  0  0  0  0
  -18.6381  -45.0959   -8.4242 C   0  0  0  0  0  0  0  0  0  0  0  0
  -18.0187  -46.2119   -9.1977 C   0  0  0  0  0  0  0  0  0  0  0  0
  -19.9301  -44.9113   -8.3166 N   0  0  0  0  0  0  0  0  0  0  0  0
  -17.2713  -42.2854   -6.5110 C   0  0  0  0  0  0  0  0  0  0  0  0
  -16.2769  -42.9514   -5.9888 O   0  0  0  0  0  0  0  0  0  0  0  0
  -17.0520  -40.8875   -6.4787 N   0  0  0  0  0  0  0  0  0  0  0  0
  -20.5900  -39.9009   -7.9800 C   0  0  0  0  0  0  0  0  0  0  0  0
  1  2  1  0
  2  3  1  0
  3  4  1  0
  4  5  1  0
  5  6  1  0
  6  7  2  0
  6  8  1  0
  8  9  1  6
  8 10  1  0
 10 11  1  0
 11 12  1  1
 11 13  1  0
 13 14  1  1
 14 15  1  0
 15 16  2  0
 16 17  1  0
 17 18  2  0
 18 19  1  0
 19 20  1  0
 20 21  1  0
 21 22  1  0
 22 23  1  0
 23 24  1  0
 24 25  1  0
 25 26  2  0
 26 27  1  0
 27 28  2  0
 28 29  1  0
 29 30  1  0
 29 31  2  0
 27 32  1  0
 32 33  2  0
 32 34  1  0
 19 35  2  0
 31 25  1  0
 34 13  1  0
 35 15  1  0
M  END
$$$$
