
     RDKit          3D

 35 37  0  0  0  0  0  0  0  0999 V2000
  -12.5606  -34.0028  -12.7707 C   0  0  0  0  0  0  0  0  0  0  0  0
  -12.1554  -35.4450  -12.8070 C   0  0  0  0  0  0  0  0  0  0  0  0
  -12.2366  -36.1063  -11.4323 C   0  0  0  0  0  0  0  0  0  0  0  0
  -13.6487  -36.1409  -10.9284 C   0  0  0  0  0  0  0  0  0  0  0  0
  -14.2579  -37.4548  -11.1102 N   0  0  0  0  0  0  0  0  0  0  0  0
  -13.7609  -38.6135  -10.5024 C   0  0  0  0  0  0  0  0  0  0  0  0
  -12.7902  -39.1988  -11.0769 O   0  0  0  0  0  0  0  0  0  0  0  0
  -14.2916  -39.1676   -9.2615 C   0  0  2  0  0  0  0  0  0  0  0  0
  -13.2435  -40.1570   -8.6994 C   0  0  0  0  0  0  0  0  0  0  0  0
  -15.5888  -39.9719   -9.4555 C   0  0  0  0  0  0  0  0  0  0  0  0
  -16.7493  -39.0941   -9.1894 C   0  0  2  0  0  0  0  0  0  0  0  0
  -16.2957  -38.1644   -8.2022 O   0  0  0  0  0  0  0  0  0  0  0  0
  -17.8790  -39.8322   -8.4225 C   0  0  2  0  0  0  0  0  0  0  0  0
  -18.6894  -38.7392   -7.7967 C   0  0  0  0  0  0  0  0  0  0  0  0
  -19.9957  -39.0662   -7.1690 C   0  0  0  0  0  0  0  0  0  0  0  0
  -20.0254  -38.6396   -5.8331 C   0  0  0  0  0  0  0  0  0  0  0  0
  -21.1029  -38.8111   -4.9860 C   0  0  0  0  0  0  0  0  0  0  0  0
  -22.1603  -39.4420   -5.5576 C   0  0  0  0  0  0  0  0  0  0  0  0
  -22.1943  -39.8997   -6.9026 C   0  0  0  0  0  0  0  0  0  0  0  0
  -23.5094  -40.5721   -7.1334 C   0  0  0  0  0  0  0  0  0  0  0  0
  -24.0567  -41.2956   -5.9293 C   0  0  0  0  0  0  0  0  0  0  0  0
  -23.1961  -42.1492   -5.1292 C   0  0  0  0  0  0  0  0  0  0  0  0
  -23.1009  -43.6186   -5.5569 C   0  0  0  0  0  0  0  0  0  0  0  0
  -22.3501  -43.7686   -6.7745 N   0  0  0  0  0  0  0  0  0  0  0  0
  -20.9519  -43.6451   -7.0642 C   0  0  0  0  0  0  0  0  0  0  0  0
  -19.9991  -42.7032   -6.7653 C   0  0  0  0  0  0  0  0  0  0  0  0
  -18.7131  -42.8873   -7.2973 C   0  0  0  0  0  0  0  0  0  0  0  0
  -18.4899  -44.0329   -8.0962 C   0  0  0  0  0  0  0  0  0  0  0  0
  -19.4404  -44.9704   -8.3886 C   0  0  0  0  0  0  0  0  0  0  0  0
  -19.1225  -46.1539   -9.2406 C   0  0  0  0  0  0  0  0  0  0  0  0
  -20.6199  -44.7416   -7.8679 N   0  0  0  0  0  0  0  0  0  0  0  0
  -17.4966  -42.0776   -7.2570 C   0  0  0  0  0  0  0  0  0  0  0  0
  -16.3874  -42.7353   -7.0510 O   0  0  0  0  0  0  0  0  0  0  0  0
  -17.2729  -40.6877   -7.4032 N   0  0  0  0  0  0  0  0  0  0  0  0
  -21.1052  -39.7028   -7.6993 C   0  0  0  0  0  0  0  0  0  0  0  0
  1  2  1  0
  2  3  1  0
  3  4  1  0
  4  5  1  0
  5  6  1  0
  6  7  2  0
  6  8  1  0
  8  9  1  6
  8 10  1  0
 10 11  1  0
 11 12  1  1
 11 13  1  0
 13 14  1  1
 14 15  1  0
 15 16  2  0
 16 17  1  0
 17 18  2  0
 18 19  1  0
 19 20  1  0
 20 21  1  0
 21 22  1  0
 22 23  1  0
 23 24  1  0
 24 25  1  0
 25 26  2  0
 26 27  1  0
 27 28  2  0
 28 29  1  0
 29 30  1  0
 29 31  2  0
 27 32  1  0
 32 33  2  0
 32 34  1  0
 19 35  2  0
 31 25  1  0
 34 13  1  0
 35 15  1  0
M  END
$$$$
