
     RDKit          3D

 35 37  0  0  0  0  0  0  0  0999 V2000
  -13.6789  -35.2625  -13.8951 C   0  0  0  0  0  0  0  0  0  0  0  0
  -12.8593  -35.8218  -12.7721 C   0  0  0  0  0  0  0  0  0  0  0  0
  -13.0432  -37.3299  -12.6135 C   0  0  0  0  0  0  0  0  0  0  0  0
  -12.2714  -37.8509  -11.4378 C   0  0  0  0  0  0  0  0  0  0  0  0
  -12.4419  -39.2909  -11.2716 N   0  0  0  0  0  0  0  0  0  0  0  0
  -13.6748  -39.8802  -10.9687 C   0  0  0  0  0  0  0  0  0  0  0  0
  -14.0345  -40.8700  -11.6798 O   0  0  0  0  0  0  0  0  0  0  0  0
  -14.5475  -39.4232   -9.8925 C   0  0  2  0  0  0  0  0  0  0  0  0
  -14.1070  -40.1361   -8.5921 C   0  0  0  0  0  0  0  0  0  0  0  0
  -16.0270  -39.7864  -10.1079 C   0  0  0  0  0  0  0  0  0  0  0  0
  -16.8777  -38.7614   -9.4646 C   0  0  2  0  0  0  0  0  0  0  0  0
  -16.0652  -38.1956   -8.4328 O   0  0  0  0  0  0  0  0  0  0  0  0
  -18.0313  -39.3910   -8.6388 C   0  0  2  0  0  0  0  0  0  0  0  0
  -18.9093  -38.2348   -8.2710 C   0  0  0  0  0  0  0  0  0  0  0  0
  -20.2422  -38.4928   -7.6674 C   0  0  0  0  0  0  0  0  0  0  0  0
  -20.3664  -37.8314   -6.4367 C   0  0  0  0  0  0  0  0  0  0  0  0
  -21.4889  -37.8878   -5.6337 C   0  0  0  0  0  0  0  0  0  0  0  0
  -22.4908  -38.6531   -6.1372 C   0  0  0  0  0  0  0  0  0  0  0  0
  -22.4287  -39.3491   -7.3747 C   0  0  0  0  0  0  0  0  0  0  0  0
  -23.7075  -40.1031   -7.5503 C   0  0  0  0  0  0  0  0  0  0  0  0
  -24.3074  -40.6160   -6.2660 C   0  0  0  0  0  0  0  0  0  0  0  0
  -23.4742  -41.2753   -5.2757 C   0  0  0  0  0  0  0  0  0  0  0  0
  -23.3113  -42.7931   -5.4196 C   0  0  0  0  0  0  0  0  0  0  0  0
  -22.4828  -43.1330   -6.5451 N   0  0  0  0  0  0  0  0  0  0  0  0
  -21.0734  -43.0098   -6.7745 C   0  0  0  0  0  0  0  0  0  0  0  0
  -20.1679  -41.9927   -6.6016 C   0  0  0  0  0  0  0  0  0  0  0  0
  -18.8468  -42.2202   -7.0184 C   0  0  0  0  0  0  0  0  0  0  0  0
  -18.5424  -43.4825   -7.5790 C   0  0  0  0  0  0  0  0  0  0  0  0
  -19.4462  -44.4941   -7.7461 C   0  0  0  0  0  0  0  0  0  0  0  0
  -19.0430  -45.7996   -8.3466 C   0  0  0  0  0  0  0  0  0  0  0  0
  -20.6616  -44.2205   -7.3428 N   0  0  0  0  0  0  0  0  0  0  0  0
  -17.6584  -41.3698   -7.0603 C   0  0  0  0  0  0  0  0  0  0  0  0
  -16.5460  -41.9351   -6.6755 O   0  0  0  0  0  0  0  0  0  0  0  0
  -17.4654  -40.0221   -7.4473 N   0  0  0  0  0  0  0  0  0  0  0  0
  -21.2984  -39.2582   -8.1323 C   0  0  0  0  0  0  0  0  0  0  0  0
  1  2  1  0
  2  3  1  0
  3  4  1  0
  4  5  1  0
  5  6  1  0
  6  7  2  0
  6  8  1  0
  8  9  1  1
  8 10  1  0
 10 11  1  0
 11 12  1  1
 11 13  1  0
 13 14  1  1
 14 15  1  0
 15 16  2  0
 16 17  1  0
 17 18  2  0
 18 19  1  0
 19 20  1  0
 20 21  1  0
 21 22  1  0
 22 23  1  0
 23 24  1  0
 24 25  1  0
 25 26  2  0
 26 27  1  0
 27 28  2  0
 28 29  1  0
 29 30  1  0
 29 31  2  0
 27 32  1  0
 32 33  2  0
 32 34  1  0
 19 35  2  0
 31 25  1  0
 34 13  1  0
 35 15  1  0
M  END
$$$$
