
     RDKit          3D

 35 37  0  0  0  0  0  0  0  0999 V2000
  -14.7986  -34.2549  -13.3876 C   0  0  0  0  0  0  0  0  0  0  0  0
  -13.5632  -35.1026  -13.4122 C   0  0  0  0  0  0  0  0  0  0  0  0
  -13.3909  -35.9161  -12.1307 C   0  0  0  0  0  0  0  0  0  0  0  0
  -14.3236  -37.0901  -12.1026 C   0  0  0  0  0  0  0  0  0  0  0  0
  -14.3321  -37.7455  -10.7984 N   0  0  0  0  0  0  0  0  0  0  0  0
  -14.7448  -39.0705  -10.6165 C   0  0  0  0  0  0  0  0  0  0  0  0
  -15.7691  -39.4528  -11.2642 O   0  0  0  0  0  0  0  0  0  0  0  0
  -14.0644  -40.0167   -9.7387 C   0  0  2  0  0  0  0  0  0  0  0  0
  -13.9301  -41.3561  -10.5012 C   0  0  0  0  0  0  0  0  0  0  0  0
  -14.8452  -40.3263   -8.4496 C   0  0  0  0  0  0  0  0  0  0  0  0
  -15.9913  -39.3976   -8.3407 C   0  0  2  0  0  0  0  0  0  0  0  0
  -15.7143  -38.5959   -7.1894 O   0  0  0  0  0  0  0  0  0  0  0  0
  -17.2936  -40.1219   -7.9063 C   0  0  2  0  0  0  0  0  0  0  0  0
  -18.2609  -39.0177   -7.6096 C   0  0  0  0  0  0  0  0  0  0  0  0
  -19.6929  -39.3423   -7.3827 C   0  0  0  0  0  0  0  0  0  0  0  0
  -20.1226  -38.8512   -6.1411 C   0  0  0  0  0  0  0  0  0  0  0  0
  -21.4027  -39.0047   -5.6451 C   0  0  0  0  0  0  0  0  0  0  0  0
  -22.2372  -39.6863   -6.4709 C   0  0  0  0  0  0  0  0  0  0  0  0
  -21.8653  -40.2103   -7.7385 C   0  0  0  0  0  0  0  0  0  0  0  0
  -23.0472  -40.9222   -8.3139 C   0  0  0  0  0  0  0  0  0  0  0  0
  -23.9241  -41.5975   -7.2903 C   0  0  0  0  0  0  0  0  0  0  0  0
  -23.3360  -42.3915   -6.2257 C   0  0  0  0  0  0  0  0  0  0  0  0
  -23.1079  -43.8776   -6.5263 C   0  0  0  0  0  0  0  0  0  0  0  0
  -22.0271  -44.0707   -7.4554 N   0  0  0  0  0  0  0  0  0  0  0  0
  -20.6069  -43.9306   -7.3220 C   0  0  0  0  0  0  0  0  0  0  0  0
  -19.7930  -42.9542   -6.8039 C   0  0  0  0  0  0  0  0  0  0  0  0
  -18.4056  -43.1357   -6.9184 C   0  0  0  0  0  0  0  0  0  0  0  0
  -17.9467  -44.3139   -7.5520 C   0  0  0  0  0  0  0  0  0  0  0  0
  -18.7605  -45.2856   -8.0634 C   0  0  0  0  0  0  0  0  0  0  0  0
  -18.1952  -46.5023   -8.7175 C   0  0  0  0  0  0  0  0  0  0  0  0
  -20.0431  -45.0577   -7.9304 N   0  0  0  0  0  0  0  0  0  0  0  0
  -17.2619  -42.2982   -6.5612 C   0  0  0  0  0  0  0  0  0  0  0  0
  -16.2604  -42.9202   -5.9995 O   0  0  0  0  0  0  0  0  0  0  0  0
  -17.0138  -40.9125   -6.7085 N   0  0  0  0  0  0  0  0  0  0  0  0
  -20.5894  -40.0287   -8.1843 C   0  0  0  0  0  0  0  0  0  0  0  0
  1  2  1  0
  2  3  1  0
  3  4  1  0
  4  5  1  0
  5  6  1  0
  6  7  2  0
  6  8  1  0
  8  9  1  6
  8 10  1  0
 10 11  1  0
 11 12  1  1
 11 13  1  0
 13 14  1  1
 14 15  1  0
 15 16  2  0
 16 17  1  0
 17 18  2  0
 18 19  1  0
 19 20  1  0
 20 21  1  0
 21 22  1  0
 22 23  1  0
 23 24  1  0
 24 25  1  0
 25 26  2  0
 26 27  1  0
 27 28  2  0
 28 29  1  0
 29 30  1  0
 29 31  2  0
 27 32  1  0
 32 33  2  0
 32 34  1  0
 19 35  2  0
 31 25  1  0
 34 13  1  0
 35 15  1  0
M  END
$$$$
