
     RDKit          3D

 34 35  0  0  0  0  0  0  0  0999 V2000
  -14.9161  -35.2971  -12.3419 C   0  0  0  0  0  0  0  0  0  0  0  0
  -14.0787  -36.2436  -13.1423 C   0  0  0  0  0  0  0  0  0  0  0  0
  -12.6330  -35.8151  -13.2776 C   0  0  0  0  0  0  0  0  0  0  0  0
  -14.0735  -37.6092  -12.5478 C   0  0  0  0  0  0  0  0  0  0  0  0
  -14.4329  -38.7262  -13.2667 C   0  0  0  0  0  0  0  0  0  0  0  0
  -14.4185  -39.9811  -12.6854 C   0  0  0  0  0  0  0  0  0  0  0  0
  -14.0511  -40.1777  -11.3813 C   0  0  0  0  0  0  0  0  0  0  0  0
  -13.6813  -39.0557  -10.6300 C   0  0  0  0  0  0  0  0  0  0  0  0
  -13.2823  -39.2212   -9.1940 C   0  0  0  0  0  0  0  0  0  0  0  0
  -14.3813  -39.7460   -8.4670 N   0  0  0  0  0  0  0  0  0  0  0  0
  -15.5673  -38.9940   -8.5582 C   0  0  0  0  0  0  0  0  0  0  0  0
  -16.4927  -38.9796   -7.3975 C   0  0  1  0  0  0  0  0  0  0  0  0
  -16.9619  -37.7383   -7.0241 O   0  0  0  0  0  0  0  0  0  0  0  0
  -17.6626  -39.9670   -7.5324 C   0  0  2  0  0  0  0  0  0  0  0  0
  -18.5598  -39.7643   -6.3729 C   0  0  0  0  0  0  0  0  0  0  0  0
  -19.9459  -39.2238   -6.7595 C   0  0  2  0  0  0  0  0  0  0  0  0
  -20.2443  -37.9128   -6.0800 C   0  0  0  0  0  0  0  0  0  0  0  0
  -20.9351  -40.3029   -6.4899 C   0  0  0  0  0  0  0  0  0  0  0  0
  -22.3686  -39.9102   -6.5170 C   0  0  0  0  0  0  0  0  0  0  0  0
  -23.0206  -40.0942   -5.1561 C   0  0  0  0  0  0  0  0  0  0  0  0
  -22.9939  -41.5180   -4.6758 C   0  0  0  0  0  0  0  0  0  0  0  0
  -23.9665  -42.3972   -5.4313 C   0  0  0  0  0  0  0  0  0  0  0  0
  -23.5273  -43.8203   -5.5025 C   0  0  0  0  0  0  0  0  0  0  0  0
  -22.8728  -44.1902   -6.8140 C   0  0  0  0  0  0  0  0  0  0  0  0
  -21.3854  -44.4379   -6.6580 C   0  0  0  0  0  0  0  0  0  0  0  0
  -20.7003  -44.1273   -7.9386 C   0  0  0  0  0  0  0  0  0  0  0  0
  -21.3682  -44.2791   -8.9996 O   0  0  0  0  0  0  0  0  0  0  0  0
  -19.3578  -43.6764   -8.0403 N   0  0  0  0  0  0  0  0  0  0  0  0
  -18.7085  -43.6666   -9.3478 C   0  0  0  0  0  0  0  0  0  0  0  0
  -18.6341  -43.2270   -6.8591 C   0  0  0  0  0  0  0  0  0  0  0  0
  -17.3936  -42.5048   -7.2024 C   0  0  0  0  0  0  0  0  0  0  0  0
  -16.3306  -43.1338   -6.8237 O   0  0  0  0  0  0  0  0  0  0  0  0
  -17.2427  -41.2743   -7.8623 N   0  0  0  0  0  0  0  0  0  0  0  0
  -13.6988  -37.8190  -11.2130 C   0  0  0  0  0  0  0  0  0  0  0  0
  1  2  1  0
  2  3  1  0
  2  4  1  0
  4  5  2  0
  5  6  1  0
  6  7  2  0
  7  8  1  0
  8  9  1  0
  9 10  1  0
 10 11  1  0
 11 12  1  0
 12 13  1  6
 12 14  1  0
 14 15  1  1
 15 16  1  0
 16 17  1  1
 16 18  1  0
 18 19  1  0
 19 20  1  0
 20 21  1  0
 21 22  1  0
 22 23  1  0
 23 24  1  0
 24 25  1  0
 25 26  1  0
 26 27  2  0
 26 28  1  0
 28 29  1  0
 28 30  1  0
 30 31  1  0
 31 32  2  0
 31 33  1  0
  8 34  2  0
 33 14  1  0
 34  4  1  0
M  END
$$$$
