
     RDKit          3D

 34 35  0  0  0  0  0  0  0  0999 V2000
  -11.8940  -34.1596  -12.1963 C   0  0  0  0  0  0  0  0  0  0  0  0
  -13.1291  -34.5584  -11.4525 C   0  0  0  0  0  0  0  0  0  0  0  0
  -14.3637  -33.7818  -11.8582 C   0  0  0  0  0  0  0  0  0  0  0  0
  -13.4420  -36.0022  -11.6423 C   0  0  0  0  0  0  0  0  0  0  0  0
  -14.0825  -36.4750  -12.7647 C   0  0  0  0  0  0  0  0  0  0  0  0
  -14.3597  -37.8222  -12.9109 C   0  0  0  0  0  0  0  0  0  0  0  0
  -14.0168  -38.7457  -11.9603 C   0  0  0  0  0  0  0  0  0  0  0  0
  -13.3641  -38.2879  -10.8095 C   0  0  0  0  0  0  0  0  0  0  0  0
  -12.9793  -39.2617   -9.7360 C   0  0  0  0  0  0  0  0  0  0  0  0
  -13.8351  -39.0799   -8.6196 N   0  0  0  0  0  0  0  0  0  0  0  0
  -15.1872  -39.3951   -8.8499 C   0  0  0  0  0  0  0  0  0  0  0  0
  -16.1588  -39.2180   -7.7416 C   0  0  1  0  0  0  0  0  0  0  0  0
  -16.5647  -37.9218   -7.5057 O   0  0  0  0  0  0  0  0  0  0  0  0
  -17.3815  -40.1435   -7.8429 C   0  0  2  0  0  0  0  0  0  0  0  0
  -18.3112  -39.7837   -6.7490 C   0  0  0  0  0  0  0  0  0  0  0  0
  -19.6438  -39.2007   -7.2462 C   0  0  2  0  0  0  0  0  0  0  0  0
  -19.8876  -37.8180   -6.7002 C   0  0  0  0  0  0  0  0  0  0  0  0
  -20.7087  -40.1910   -6.9285 C   0  0  0  0  0  0  0  0  0  0  0  0
  -22.1125  -39.7193   -7.0571 C   0  0  0  0  0  0  0  0  0  0  0  0
  -22.8303  -39.7399   -5.7172 C   0  0  0  0  0  0  0  0  0  0  0  0
  -22.9123  -41.1131   -5.1119 C   0  0  0  0  0  0  0  0  0  0  0  0
  -23.9059  -41.9992   -5.8310 C   0  0  0  0  0  0  0  0  0  0  0  0
  -23.5538  -43.4461   -5.7552 C   0  0  0  0  0  0  0  0  0  0  0  0
  -22.8703  -43.9718   -6.9969 C   0  0  0  0  0  0  0  0  0  0  0  0
  -21.4088  -44.2907   -6.7504 C   0  0  0  0  0  0  0  0  0  0  0  0
  -20.6536  -44.1389   -8.0200 C   0  0  0  0  0  0  0  0  0  0  0  0
  -21.2854  -44.3476   -9.0935 O   0  0  0  0  0  0  0  0  0  0  0  0
  -19.2825  -43.7784   -8.0987 N   0  0  0  0  0  0  0  0  0  0  0  0
  -18.5805  -43.9259   -9.3701 C   0  0  0  0  0  0  0  0  0  0  0  0
  -18.5814  -43.2661   -6.9294 C   0  0  0  0  0  0  0  0  0  0  0  0
  -17.2851  -42.6519   -7.2771 C   0  0  0  0  0  0  0  0  0  0  0  0
  -16.2800  -43.3049   -6.7950 O   0  0  0  0  0  0  0  0  0  0  0  0
  -17.0307  -41.4977   -8.0358 N   0  0  0  0  0  0  0  0  0  0  0  0
  -13.0943  -36.9543  -10.6735 C   0  0  0  0  0  0  0  0  0  0  0  0
  1  2  1  0
  2  3  1  0
  2  4  1  0
  4  5  2  0
  5  6  1  0
  6  7  2  0
  7  8  1  0
  8  9  1  0
  9 10  1  0
 10 11  1  0
 11 12  1  0
 12 13  1  6
 12 14  1  0
 14 15  1  1
 15 16  1  0
 16 17  1  1
 16 18  1  0
 18 19  1  0
 19 20  1  0
 20 21  1  0
 21 22  1  0
 22 23  1  0
 23 24  1  0
 24 25  1  0
 25 26  1  0
 26 27  2  0
 26 28  1  0
 28 29  1  0
 28 30  1  0
 30 31  1  0
 31 32  2  0
 31 33  1  0
  8 34  2  0
 33 14  1  0
 34  4  1  0
M  END
$$$$
