
     RDKit          3D

 34 35  0  0  0  0  0  0  0  0999 V2000
  -10.1489  -35.4968  -12.2883 C   0  0  0  0  0  0  0  0  0  0  0  0
  -10.1297  -36.9034  -12.7969 C   0  0  0  0  0  0  0  0  0  0  0  0
   -9.1272  -37.7934  -12.0934 C   0  0  0  0  0  0  0  0  0  0  0  0
  -11.4617  -37.5552  -12.6587 C   0  0  0  0  0  0  0  0  0  0  0  0
  -11.7544  -38.7638  -13.2481 C   0  0  0  0  0  0  0  0  0  0  0  0
  -13.0018  -39.3430  -13.1016 C   0  0  0  0  0  0  0  0  0  0  0  0
  -13.9995  -38.7537  -12.3724 C   0  0  0  0  0  0  0  0  0  0  0  0
  -13.7248  -37.5235  -11.7634 C   0  0  0  0  0  0  0  0  0  0  0  0
  -14.7908  -36.8353  -10.9641 C   0  0  0  0  0  0  0  0  0  0  0  0
  -14.9363  -37.5002   -9.7197 N   0  0  0  0  0  0  0  0  0  0  0  0
  -16.1251  -38.2397   -9.5768 C   0  0  0  0  0  0  0  0  0  0  0  0
  -16.5917  -38.5811   -8.2096 C   0  0  1  0  0  0  0  0  0  0  0  0
  -16.9802  -37.5139   -7.4281 O   0  0  0  0  0  0  0  0  0  0  0  0
  -17.6717  -39.6742   -8.1841 C   0  0  2  0  0  0  0  0  0  0  0  0
  -18.5498  -39.4136   -7.0216 C   0  0  0  0  0  0  0  0  0  0  0  0
  -19.9893  -39.0436   -7.4135 C   0  0  2  0  0  0  0  0  0  0  0  0
  -20.3846  -37.6919   -6.8784 C   0  0  0  0  0  0  0  0  0  0  0  0
  -20.8695  -40.1641   -6.9831 C   0  0  0  0  0  0  0  0  0  0  0  0
  -22.3327  -39.9018   -6.9992 C   0  0  0  0  0  0  0  0  0  0  0  0
  -22.9263  -39.9790   -5.6019 C   0  0  0  0  0  0  0  0  0  0  0  0
  -22.7581  -41.3285   -4.9623 C   0  0  0  0  0  0  0  0  0  0  0  0
  -23.6691  -42.3709   -5.5730 C   0  0  0  0  0  0  0  0  0  0  0  0
  -23.1062  -43.7495   -5.4969 C   0  0  0  0  0  0  0  0  0  0  0  0
  -22.4591  -44.2143   -6.7817 C   0  0  0  0  0  0  0  0  0  0  0  0
  -20.9515  -44.3133   -6.6563 C   0  0  0  0  0  0  0  0  0  0  0  0
  -20.3341  -44.0985   -7.9898 C   0  0  0  0  0  0  0  0  0  0  0  0
  -21.0159  -44.4313   -8.9995 O   0  0  0  0  0  0  0  0  0  0  0  0
  -19.0410  -43.5493   -8.1951 N   0  0  0  0  0  0  0  0  0  0  0  0
  -18.4329  -43.6384   -9.5193 C   0  0  0  0  0  0  0  0  0  0  0  0
  -18.3270  -42.9031   -7.1026 C   0  0  0  0  0  0  0  0  0  0  0  0
  -17.1666  -42.1227   -7.5749 C   0  0  0  0  0  0  0  0  0  0  0  0
  -16.0410  -42.6091   -7.1680 O   0  0  0  0  0  0  0  0  0  0  0  0
  -17.1457  -40.9704   -8.3775 N   0  0  0  0  0  0  0  0  0  0  0  0
  -12.4888  -36.9583  -11.9139 C   0  0  0  0  0  0  0  0  0  0  0  0
  1  2  1  0
  2  3  1  0
  2  4  1  0
  4  5  2  0
  5  6  1  0
  6  7  2  0
  7  8  1  0
  8  9  1  0
  9 10  1  0
 10 11  1  0
 11 12  1  0
 12 13  1  6
 12 14  1  0
 14 15  1  1
 15 16  1  0
 16 17  1  1
 16 18  1  0
 18 19  1  0
 19 20  1  0
 20 21  1  0
 21 22  1  0
 22 23  1  0
 23 24  1  0
 24 25  1  0
 25 26  1  0
 26 27  2  0
 26 28  1  0
 28 29  1  0
 28 30  1  0
 30 31  1  0
 31 32  2  0
 31 33  1  0
  8 34  2  0
 33 14  1  0
 34  4  1  0
M  END
$$$$
