
     RDKit          3D

 34 35  0  0  0  0  0  0  0  0999 V2000
  -12.4555  -35.9965  -11.0496 C   0  0  0  0  0  0  0  0  0  0  0  0
  -12.5432  -36.7434  -12.3427 C   0  0  0  0  0  0  0  0  0  0  0  0
  -11.2213  -36.8600  -13.0713 C   0  0  0  0  0  0  0  0  0  0  0  0
  -13.0531  -38.1285  -12.1429 C   0  0  0  0  0  0  0  0  0  0  0  0
  -13.3896  -38.9479  -13.1961 C   0  0  0  0  0  0  0  0  0  0  0  0
  -13.8614  -40.2295  -12.9774 C   0  0  0  0  0  0  0  0  0  0  0  0
  -14.0170  -40.7456  -11.7189 C   0  0  0  0  0  0  0  0  0  0  0  0
  -13.6810  -39.9302  -10.6318 C   0  0  0  0  0  0  0  0  0  0  0  0
  -13.8458  -40.4490   -9.2345 C   0  0  0  0  0  0  0  0  0  0  0  0
  -14.0724  -39.3557   -8.3598 N   0  0  0  0  0  0  0  0  0  0  0  0
  -15.1221  -38.4987   -8.7398 C   0  0  0  0  0  0  0  0  0  0  0  0
  -16.2087  -38.2277   -7.7653 C   0  0  1  0  0  0  0  0  0  0  0  0
  -16.6806  -36.9326   -7.7432 O   0  0  0  0  0  0  0  0  0  0  0  0
  -17.3822  -39.2150   -7.8634 C   0  0  2  0  0  0  0  0  0  0  0  0
  -18.2854  -38.9571   -6.7197 C   0  0  0  0  0  0  0  0  0  0  0  0
  -19.6667  -38.4286   -7.1386 C   0  0  2  0  0  0  0  0  0  0  0  0
  -19.9633  -37.0873   -6.5200 C   0  0  0  0  0  0  0  0  0  0  0  0
  -20.6623  -39.4903   -6.8274 C   0  0  0  0  0  0  0  0  0  0  0  0
  -22.0939  -39.0932   -6.8808 C   0  0  0  0  0  0  0  0  0  0  0  0
  -22.7550  -39.2136   -5.5172 C   0  0  0  0  0  0  0  0  0  0  0  0
  -22.7375  -40.6147   -4.9739 C   0  0  0  0  0  0  0  0  0  0  0  0
  -23.7095  -41.5225   -5.6955 C   0  0  0  0  0  0  0  0  0  0  0  0
  -23.2763  -42.9492   -5.7005 C   0  0  0  0  0  0  0  0  0  0  0  0
  -22.6157  -43.3800   -6.9902 C   0  0  0  0  0  0  0  0  0  0  0  0
  -21.1303  -43.6268   -6.8141 C   0  0  0  0  0  0  0  0  0  0  0  0
  -20.4361  -43.3764   -8.1029 C   0  0  0  0  0  0  0  0  0  0  0  0
  -21.0983  -43.5725   -9.1603 O   0  0  0  0  0  0  0  0  0  0  0  0
  -19.0910  -42.9362   -8.2163 N   0  0  0  0  0  0  0  0  0  0  0  0
  -18.4338  -42.9874   -9.5188 C   0  0  0  0  0  0  0  0  0  0  0  0
  -18.3724  -42.4377   -7.0517 C   0  0  0  0  0  0  0  0  0  0  0  0
  -17.1266  -41.7368   -7.4191 C   0  0  0  0  0  0  0  0  0  0  0  0
  -16.0687  -42.3528   -7.0061 O   0  0  0  0  0  0  0  0  0  0  0  0
  -16.9661  -40.5375   -8.1322 N   0  0  0  0  0  0  0  0  0  0  0  0
  -13.2156  -38.6644  -10.8575 C   0  0  0  0  0  0  0  0  0  0  0  0
  1  2  1  0
  2  3  1  0
  2  4  1  0
  4  5  2  0
  5  6  1  0
  6  7  2  0
  7  8  1  0
  8  9  1  0
  9 10  1  0
 10 11  1  0
 11 12  1  0
 12 13  1  6
 12 14  1  0
 14 15  1  1
 15 16  1  0
 16 17  1  1
 16 18  1  0
 18 19  1  0
 19 20  1  0
 20 21  1  0
 21 22  1  0
 22 23  1  0
 23 24  1  0
 24 25  1  0
 25 26  1  0
 26 27  2  0
 26 28  1  0
 28 29  1  0
 28 30  1  0
 30 31  1  0
 31 32  2  0
 31 33  1  0
  8 34  2  0
 33 14  1  0
 34  4  1  0
M  END
$$$$
