
     RDKit          3D

 34 35  0  0  0  0  0  0  0  0999 V2000
  -10.8643  -37.8558   -9.3368 C   0  0  0  0  0  0  0  0  0  0  0  0
  -11.2877  -36.8469  -10.3568 C   0  0  0  0  0  0  0  0  0  0  0  0
  -10.2087  -36.5053  -11.3623 C   0  0  0  0  0  0  0  0  0  0  0  0
  -12.4716  -37.3129  -11.1312 C   0  0  0  0  0  0  0  0  0  0  0  0
  -12.3684  -38.2279  -12.1538 C   0  0  0  0  0  0  0  0  0  0  0  0
  -13.4872  -38.6401  -12.8548 C   0  0  0  0  0  0  0  0  0  0  0  0
  -14.7407  -38.1668  -12.5735 C   0  0  0  0  0  0  0  0  0  0  0  0
  -14.8702  -37.2348  -11.5370 C   0  0  0  0  0  0  0  0  0  0  0  0
  -16.2223  -36.6802  -11.2006 C   0  0  0  0  0  0  0  0  0  0  0  0
  -16.9882  -37.6876  -10.5601 N   0  0  0  0  0  0  0  0  0  0  0  0
  -16.4621  -38.1473   -9.3385 C   0  0  0  0  0  0  0  0  0  0  0  0
  -16.1049  -39.5825   -9.2117 C   0  0  1  0  0  0  0  0  0  0  0  0
  -14.9394  -39.8486   -8.5251 O   0  0  0  0  0  0  0  0  0  0  0  0
  -17.2479  -40.4544   -8.6684 C   0  0  2  0  0  0  0  0  0  0  0  0
  -18.0737  -39.6106   -7.7759 C   0  0  0  0  0  0  0  0  0  0  0  0
  -19.4991  -39.3772   -8.3017 C   0  0  2  0  0  0  0  0  0  0  0  0
  -19.7957  -37.9111   -8.4816 C   0  0  0  0  0  0  0  0  0  0  0  0
  -20.4325  -40.0927   -7.3894 C   0  0  0  0  0  0  0  0  0  0  0  0
  -21.8769  -39.7721   -7.5338 C   0  0  0  0  0  0  0  0  0  0  0  0
  -22.4323  -39.1308   -6.2724 C   0  0  0  0  0  0  0  0  0  0  0  0
  -22.3274  -40.0174   -5.0634 C   0  0  0  0  0  0  0  0  0  0  0  0
  -23.3177  -41.1608   -5.1022 C   0  0  0  0  0  0  0  0  0  0  0  0
  -22.8374  -42.3692   -4.3726 C   0  0  0  0  0  0  0  0  0  0  0  0
  -22.2581  -43.4347   -5.2751 C   0  0  0  0  0  0  0  0  0  0  0  0
  -20.7562  -43.5630   -5.1130 C   0  0  0  0  0  0  0  0  0  0  0  0
  -20.1668  -44.0549   -6.3843 C   0  0  0  0  0  0  0  0  0  0  0  0
  -20.8972  -44.7836   -7.1127 O   0  0  0  0  0  0  0  0  0  0  0  0
  -18.8494  -43.7596   -6.8239 N   0  0  0  0  0  0  0  0  0  0  0  0
  -18.2874  -44.5124   -7.9413 C   0  0  0  0  0  0  0  0  0  0  0  0
  -18.0654  -42.7191   -6.1729 C   0  0  0  0  0  0  0  0  0  0  0  0
  -16.8743  -42.3403   -6.9580 C   0  0  0  0  0  0  0  0  0  0  0  0
  -15.7687  -42.6473   -6.3643 O   0  0  0  0  0  0  0  0  0  0  0  0
  -16.8075  -41.7171   -8.2149 N   0  0  0  0  0  0  0  0  0  0  0  0
  -13.7586  -36.8329  -10.8495 C   0  0  0  0  0  0  0  0  0  0  0  0
  1  2  1  0
  2  3  1  0
  2  4  1  0
  4  5  2  0
  5  6  1  0
  6  7  2  0
  7  8  1  0
  8  9  1  0
  9 10  1  0
 10 11  1  0
 11 12  1  0
 12 13  1  1
 12 14  1  0
 14 15  1  1
 15 16  1  0
 16 17  1  1
 16 18  1  0
 18 19  1  0
 19 20  1  0
 20 21  1  0
 21 22  1  0
 22 23  1  0
 23 24  1  0
 24 25  1  0
 25 26  1  0
 26 27  2  0
 26 28  1  0
 28 29  1  0
 28 30  1  0
 30 31  1  0
 31 32  2  0
 31 33  1  0
  8 34  2  0
 33 14  1  0
 34  4  1  0
M  END
$$$$
