
     RDKit          3D

 34 35  0  0  0  0  0  0  0  0999 V2000
  -10.0930  -40.7761  -10.4431 C   0  0  0  0  0  0  0  0  0  0  0  0
  -11.4243  -41.4396  -10.6016 C   0  0  0  0  0  0  0  0  0  0  0  0
  -11.9967  -41.9767   -9.3070 C   0  0  0  0  0  0  0  0  0  0  0  0
  -12.4373  -40.5084  -11.1716 C   0  0  0  0  0  0  0  0  0  0  0  0
  -12.9819  -40.6894  -12.4223 C   0  0  0  0  0  0  0  0  0  0  0  0
  -13.9205  -39.8060  -12.9239 C   0  0  0  0  0  0  0  0  0  0  0  0
  -14.3527  -38.7184  -12.2135 C   0  0  0  0  0  0  0  0  0  0  0  0
  -13.8125  -38.5138  -10.9383 C   0  0  0  0  0  0  0  0  0  0  0  0
  -14.2476  -37.3294  -10.1280 C   0  0  0  0  0  0  0  0  0  0  0  0
  -14.4920  -37.7470   -8.7947 N   0  0  0  0  0  0  0  0  0  0  0  0
  -15.5040  -38.7143   -8.6512 C   0  0  0  0  0  0  0  0  0  0  0  0
  -16.8526  -38.2749   -8.2132 C   0  0  1  0  0  0  0  0  0  0  0  0
  -17.3521  -37.1586   -8.8496 O   0  0  0  0  0  0  0  0  0  0  0  0
  -17.8989  -39.4004   -8.2236 C   0  0  2  0  0  0  0  0  0  0  0  0
  -18.6308  -39.3476   -6.9383 C   0  0  0  0  0  0  0  0  0  0  0  0
  -20.1150  -38.9794   -7.0947 C   0  0  2  0  0  0  0  0  0  0  0  0
  -20.4678  -37.7374   -6.3185 C   0  0  0  0  0  0  0  0  0  0  0  0
  -20.9124  -40.1840   -6.7357 C   0  0  0  0  0  0  0  0  0  0  0  0
  -22.3711  -39.9785   -6.5368 C   0  0  0  0  0  0  0  0  0  0  0  0
  -22.7849  -40.2831   -5.1061 C   0  0  0  0  0  0  0  0  0  0  0  0
  -22.5116  -41.7047   -4.7019 C   0  0  0  0  0  0  0  0  0  0  0  0
  -23.4704  -42.6800   -5.3492 C   0  0  0  0  0  0  0  0  0  0  0  0
  -22.8748  -44.0322   -5.5497 C   0  0  0  0  0  0  0  0  0  0  0  0
  -22.3831  -44.2778   -6.9580 C   0  0  0  0  0  0  0  0  0  0  0  0
  -20.8700  -44.3362   -7.0305 C   0  0  0  0  0  0  0  0  0  0  0  0
  -20.4275  -43.9041   -8.3807 C   0  0  0  0  0  0  0  0  0  0  0  0
  -21.2225  -44.1107   -9.3399 O   0  0  0  0  0  0  0  0  0  0  0  0
  -19.1811  -43.2814   -8.6543 N   0  0  0  0  0  0  0  0  0  0  0  0
  -18.7405  -43.1513  -10.0400 C   0  0  0  0  0  0  0  0  0  0  0  0
  -18.3500  -42.7760   -7.5704 C   0  0  0  0  0  0  0  0  0  0  0  0
  -17.2731  -41.8907   -8.0552 C   0  0  0  0  0  0  0  0  0  0  0  0
  -16.0962  -42.3882   -7.8641 O   0  0  0  0  0  0  0  0  0  0  0  0
  -17.3752  -40.6330   -8.6717 N   0  0  0  0  0  0  0  0  0  0  0  0
  -12.8850  -39.3923  -10.4506 C   0  0  0  0  0  0  0  0  0  0  0  0
  1  2  1  0
  2  3  1  0
  2  4  1  0
  4  5  2  0
  5  6  1  0
  6  7  2  0
  7  8  1  0
  8  9  1  0
  9 10  1  0
 10 11  1  0
 11 12  1  0
 12 13  1  6
 12 14  1  0
 14 15  1  1
 15 16  1  0
 16 17  1  1
 16 18  1  0
 18 19  1  0
 19 20  1  0
 20 21  1  0
 21 22  1  0
 22 23  1  0
 23 24  1  0
 24 25  1  0
 25 26  1  0
 26 27  2  0
 26 28  1  0
 28 29  1  0
 28 30  1  0
 30 31  1  0
 31 32  2  0
 31 33  1  0
  8 34  2  0
 33 14  1  0
 34  4  1  0
M  END
$$$$
