
     RDKit          3D

 34 35  0  0  0  0  0  0  0  0999 V2000
  -21.9308  -40.7654   -3.4537 C   0  0  0  0  0  0  0  0  0  0  0  0
  -21.9881  -41.2761   -4.8585 C   0  0  0  0  0  0  0  0  0  0  0  0
  -23.1665  -42.1871   -5.1295 C   0  0  0  0  0  0  0  0  0  0  0  0
  -22.0639  -40.1624   -5.8446 C   0  0  0  0  0  0  0  0  0  0  0  0
  -23.1694  -39.3501   -5.9538 C   0  0  0  0  0  0  0  0  0  0  0  0
  -23.2094  -38.3244   -6.8807 C   0  0  0  0  0  0  0  0  0  0  0  0
  -22.1660  -38.0648   -7.7283 C   0  0  0  0  0  0  0  0  0  0  0  0
  -21.0305  -38.8783   -7.6354 C   0  0  0  0  0  0  0  0  0  0  0  0
  -19.8674  -38.6385   -8.5512 C   0  0  0  0  0  0  0  0  0  0  0  0
  -18.8402  -39.5677   -8.2458 N   0  0  0  0  0  0  0  0  0  0  0  0
  -17.8011  -39.0619   -7.4428 C   0  0  0  0  0  0  0  0  0  0  0  0
  -16.8049  -38.1494   -8.0583 C   0  0  1  0  0  0  0  0  0  0  0  0
  -16.1755  -37.2817   -7.1915 O   0  0  0  0  0  0  0  0  0  0  0  0
  -15.7650  -38.8724   -8.9286 C   0  0  2  0  0  0  0  0  0  0  0  0
  -15.5175  -38.0358  -10.1242 C   0  0  0  0  0  0  0  0  0  0  0  0
  -14.0880  -37.4746  -10.1923 C   0  0  2  0  0  0  0  0  0  0  0  0
  -14.0802  -35.9690  -10.2424 C   0  0  0  0  0  0  0  0  0  0  0  0
  -13.4038  -38.1380  -11.3357 C   0  0  0  0  0  0  0  0  0  0  0  0
  -12.1114  -37.5453  -11.7695 C   0  0  0  0  0  0  0  0  0  0  0  0
  -12.1950  -37.0089  -13.1894 C   0  0  0  0  0  0  0  0  0  0  0  0
  -12.5213  -38.0693  -14.2033 C   0  0  0  0  0  0  0  0  0  0  0  0
  -11.3540  -38.9974  -14.4592 C   0  0  0  0  0  0  0  0  0  0  0  0
  -11.7804  -40.3671  -14.8660 C   0  0  0  0  0  0  0  0  0  0  0  0
  -11.7512  -41.3735  -13.7383 C   0  0  0  0  0  0  0  0  0  0  0  0
  -13.1448  -41.7922  -13.3129 C   0  0  0  0  0  0  0  0  0  0  0  0
  -13.1216  -42.1880  -11.8817 C   0  0  0  0  0  0  0  0  0  0  0  0
  -12.0386  -42.6573  -11.4323 O   0  0  0  0  0  0  0  0  0  0  0  0
  -14.2287  -42.0724  -11.0003 N   0  0  0  0  0  0  0  0  0  0  0  0
  -14.1772  -42.7397   -9.7029 C   0  0  0  0  0  0  0  0  0  0  0  0
  -15.4022  -41.2980  -11.3801 C   0  0  0  0  0  0  0  0  0  0  0  0
  -16.2909  -41.0272  -10.2332 C   0  0  0  0  0  0  0  0  0  0  0  0
  -17.4374  -41.6125  -10.3430 O   0  0  0  0  0  0  0  0  0  0  0  0
  -16.0454  -40.2468   -9.0916 N   0  0  0  0  0  0  0  0  0  0  0  0
  -20.9999  -39.8901   -6.7162 C   0  0  0  0  0  0  0  0  0  0  0  0
  1  2  1  0
  2  3  1  0
  2  4  1  0
  4  5  2  0
  5  6  1  0
  6  7  2  0
  7  8  1  0
  8  9  1  0
  9 10  1  0
 10 11  1  0
 11 12  1  0
 12 13  1  1
 12 14  1  0
 14 15  1  6
 15 16  1  0
 16 17  1  6
 16 18  1  0
 18 19  1  0
 19 20  1  0
 20 21  1  0
 21 22  1  0
 22 23  1  0
 23 24  1  0
 24 25  1  0
 25 26  1  0
 26 27  2  0
 26 28  1  0
 28 29  1  0
 28 30  1  0
 30 31  1  0
 31 32  2  0
 31 33  1  0
  8 34  2  0
 33 14  1  0
 34  4  1  0
M  END
$$$$
