
     RDKit          3D

 34 35  0  0  0  0  0  0  0  0999 V2000
  -10.6755  -33.9335  -11.0505 C   0  0  0  0  0  0  0  0  0  0  0  0
  -10.5263  -35.1590  -11.8952 C   0  0  0  0  0  0  0  0  0  0  0  0
   -9.3998  -36.0700  -11.4558 C   0  0  0  0  0  0  0  0  0  0  0  0
  -11.7707  -35.9775  -11.8994 C   0  0  0  0  0  0  0  0  0  0  0  0
  -12.4011  -36.3522  -13.0639 C   0  0  0  0  0  0  0  0  0  0  0  0
  -13.5563  -37.1122  -13.0343 C   0  0  0  0  0  0  0  0  0  0  0  0
  -14.1277  -37.5271  -11.8614 C   0  0  0  0  0  0  0  0  0  0  0  0
  -13.5040  -37.1578  -10.6638 C   0  0  0  0  0  0  0  0  0  0  0  0
  -14.1002  -37.5799   -9.3542 C   0  0  0  0  0  0  0  0  0  0  0  0
  -14.5600  -38.9170   -9.4660 N   0  0  0  0  0  0  0  0  0  0  0  0
  -15.2875  -39.3897   -8.3578 C   0  0  0  0  0  0  0  0  0  0  0  0
  -16.6634  -38.8775   -8.1379 C   0  0  1  0  0  0  0  0  0  0  0  0
  -17.0948  -37.9230   -9.0341 O   0  0  0  0  0  0  0  0  0  0  0  0
  -17.7174  -39.9874   -8.0013 C   0  0  2  0  0  0  0  0  0  0  0  0
  -18.4763  -39.7379   -6.7554 C   0  0  0  0  0  0  0  0  0  0  0  0
  -19.9540  -39.3916   -6.9986 C   0  0  2  0  0  0  0  0  0  0  0  0
  -20.3142  -38.0450   -6.4271 C   0  0  0  0  0  0  0  0  0  0  0  0
  -20.7677  -40.5248   -6.4795 C   0  0  0  0  0  0  0  0  0  0  0  0
  -22.2289  -40.2857   -6.3464 C   0  0  0  0  0  0  0  0  0  0  0  0
  -22.6754  -40.3687   -4.8957 C   0  0  0  0  0  0  0  0  0  0  0  0
  -22.4212  -41.7138   -4.2753 C   0  0  0  0  0  0  0  0  0  0  0  0
  -23.3730  -42.7720   -4.7888 C   0  0  0  0  0  0  0  0  0  0  0  0
  -22.7833  -44.1413   -4.7693 C   0  0  0  0  0  0  0  0  0  0  0  0
  -22.2634  -44.5991   -6.1130 C   0  0  0  0  0  0  0  0  0  0  0  0
  -20.7495  -44.6739   -6.1422 C   0  0  0  0  0  0  0  0  0  0  0  0
  -20.2750  -44.4528   -7.5320 C   0  0  0  0  0  0  0  0  0  0  0  0
  -21.0509  -44.7990   -8.4664 O   0  0  0  0  0  0  0  0  0  0  0  0
  -19.0186  -43.8837   -7.8688 N   0  0  0  0  0  0  0  0  0  0  0  0
  -18.5476  -43.9666   -9.2481 C   0  0  0  0  0  0  0  0  0  0  0  0
  -18.2071  -43.2235   -6.8555 C   0  0  0  0  0  0  0  0  0  0  0  0
  -17.1137  -42.4261   -7.4445 C   0  0  0  0  0  0  0  0  0  0  0  0
  -15.9448  -42.8936   -7.1543 O   0  0  0  0  0  0  0  0  0  0  0  0
  -17.1933  -41.2757   -8.2462 N   0  0  0  0  0  0  0  0  0  0  0  0
  -12.3623  -36.4062  -10.7027 C   0  0  0  0  0  0  0  0  0  0  0  0
  1  2  1  0
  2  3  1  0
  2  4  1  0
  4  5  2  0
  5  6  1  0
  6  7  2  0
  7  8  1  0
  8  9  1  0
  9 10  1  0
 10 11  1  0
 11 12  1  0
 12 13  1  6
 12 14  1  0
 14 15  1  1
 15 16  1  0
 16 17  1  1
 16 18  1  0
 18 19  1  0
 19 20  1  0
 20 21  1  0
 21 22  1  0
 22 23  1  0
 23 24  1  0
 24 25  1  0
 25 26  1  0
 26 27  2  0
 26 28  1  0
 28 29  1  0
 28 30  1  0
 30 31  1  0
 31 32  2  0
 31 33  1  0
  8 34  2  0
 33 14  1  0
 34  4  1  0
M  END
$$$$
