
     RDKit          3D

 34 35  0  0  0  0  0  0  0  0999 V2000
  -14.8271  -35.2552  -11.9234 C   0  0  0  0  0  0  0  0  0  0  0  0
  -13.8139  -35.8893  -12.8229 C   0  0  0  0  0  0  0  0  0  0  0  0
  -12.4250  -35.3022  -12.6879 C   0  0  0  0  0  0  0  0  0  0  0  0
  -13.6940  -37.3521  -12.5693 C   0  0  0  0  0  0  0  0  0  0  0  0
  -13.8982  -38.2892  -13.5561 C   0  0  0  0  0  0  0  0  0  0  0  0
  -13.7801  -39.6410  -13.2885 C   0  0  0  0  0  0  0  0  0  0  0  0
  -13.4583  -40.1139  -12.0446 C   0  0  0  0  0  0  0  0  0  0  0  0
  -13.2460  -39.1789  -11.0246 C   0  0  0  0  0  0  0  0  0  0  0  0
  -12.9024  -39.6508   -9.6433 C   0  0  0  0  0  0  0  0  0  0  0  0
  -13.8312  -39.1007   -8.7232 N   0  0  0  0  0  0  0  0  0  0  0  0
  -15.0239  -39.8327   -8.5738 C   0  0  0  0  0  0  0  0  0  0  0  0
  -16.1438  -39.2226   -7.8141 C   0  0  1  0  0  0  0  0  0  0  0  0
  -16.4867  -37.9397   -8.1845 O   0  0  0  0  0  0  0  0  0  0  0  0
  -17.3989  -40.1073   -7.7535 C   0  0  2  0  0  0  0  0  0  0  0  0
  -18.2008  -39.6733   -6.5877 C   0  0  0  0  0  0  0  0  0  0  0  0
  -19.5581  -39.0629   -6.9724 C   0  0  2  0  0  0  0  0  0  0  0  0
  -19.7015  -37.6525   -6.4627 C   0  0  0  0  0  0  0  0  0  0  0  0
  -20.6157  -40.0019   -6.5085 C   0  0  0  0  0  0  0  0  0  0  0  0
  -22.0098  -39.4860   -6.5149 C   0  0  0  0  0  0  0  0  0  0  0  0
  -22.5878  -39.4300   -5.1100 C   0  0  0  0  0  0  0  0  0  0  0  0
  -22.6508  -40.7753   -4.4430 C   0  0  0  0  0  0  0  0  0  0  0  0
  -23.7398  -41.6524   -5.0212 C   0  0  0  0  0  0  0  0  0  0  0  0
  -23.4275  -43.1069   -4.9211 C   0  0  0  0  0  0  0  0  0  0  0  0
  -22.8907  -43.7036   -6.2022 C   0  0  0  0  0  0  0  0  0  0  0  0
  -21.4225  -44.0644   -6.0906 C   0  0  0  0  0  0  0  0  0  0  0  0
  -20.7960  -43.9880   -7.4350 C   0  0  0  0  0  0  0  0  0  0  0  0
  -21.5400  -44.2151   -8.4299 O   0  0  0  0  0  0  0  0  0  0  0  0
  -19.4294  -43.6796   -7.6658 N   0  0  0  0  0  0  0  0  0  0  0  0
  -18.8654  -43.9004   -8.9941 C   0  0  0  0  0  0  0  0  0  0  0  0
  -18.5972  -43.1483   -6.5952 C   0  0  0  0  0  0  0  0  0  0  0  0
  -17.3244  -42.5942   -7.0965 C   0  0  0  0  0  0  0  0  0  0  0  0
  -16.2964  -43.2635   -6.6911 O   0  0  0  0  0  0  0  0  0  0  0  0
  -17.1123  -41.4795   -7.9242 N   0  0  0  0  0  0  0  0  0  0  0  0
  -13.3650  -37.8444  -11.2984 C   0  0  0  0  0  0  0  0  0  0  0  0
  1  2  1  0
  2  3  1  0
  2  4  1  0
  4  5  2  0
  5  6  1  0
  6  7  2  0
  7  8  1  0
  8  9  1  0
  9 10  1  0
 10 11  1  0
 11 12  1  0
 12 13  1  6
 12 14  1  0
 14 15  1  1
 15 16  1  0
 16 17  1  1
 16 18  1  0
 18 19  1  0
 19 20  1  0
 20 21  1  0
 21 22  1  0
 22 23  1  0
 23 24  1  0
 24 25  1  0
 25 26  1  0
 26 27  2  0
 26 28  1  0
 28 29  1  0
 28 30  1  0
 30 31  1  0
 31 32  2  0
 31 33  1  0
  8 34  2  0
 33 14  1  0
 34  4  1  0
M  END
$$$$
