
     RDKit          3D

 34 35  0  0  0  0  0  0  0  0999 V2000
  -12.1907  -34.9847  -13.4659 C   0  0  0  0  0  0  0  0  0  0  0  0
  -11.4222  -35.7280  -12.4197 C   0  0  0  0  0  0  0  0  0  0  0  0
  -11.3532  -35.0111  -11.0880 C   0  0  0  0  0  0  0  0  0  0  0  0
  -12.0083  -37.0724  -12.1597 C   0  0  0  0  0  0  0  0  0  0  0  0
  -11.2467  -38.2185  -12.1536 C   0  0  0  0  0  0  0  0  0  0  0  0
  -11.8212  -39.4528  -11.9096 C   0  0  0  0  0  0  0  0  0  0  0  0
  -13.1601  -39.5995  -11.6644 C   0  0  0  0  0  0  0  0  0  0  0  0
  -13.9550  -38.4472  -11.6656 C   0  0  0  0  0  0  0  0  0  0  0  0
  -15.4288  -38.5606  -11.4131 C   0  0  0  0  0  0  0  0  0  0  0  0
  -15.6492  -39.5138  -10.3861 N   0  0  0  0  0  0  0  0  0  0  0  0
  -15.1411  -39.1551   -9.1237 C   0  0  0  0  0  0  0  0  0  0  0  0
  -16.0906  -38.9883   -7.9948 C   0  0  1  0  0  0  0  0  0  0  0  0
  -16.5570  -37.7070   -7.7920 O   0  0  0  0  0  0  0  0  0  0  0  0
  -17.2658  -39.9780   -8.0292 C   0  0  2  0  0  0  0  0  0  0  0  0
  -18.1177  -39.7078   -6.8495 C   0  0  0  0  0  0  0  0  0  0  0  0
  -19.5170  -39.1856   -7.2127 C   0  0  2  0  0  0  0  0  0  0  0  0
  -19.7881  -37.8376   -6.5971 C   0  0  0  0  0  0  0  0  0  0  0  0
  -20.4962  -40.2448   -6.8454 C   0  0  0  0  0  0  0  0  0  0  0  0
  -21.9294  -39.8498   -6.8397 C   0  0  0  0  0  0  0  0  0  0  0  0
  -22.5290  -39.9551   -5.4468 C   0  0  0  0  0  0  0  0  0  0  0  0
  -22.4853  -41.3498   -4.8886 C   0  0  0  0  0  0  0  0  0  0  0  0
  -23.4869  -42.2669   -5.5558 C   0  0  0  0  0  0  0  0  0  0  0  0
  -23.0521  -43.6932   -5.5636 C   0  0  0  0  0  0  0  0  0  0  0  0
  -22.4487  -44.1382   -6.8764 C   0  0  0  0  0  0  0  0  0  0  0  0
  -20.9566  -44.3813   -6.7636 C   0  0  0  0  0  0  0  0  0  0  0  0
  -20.3208  -44.1452   -8.0847 C   0  0  0  0  0  0  0  0  0  0  0  0
  -21.0290  -44.3542   -9.1093 O   0  0  0  0  0  0  0  0  0  0  0  0
  -18.9827  -43.7049   -8.2629 N   0  0  0  0  0  0  0  0  0  0  0  0
  -18.3839  -43.7705   -9.5926 C   0  0  0  0  0  0  0  0  0  0  0  0
  -18.2139  -43.1921   -7.1372 C   0  0  0  0  0  0  0  0  0  0  0  0
  -16.9867  -42.4942   -7.5676 C   0  0  0  0  0  0  0  0  0  0  0  0
  -15.9106  -43.1043   -7.1950 O   0  0  0  0  0  0  0  0  0  0  0  0
  -16.8600  -41.3031   -8.3010 N   0  0  0  0  0  0  0  0  0  0  0  0
  -13.3785  -37.2312  -11.9080 C   0  0  0  0  0  0  0  0  0  0  0  0
  1  2  1  0
  2  3  1  0
  2  4  1  0
  4  5  2  0
  5  6  1  0
  6  7  2  0
  7  8  1  0
  8  9  1  0
  9 10  1  0
 10 11  1  0
 11 12  1  0
 12 13  1  6
 12 14  1  0
 14 15  1  1
 15 16  1  0
 16 17  1  1
 16 18  1  0
 18 19  1  0
 19 20  1  0
 20 21  1  0
 21 22  1  0
 22 23  1  0
 23 24  1  0
 24 25  1  0
 25 26  1  0
 26 27  2  0
 26 28  1  0
 28 29  1  0
 28 30  1  0
 30 31  1  0
 31 32  2  0
 31 33  1  0
  8 34  2  0
 33 14  1  0
 34  4  1  0
M  END
$$$$
