
     RDKit          3D

 34 35  0  0  0  0  0  0  0  0999 V2000
  -22.6575  -41.3847   -3.9210 C   0  0  0  0  0  0  0  0  0  0  0  0
  -22.4406  -39.9067   -4.0003 C   0  0  0  0  0  0  0  0  0  0  0  0
  -21.3044  -39.4088   -3.1326 C   0  0  0  0  0  0  0  0  0  0  0  0
  -22.1477  -39.4690   -5.3935 C   0  0  0  0  0  0  0  0  0  0  0  0
  -22.9457  -38.5722   -6.0663 C   0  0  0  0  0  0  0  0  0  0  0  0
  -22.6470  -38.1861   -7.3604 C   0  0  0  0  0  0  0  0  0  0  0  0
  -21.5566  -38.6684   -8.0332 C   0  0  0  0  0  0  0  0  0  0  0  0
  -20.7300  -39.5821   -7.3687 C   0  0  0  0  0  0  0  0  0  0  0  0
  -19.5303  -40.1458   -8.0700 C   0  0  0  0  0  0  0  0  0  0  0  0
  -18.6433  -39.0866   -8.3911 N   0  0  0  0  0  0  0  0  0  0  0  0
  -17.5452  -38.9473   -7.5219 C   0  0  0  0  0  0  0  0  0  0  0  0
  -16.2939  -38.3445   -8.0460 C   0  0  1  0  0  0  0  0  0  0  0  0
  -15.5311  -37.6587   -7.1250 O   0  0  0  0  0  0  0  0  0  0  0  0
  -15.4151  -39.3345   -8.8264 C   0  0  2  0  0  0  0  0  0  0  0  0
  -14.8479  -38.6149   -9.9887 C   0  0  0  0  0  0  0  0  0  0  0  0
  -13.3199  -38.4599   -9.9255 C   0  0  2  0  0  0  0  0  0  0  0  0
  -12.9027  -37.0127   -9.9629 C   0  0  0  0  0  0  0  0  0  0  0  0
  -12.7423  -39.3013  -11.0089 C   0  0  0  0  0  0  0  0  0  0  0  0
  -11.3052  -39.0850  -11.3218 C   0  0  0  0  0  0  0  0  0  0  0  0
  -11.1168  -38.5691  -12.7393 C   0  0  0  0  0  0  0  0  0  0  0  0
  -11.6265  -39.5192  -13.7864 C   0  0  0  0  0  0  0  0  0  0  0  0
  -10.7345  -40.7310  -13.9451 C   0  0  0  0  0  0  0  0  0  0  0  0
  -11.4766  -41.9421  -14.3988 C   0  0  0  0  0  0  0  0  0  0  0  0
  -11.8182  -42.9007  -13.2809 C   0  0  0  0  0  0  0  0  0  0  0  0
  -13.3046  -42.9224  -12.9840 C   0  0  0  0  0  0  0  0  0  0  0  0
  -13.5141  -43.2864  -11.5595 C   0  0  0  0  0  0  0  0  0  0  0  0
  -12.6411  -44.0222  -11.0196 O   0  0  0  0  0  0  0  0  0  0  0  0
  -14.6219  -42.8631  -10.7788 N   0  0  0  0  0  0  0  0  0  0  0  0
  -14.8656  -43.4984   -9.4873 C   0  0  0  0  0  0  0  0  0  0  0  0
  -15.5058  -41.8080  -11.2550 C   0  0  0  0  0  0  0  0  0  0  0  0
  -16.3855  -41.2897  -10.1893 C   0  0  0  0  0  0  0  0  0  0  0  0
  -17.6330  -41.5469  -10.4049 O   0  0  0  0  0  0  0  0  0  0  0  0
  -16.0398  -40.5854   -9.0244 N   0  0  0  0  0  0  0  0  0  0  0  0
  -21.0331  -39.9582   -6.0894 C   0  0  0  0  0  0  0  0  0  0  0  0
  1  2  1  0
  2  3  1  0
  2  4  1  0
  4  5  2  0
  5  6  1  0
  6  7  2  0
  7  8  1  0
  8  9  1  0
  9 10  1  0
 10 11  1  0
 11 12  1  0
 12 13  1  1
 12 14  1  0
 14 15  1  6
 15 16  1  0
 16 17  1  6
 16 18  1  0
 18 19  1  0
 19 20  1  0
 20 21  1  0
 21 22  1  0
 22 23  1  0
 23 24  1  0
 24 25  1  0
 25 26  1  0
 26 27  2  0
 26 28  1  0
 28 29  1  0
 28 30  1  0
 30 31  1  0
 31 32  2  0
 31 33  1  0
  8 34  2  0
 33 14  1  0
 34  4  1  0
M  END
$$$$
