
     RDKit          3D

 34 35  0  0  0  0  0  0  0  0999 V2000
  -23.1297  -36.7815   -7.7032 C   0  0  0  0  0  0  0  0  0  0  0  0
  -22.6733  -37.8397   -6.7495 C   0  0  0  0  0  0  0  0  0  0  0  0
  -23.7629  -38.3395   -5.8249 C   0  0  0  0  0  0  0  0  0  0  0  0
  -22.1324  -39.0280   -7.4662 C   0  0  0  0  0  0  0  0  0  0  0  0
  -22.8265  -39.6592   -8.4729 C   0  0  0  0  0  0  0  0  0  0  0  0
  -22.2971  -40.7617   -9.1189 C   0  0  0  0  0  0  0  0  0  0  0  0
  -21.0708  -41.2779   -8.7963 C   0  0  0  0  0  0  0  0  0  0  0  0
  -20.3462  -40.6523   -7.7749 C   0  0  0  0  0  0  0  0  0  0  0  0
  -19.0032  -41.1897   -7.3796 C   0  0  0  0  0  0  0  0  0  0  0  0
  -18.0250  -40.6954   -8.2800 N   0  0  0  0  0  0  0  0  0  0  0  0
  -16.9716  -39.9812   -7.6792 C   0  0  0  0  0  0  0  0  0  0  0  0
  -16.3712  -38.8419   -8.4175 C   0  0  1  0  0  0  0  0  0  0  0  0
  -15.9583  -37.7797   -7.6418 O   0  0  0  0  0  0  0  0  0  0  0  0
  -15.2497  -39.2577   -9.3824 C   0  0  2  0  0  0  0  0  0  0  0  0
  -15.0447  -38.1484  -10.3405 C   0  0  0  0  0  0  0  0  0  0  0  0
  -13.6683  -37.4762  -10.2120 C   0  0  2  0  0  0  0  0  0  0  0  0
  -13.7904  -36.0046   -9.9135 C   0  0  0  0  0  0  0  0  0  0  0  0
  -12.8990  -37.7985  -11.4449 C   0  0  0  0  0  0  0  0  0  0  0  0
  -11.6522  -37.0212  -11.6708 C   0  0  0  0  0  0  0  0  0  0  0  0
  -11.7449  -36.1765  -12.9312 C   0  0  0  0  0  0  0  0  0  0  0  0
  -11.9508  -36.9932  -14.1759 C   0  0  0  0  0  0  0  0  0  0  0  0
  -10.7008  -37.7413  -14.5851 C   0  0  0  0  0  0  0  0  0  0  0  0
  -10.9954  -39.0074  -15.3155 C   0  0  0  0  0  0  0  0  0  0  0  0
  -10.9083  -40.2437  -14.4498 C   0  0  0  0  0  0  0  0  0  0  0  0
  -12.2708  -40.8584  -14.1966 C   0  0  0  0  0  0  0  0  0  0  0  0
  -12.2508  -41.5742  -12.8956 C   0  0  0  0  0  0  0  0  0  0  0  0
  -11.1433  -42.0487  -12.5172 O   0  0  0  0  0  0  0  0  0  0  0  0
  -13.3866  -41.7548  -12.0629 N   0  0  0  0  0  0  0  0  0  0  0  0
  -13.3112  -42.7004  -10.9532 C   0  0  0  0  0  0  0  0  0  0  0  0
  -14.6127  -41.0079  -12.3075 C   0  0  0  0  0  0  0  0  0  0  0  0
  -15.5514  -41.0831  -11.1710 C   0  0  0  0  0  0  0  0  0  0  0  0
  -16.6393  -41.7148  -11.4651 O   0  0  0  0  0  0  0  0  0  0  0  0
  -15.4050  -40.5738   -9.8703 N   0  0  0  0  0  0  0  0  0  0  0  0
  -20.8776  -39.5630   -7.1417 C   0  0  0  0  0  0  0  0  0  0  0  0
  1  2  1  0
  2  3  1  0
  2  4  1  0
  4  5  2  0
  5  6  1  0
  6  7  2  0
  7  8  1  0
  8  9  1  0
  9 10  1  0
 10 11  1  0
 11 12  1  0
 12 13  1  1
 12 14  1  0
 14 15  1  6
 15 16  1  0
 16 17  1  6
 16 18  1  0
 18 19  1  0
 19 20  1  0
 20 21  1  0
 21 22  1  0
 22 23  1  0
 23 24  1  0
 24 25  1  0
 25 26  1  0
 26 27  2  0
 26 28  1  0
 28 29  1  0
 28 30  1  0
 30 31  1  0
 31 32  2  0
 31 33  1  0
  8 34  2  0
 33 14  1  0
 34  4  1  0
M  END
$$$$
