
     RDKit          3D

 39 43  0  0  0  0  0  0  0  0999 V2000
  -25.0913  -42.8688   -7.1118 C   0  0  0  0  0  0  0  0  0  0  0  0
  -23.5856  -42.9469   -7.3663 C   0  0  0  0  0  0  0  0  0  0  0  0
  -23.3756  -43.4364   -8.7865 C   0  0  0  0  0  0  0  0  0  0  0  0
  -23.0281  -41.6052   -7.1807 C   0  0  0  0  0  0  0  0  0  0  0  0
  -23.2748  -40.6291   -8.1119 C   0  0  0  0  0  0  0  0  0  0  0  0
  -22.7552  -39.3750   -7.9420 C   0  0  0  0  0  0  0  0  0  0  0  0
  -22.0126  -39.1332   -6.8599 N   0  0  0  0  0  0  0  0  0  0  0  0
  -21.7476  -40.0818   -5.9137 C   0  0  0  0  0  0  0  0  0  0  0  0
  -22.2593  -41.3401   -6.0685 C   0  0  0  0  0  0  0  0  0  0  0  0
  -20.9031  -39.6435   -4.7695 C   0  0  0  0  0  0  0  0  0  0  0  0
  -20.2877  -40.6283   -3.8435 C   0  0  0  0  0  0  0  0  0  0  0  0
  -21.5139  -39.8714   -3.4349 C   0  0  0  0  0  0  0  0  0  0  0  0
  -20.1592  -38.4308   -5.0608 N   0  0  0  0  0  0  0  0  0  0  0  0
  -18.9719  -38.6776   -5.8457 C   0  0  0  0  0  0  0  0  0  0  0  0
  -19.3447  -38.5262   -7.3139 C   0  0  1  0  0  0  0  0  0  0  0  0
  -18.8233  -37.3450   -7.7875 O   0  0  0  0  0  0  0  0  0  0  0  0
  -18.8582  -39.7050   -8.1307 C   0  0  2  0  0  0  0  0  0  0  0  0
  -19.5100  -39.6598   -9.4802 C   0  0  0  0  0  0  0  0  0  0  0  0
  -18.7075  -38.9391  -10.5192 C   0  0  0  0  0  0  0  0  0  0  0  0
  -19.4765  -37.8702  -11.0602 C   0  0  0  0  0  0  0  0  0  0  0  0
  -19.0482  -37.0640  -12.0699 C   0  0  0  0  0  0  0  0  0  0  0  0
  -17.7957  -37.3526  -12.5487 C   0  0  0  0  0  0  0  0  0  0  0  0
  -16.9872  -38.4004  -12.0503 C   0  0  0  0  0  0  0  0  0  0  0  0
  -15.7074  -38.4809  -12.7998 C   0  0  0  0  0  0  0  0  0  0  0  0
  -15.5755  -39.6979  -13.7009 C   0  0  0  0  0  0  0  0  0  0  0  0
  -15.0262  -40.8498  -12.8807 C   0  0  0  0  0  0  0  0  0  0  0  0
  -16.0001  -41.9727  -12.9304 C   0  0  0  0  0  0  0  0  0  0  0  0
  -15.8497  -42.9808  -11.9017 N   0  0  0  0  0  0  0  0  0  0  0  0
  -16.1845  -42.8969  -10.5026 C   0  0  0  0  0  0  0  0  0  0  0  0
  -17.3273  -42.5356   -9.8419 C   0  0  0  0  0  0  0  0  0  0  0  0
  -17.2604  -42.5124   -8.4626 C   0  0  0  0  0  0  0  0  0  0  0  0
  -16.0466  -42.8630   -7.8149 C   0  0  0  0  0  0  0  0  0  0  0  0
  -14.9064  -43.2283   -8.4945 C   0  0  0  0  0  0  0  0  0  0  0  0
  -13.4397  -43.6517   -7.6395 Cl  0  0  0  0  0  0  0  0  0  0  0  0
  -15.0250  -43.2283   -9.8020 N   0  0  0  0  0  0  0  0  0  0  0  0
  -18.2530  -42.1019   -7.4469 C   0  0  0  0  0  0  0  0  0  0  0  0
  -18.3462  -42.9408   -6.4423 O   0  0  0  0  0  0  0  0  0  0  0  0
  -19.0949  -40.9399   -7.4196 N   0  0  0  0  0  0  0  0  0  0  0  0
  -17.4547  -39.1997  -11.0194 C   0  0  0  0  0  0  0  0  0  0  0  0
  1  2  1  0
  2  3  1  0
  2  4  1  0
  4  5  2  0
  5  6  1  0
  6  7  2  0
  7  8  1  0
  8  9  2  0
  8 10  1  0
 10 11  1  0
 11 12  1  0
 10 13  1  0
 13 14  1  0
 14 15  1  0
 15 16  1  6
 15 17  1  0
 17 18  1  6
 18 19  1  0
 19 20  1  0
 20 21  2  0
 21 22  1  0
 22 23  2  0
 23 24  1  0
 24 25  1  0
 25 26  1  0
 26 27  1  0
 27 28  1  0
 28 29  1  0
 29 30  1  0
 30 31  2  0
 31 32  1  0
 32 33  2  0
 33 34  1  0
 33 35  1  0
 31 36  1  0
 36 37  2  0
 36 38  1  0
 23 39  1  0
  9  4  1  0
 12 10  1  0
 35 29  2  0
 38 17  1  0
 39 19  2  0
M  END
$$$$
