
     RDKit          3D

 39 43  0  0  0  0  0  0  0  0999 V2000
  -12.2726  -34.6677  -11.3869 C   0  0  0  0  0  0  0  0  0  0  0  0
  -13.5751  -35.3477  -11.8101 C   0  0  0  0  0  0  0  0  0  0  0  0
  -13.9308  -34.8543  -13.1996 C   0  0  0  0  0  0  0  0  0  0  0  0
  -13.3494  -36.7949  -11.8037 C   0  0  0  0  0  0  0  0  0  0  0  0
  -12.6171  -37.3756  -12.8074 C   0  0  0  0  0  0  0  0  0  0  0  0
  -12.4048  -38.7272  -12.8049 C   0  0  0  0  0  0  0  0  0  0  0  0
  -12.9232  -39.4526  -11.8120 N   0  0  0  0  0  0  0  0  0  0  0  0
  -13.6567  -38.9066  -10.7975 C   0  0  0  0  0  0  0  0  0  0  0  0
  -13.8782  -37.5575  -10.7853 C   0  0  0  0  0  0  0  0  0  0  0  0
  -14.1597  -39.8589   -9.7706 C   0  0  0  0  0  0  0  0  0  0  0  0
  -13.3095  -40.9663   -9.2637 C   0  0  0  0  0  0  0  0  0  0  0  0
  -14.3828  -41.2389  -10.2723 C   0  0  0  0  0  0  0  0  0  0  0  0
  -15.0855  -39.2357   -8.8414 N   0  0  0  0  0  0  0  0  0  0  0  0
  -16.4107  -39.0771   -9.3937 C   0  0  0  0  0  0  0  0  0  0  0  0
  -17.3749  -38.8604   -8.2357 C   0  0  1  0  0  0  0  0  0  0  0  0
  -18.4917  -38.2064   -8.7009 O   0  0  0  0  0  0  0  0  0  0  0  0
  -17.7448  -40.1710   -7.5735 C   0  0  2  0  0  0  0  0  0  0  0  0
  -18.2627  -39.8871   -6.1954 C   0  0  0  0  0  0  0  0  0  0  0  0
  -19.7504  -39.7291   -6.1255 C   0  0  0  0  0  0  0  0  0  0  0  0
  -20.0701  -38.4536   -5.5800 C   0  0  0  0  0  0  0  0  0  0  0  0
  -21.3406  -38.0326   -5.3316 C   0  0  0  0  0  0  0  0  0  0  0  0
  -22.3217  -38.9378   -5.6469 C   0  0  0  0  0  0  0  0  0  0  0  0
  -22.0636  -40.2173   -6.1910 C   0  0  0  0  0  0  0  0  0  0  0  0
  -23.3278  -40.9727   -6.3844 C   0  0  0  0  0  0  0  0  0  0  0  0
  -23.5186  -42.1440   -5.4347 C   0  0  0  0  0  0  0  0  0  0  0  0
  -22.8415  -43.3643   -6.0295 C   0  0  0  0  0  0  0  0  0  0  0  0
  -21.8134  -43.8494   -5.0707 C   0  0  0  0  0  0  0  0  0  0  0  0
  -20.8074  -44.7333   -5.6220 N   0  0  0  0  0  0  0  0  0  0  0  0
  -19.6962  -44.4090   -6.4802 C   0  0  0  0  0  0  0  0  0  0  0  0
  -18.6908  -43.4851   -6.3873 C   0  0  0  0  0  0  0  0  0  0  0  0
  -17.8175  -43.4154   -7.4551 C   0  0  0  0  0  0  0  0  0  0  0  0
  -17.9947  -44.2867   -8.5619 C   0  0  0  0  0  0  0  0  0  0  0  0
  -19.0094  -45.2139   -8.6379 C   0  0  0  0  0  0  0  0  0  0  0  0
  -19.1751  -46.2623  -10.0291 Cl  0  0  0  0  0  0  0  0  0  0  0  0
  -19.8119  -45.2334   -7.5992 N   0  0  0  0  0  0  0  0  0  0  0  0
  -16.6875  -42.5028   -7.7301 C   0  0  0  0  0  0  0  0  0  0  0  0
  -15.6153  -43.1200   -8.1672 O   0  0  0  0  0  0  0  0  0  0  0  0
  -16.6191  -41.0762   -7.5888 N   0  0  0  0  0  0  0  0  0  0  0  0
  -20.7575  -40.6114   -6.4335 C   0  0  0  0  0  0  0  0  0  0  0  0
  1  2  1  0
  2  3  1  0
  2  4  1  0
  4  5  2  0
  5  6  1  0
  6  7  2  0
  7  8  1  0
  8  9  2  0
  8 10  1  0
 10 11  1  0
 11 12  1  0
 10 13  1  0
 13 14  1  0
 14 15  1  0
 15 16  1  6
 15 17  1  0
 17 18  1  1
 18 19  1  0
 19 20  1  0
 20 21  2  0
 21 22  1  0
 22 23  2  0
 23 24  1  0
 24 25  1  0
 25 26  1  0
 26 27  1  0
 27 28  1  0
 28 29  1  0
 29 30  1  0
 30 31  2  0
 31 32  1  0
 32 33  2  0
 33 34  1  0
 33 35  1  0
 31 36  1  0
 36 37  2  0
 36 38  1  0
 23 39  1  0
  9  4  1  0
 12 10  1  0
 35 29  2  0
 38 17  1  0
 39 19  2  0
M  END
$$$$
