
     RDKit          3D

 39 43  0  0  0  0  0  0  0  0999 V2000
  -13.2105  -36.5483  -14.6914 C   0  0  0  0  0  0  0  0  0  0  0  0
  -12.4466  -36.6029  -13.3679 C   0  0  0  0  0  0  0  0  0  0  0  0
  -11.7939  -35.2514  -13.1480 C   0  0  0  0  0  0  0  0  0  0  0  0
  -13.4086  -36.9054  -12.3057 C   0  0  0  0  0  0  0  0  0  0  0  0
  -14.6005  -36.2291  -12.2518 C   0  0  0  0  0  0  0  0  0  0  0  0
  -15.5012  -36.5089  -11.2607 C   0  0  0  0  0  0  0  0  0  0  0  0
  -15.1905  -37.4449  -10.3617 N   0  0  0  0  0  0  0  0  0  0  0  0
  -14.0132  -38.1368  -10.3862 C   0  0  0  0  0  0  0  0  0  0  0  0
  -13.1022  -37.8694  -11.3701 C   0  0  0  0  0  0  0  0  0  0  0  0
  -13.8277  -39.1467   -9.3092 C   0  0  0  0  0  0  0  0  0  0  0  0
  -12.4721  -39.5570   -8.8619 C   0  0  0  0  0  0  0  0  0  0  0  0
  -13.2664  -40.4411   -9.7734 C   0  0  0  0  0  0  0  0  0  0  0  0
  -14.8834  -39.0967   -8.3133 N   0  0  0  0  0  0  0  0  0  0  0  0
  -16.1399  -38.6309   -8.8527 C   0  0  0  0  0  0  0  0  0  0  0  0
  -17.1497  -38.5925   -7.7141 C   0  0  1  0  0  0  0  0  0  0  0  0
  -18.2555  -37.8838   -8.1217 O   0  0  0  0  0  0  0  0  0  0  0  0
  -17.5293  -39.9885   -7.2665 C   0  0  2  0  0  0  0  0  0  0  0  0
  -18.1189  -39.9112   -5.8901 C   0  0  0  0  0  0  0  0  0  0  0  0
  -19.6107  -39.7793   -5.8741 C   0  0  0  0  0  0  0  0  0  0  0  0
  -19.9783  -38.5989   -5.1683 C   0  0  0  0  0  0  0  0  0  0  0  0
  -21.2664  -38.2306   -4.9271 C   0  0  0  0  0  0  0  0  0  0  0  0
  -22.2154  -39.0903   -5.4185 C   0  0  0  0  0  0  0  0  0  0  0  0
  -21.9094  -40.2755   -6.1267 C   0  0  0  0  0  0  0  0  0  0  0  0
  -23.1496  -41.0073   -6.4906 C   0  0  0  0  0  0  0  0  0  0  0  0
  -23.3667  -42.3051   -5.7297 C   0  0  0  0  0  0  0  0  0  0  0  0
  -22.6408  -43.4203   -6.4581 C   0  0  0  0  0  0  0  0  0  0  0  0
  -21.6528  -44.0286   -5.5277 C   0  0  0  0  0  0  0  0  0  0  0  0
  -20.6062  -44.8140   -6.1481 N   0  0  0  0  0  0  0  0  0  0  0  0
  -19.4599  -44.3586   -6.8932 C   0  0  0  0  0  0  0  0  0  0  0  0
  -18.4761  -43.4479   -6.6176 C   0  0  0  0  0  0  0  0  0  0  0  0
  -17.5528  -43.2166   -7.6185 C   0  0  0  0  0  0  0  0  0  0  0  0
  -17.6607  -43.9210   -8.8465 C   0  0  0  0  0  0  0  0  0  0  0  0
  -18.6547  -44.8374   -9.1063 C   0  0  0  0  0  0  0  0  0  0  0  0
  -18.7342  -45.6759  -10.6400 Cl  0  0  0  0  0  0  0  0  0  0  0  0
  -19.5067  -45.0142   -8.1233 N   0  0  0  0  0  0  0  0  0  0  0  0
  -16.4263  -42.2629   -7.7019 C   0  0  0  0  0  0  0  0  0  0  0  0
  -15.3236  -42.8003   -8.1677 O   0  0  0  0  0  0  0  0  0  0  0  0
  -16.3891  -40.8710   -7.3541 N   0  0  0  0  0  0  0  0  0  0  0  0
  -20.5864  -40.6178   -6.3564 C   0  0  0  0  0  0  0  0  0  0  0  0
  1  2  1  0
  2  3  1  0
  2  4  1  0
  4  5  2  0
  5  6  1  0
  6  7  2  0
  7  8  1  0
  8  9  2  0
  8 10  1  0
 10 11  1  0
 11 12  1  0
 10 13  1  0
 13 14  1  0
 14 15  1  0
 15 16  1  6
 15 17  1  0
 17 18  1  1
 18 19  1  0
 19 20  1  0
 20 21  2  0
 21 22  1  0
 22 23  2  0
 23 24  1  0
 24 25  1  0
 25 26  1  0
 26 27  1  0
 27 28  1  0
 28 29  1  0
 29 30  1  0
 30 31  2  0
 31 32  1  0
 32 33  2  0
 33 34  1  0
 33 35  1  0
 31 36  1  0
 36 37  2  0
 36 38  1  0
 23 39  1  0
  9  4  1  0
 12 10  1  0
 35 29  2  0
 38 17  1  0
 39 19  2  0
M  END
$$$$
