
     RDKit          3D

 39 43  0  0  0  0  0  0  0  0999 V2000
  -21.8499  -41.8109   -9.9862 C   0  0  0  0  0  0  0  0  0  0  0  0
  -22.7873  -41.9052   -8.7819 C   0  0  0  0  0  0  0  0  0  0  0  0
  -22.5855  -43.2632   -8.1368 C   0  0  0  0  0  0  0  0  0  0  0  0
  -22.4416  -40.8232   -7.8572 C   0  0  0  0  0  0  0  0  0  0  0  0
  -23.4212  -39.9823   -7.3944 C   0  0  0  0  0  0  0  0  0  0  0  0
  -23.1018  -38.9702   -6.5310 C   0  0  0  0  0  0  0  0  0  0  0  0
  -21.8284  -38.8276   -6.1581 N   0  0  0  0  0  0  0  0  0  0  0  0
  -20.8288  -39.6469   -6.5998 C   0  0  0  0  0  0  0  0  0  0  0  0
  -21.1312  -40.6631   -7.4630 C   0  0  0  0  0  0  0  0  0  0  0  0
  -19.4653  -39.3484   -6.0841 C   0  0  0  0  0  0  0  0  0  0  0  0
  -19.1379  -39.4902   -4.6423 C   0  0  0  0  0  0  0  0  0  0  0  0
  -19.3852  -38.1353   -5.2309 C   0  0  0  0  0  0  0  0  0  0  0  0
  -18.4259  -39.6614   -7.0487 N   0  0  0  0  0  0  0  0  0  0  0  0
  -17.1517  -39.0715   -6.7096 C   0  0  0  0  0  0  0  0  0  0  0  0
  -16.6735  -38.2723   -7.9139 C   0  0  1  0  0  0  0  0  0  0  0  0
  -15.5204  -37.6031   -7.5763 O   0  0  0  0  0  0  0  0  0  0  0  0
  -16.4549  -39.1656   -9.1170 C   0  0  2  0  0  0  0  0  0  0  0  0
  -16.9207  -38.4439  -10.3459 C   0  0  0  0  0  0  0  0  0  0  0  0
  -15.8424  -37.6748  -11.0448 C   0  0  0  0  0  0  0  0  0  0  0  0
  -16.2174  -36.3047  -11.1392 C   0  0  0  0  0  0  0  0  0  0  0  0
  -15.4748  -35.3581  -11.7760 C   0  0  0  0  0  0  0  0  0  0  0  0
  -14.3109  -35.8174  -12.3378 C   0  0  0  0  0  0  0  0  0  0  0  0
  -13.8877  -37.1653  -12.2752 C   0  0  0  0  0  0  0  0  0  0  0  0
  -12.6105  -37.3516  -13.0101 C   0  0  0  0  0  0  0  0  0  0  0  0
  -12.7318  -38.1417  -14.3029 C   0  0  0  0  0  0  0  0  0  0  0  0
  -12.6194  -39.6194  -13.9791 C   0  0  0  0  0  0  0  0  0  0  0  0
  -13.8590  -40.3003  -14.4389 C   0  0  0  0  0  0  0  0  0  0  0  0
  -14.1086  -41.6062  -13.8647 N   0  0  0  0  0  0  0  0  0  0  0  0
  -14.5525  -41.9350  -12.5338 C   0  0  0  0  0  0  0  0  0  0  0  0
  -15.6106  -41.5100  -11.7770 C   0  0  0  0  0  0  0  0  0  0  0  0
  -15.6865  -42.0062  -10.4903 C   0  0  0  0  0  0  0  0  0  0  0  0
  -14.6963  -42.9140  -10.0309 C   0  0  0  0  0  0  0  0  0  0  0  0
  -13.6399  -43.3349  -10.8068 C   0  0  0  0  0  0  0  0  0  0  0  0
  -12.4509  -44.4578  -10.1844 Cl  0  0  0  0  0  0  0  0  0  0  0  0
  -13.6143  -42.8286  -12.0177 N   0  0  0  0  0  0  0  0  0  0  0  0
  -16.6252  -41.7107   -9.3871 C   0  0  0  0  0  0  0  0  0  0  0  0
  -17.0568  -42.7852   -8.7700 O   0  0  0  0  0  0  0  0  0  0  0  0
  -17.1038  -40.4410   -8.9194 N   0  0  0  0  0  0  0  0  0  0  0  0
  -14.6679  -38.1017  -11.6159 C   0  0  0  0  0  0  0  0  0  0  0  0
  1  2  1  0
  2  3  1  0
  2  4  1  0
  4  5  2  0
  5  6  1  0
  6  7  2  0
  7  8  1  0
  8  9  2  0
  8 10  1  0
 10 11  1  0
 11 12  1  0
 10 13  1  0
 13 14  1  0
 14 15  1  0
 15 16  1  1
 15 17  1  0
 17 18  1  6
 18 19  1  0
 19 20  1  0
 20 21  2  0
 21 22  1  0
 22 23  2  0
 23 24  1  0
 24 25  1  0
 25 26  1  0
 26 27  1  0
 27 28  1  0
 28 29  1  0
 29 30  1  0
 30 31  2  0
 31 32  1  0
 32 33  2  0
 33 34  1  0
 33 35  1  0
 31 36  1  0
 36 37  2  0
 36 38  1  0
 23 39  1  0
  9  4  1  0
 12 10  1  0
 35 29  2  0
 38 17  1  0
 39 19  2  0
M  END
$$$$
