
     RDKit          3D

 39 43  0  0  0  0  0  0  0  0999 V2000
  -17.1739  -37.6263  -12.4338 C   0  0  0  0  0  0  0  0  0  0  0  0
  -16.0479  -36.6078  -12.2530 C   0  0  0  0  0  0  0  0  0  0  0  0
  -16.4723  -35.6270  -11.1766 C   0  0  0  0  0  0  0  0  0  0  0  0
  -14.8407  -37.3374  -11.8584 C   0  0  0  0  0  0  0  0  0  0  0  0
  -13.6991  -37.2247  -12.6101 C   0  0  0  0  0  0  0  0  0  0  0  0
  -12.5699  -37.9052  -12.2448 C   0  0  0  0  0  0  0  0  0  0  0  0
  -12.6113  -38.6701  -11.1521 N   0  0  0  0  0  0  0  0  0  0  0  0
  -13.7309  -38.8046  -10.3814 C   0  0  0  0  0  0  0  0  0  0  0  0
  -14.8678  -38.1314  -10.7327 C   0  0  0  0  0  0  0  0  0  0  0  0
  -13.6040  -39.6964   -9.1969 C   0  0  0  0  0  0  0  0  0  0  0  0
  -12.2736  -40.1071   -8.6798 C   0  0  0  0  0  0  0  0  0  0  0  0
  -13.0884  -41.0547   -9.5054 C   0  0  0  0  0  0  0  0  0  0  0  0
  -14.6727  -39.4964   -8.2342 N   0  0  0  0  0  0  0  0  0  0  0  0
  -15.3576  -38.2371   -8.4120 C   0  0  0  0  0  0  0  0  0  0  0  0
  -16.5492  -38.2174   -7.4648 C   0  0  1  0  0  0  0  0  0  0  0  0
  -17.4512  -37.2755   -7.9014 O   0  0  0  0  0  0  0  0  0  0  0  0
  -17.1932  -39.5840   -7.3603 C   0  0  2  0  0  0  0  0  0  0  0  0
  -17.6602  -39.7918   -5.9508 C   0  0  0  0  0  0  0  0  0  0  0  0
  -19.0832  -39.3883   -5.7159 C   0  0  0  0  0  0  0  0  0  0  0  0
  -19.1381  -38.4109   -4.6823 C   0  0  0  0  0  0  0  0  0  0  0  0
  -20.2966  -37.8883   -4.1945 C   0  0  0  0  0  0  0  0  0  0  0  0
  -21.4400  -38.3748   -4.7751 C   0  0  0  0  0  0  0  0  0  0  0  0
  -21.4463  -39.3443   -5.8047 C   0  0  0  0  0  0  0  0  0  0  0  0
  -22.8371  -39.6915   -6.1934 C   0  0  0  0  0  0  0  0  0  0  0  0
  -23.2809  -41.0863   -5.7834 C   0  0  0  0  0  0  0  0  0  0  0  0
  -22.8643  -42.0642   -6.8657 C   0  0  0  0  0  0  0  0  0  0  0  0
  -21.9734  -43.0893   -6.2597 C   0  0  0  0  0  0  0  0  0  0  0  0
  -21.1656  -43.8494   -7.1909 N   0  0  0  0  0  0  0  0  0  0  0  0
  -19.9992  -43.4274   -7.9243 C   0  0  0  0  0  0  0  0  0  0  0  0
  -18.8250  -42.8382   -7.5409 C   0  0  0  0  0  0  0  0  0  0  0  0
  -17.9412  -42.5112   -8.5507 C   0  0  0  0  0  0  0  0  0  0  0  0
  -18.2801  -42.8019   -9.8984 C   0  0  0  0  0  0  0  0  0  0  0  0
  -19.4645  -43.3991  -10.2671 C   0  0  0  0  0  0  0  0  0  0  0  0
  -19.8250  -43.7339  -11.9463 Cl  0  0  0  0  0  0  0  0  0  0  0  0
  -20.2681  -43.6833   -9.2686 N   0  0  0  0  0  0  0  0  0  0  0  0
  -16.6423  -41.8063   -8.5167 C   0  0  0  0  0  0  0  0  0  0  0  0
  -15.7159  -42.3882   -9.2412 O   0  0  0  0  0  0  0  0  0  0  0  0
  -16.2804  -40.6052   -7.8193 N   0  0  0  0  0  0  0  0  0  0  0  0
  -20.2474  -39.8523   -6.2788 C   0  0  0  0  0  0  0  0  0  0  0  0
  1  2  1  0
  2  3  1  0
  2  4  1  0
  4  5  2  0
  5  6  1  0
  6  7  2  0
  7  8  1  0
  8  9  2  0
  8 10  1  0
 10 11  1  0
 11 12  1  0
 10 13  1  0
 13 14  1  0
 14 15  1  0
 15 16  1  6
 15 17  1  0
 17 18  1  1
 18 19  1  0
 19 20  1  0
 20 21  2  0
 21 22  1  0
 22 23  2  0
 23 24  1  0
 24 25  1  0
 25 26  1  0
 26 27  1  0
 27 28  1  0
 28 29  1  0
 29 30  1  0
 30 31  2  0
 31 32  1  0
 32 33  2  0
 33 34  1  0
 33 35  1  0
 31 36  1  0
 36 37  2  0
 36 38  1  0
 23 39  1  0
  9  4  1  0
 12 10  1  0
 35 29  2  0
 38 17  1  0
 39 19  2  0
M  END
$$$$
