
     RDKit          3D

 39 43  0  0  0  0  0  0  0  0999 V2000
  -16.0136  -35.9814  -11.7831 C   0  0  0  0  0  0  0  0  0  0  0  0
  -14.9932  -36.4599  -12.8164 C   0  0  0  0  0  0  0  0  0  0  0  0
  -13.7673  -35.5731  -12.7092 C   0  0  0  0  0  0  0  0  0  0  0  0
  -14.6659  -37.8549  -12.5124 C   0  0  0  0  0  0  0  0  0  0  0  0
  -14.3504  -38.7189  -13.5297 C   0  0  0  0  0  0  0  0  0  0  0  0
  -14.0446  -40.0226  -13.2495 C   0  0  0  0  0  0  0  0  0  0  0  0
  -14.0621  -40.4226  -11.9765 N   0  0  0  0  0  0  0  0  0  0  0  0
  -14.3717  -39.5888  -10.9399 C   0  0  0  0  0  0  0  0  0  0  0  0
  -14.6796  -38.2830  -11.2029 C   0  0  0  0  0  0  0  0  0  0  0  0
  -14.3428  -40.1976   -9.5824 C   0  0  0  0  0  0  0  0  0  0  0  0
  -13.0755  -40.3152   -8.8168 C   0  0  0  0  0  0  0  0  0  0  0  0
  -13.6503  -41.5097   -9.5141 C   0  0  0  0  0  0  0  0  0  0  0  0
  -15.5642  -39.9502   -8.8368 N   0  0  0  0  0  0  0  0  0  0  0  0
  -15.6871  -38.5777   -8.4035 C   0  0  0  0  0  0  0  0  0  0  0  0
  -17.0068  -38.4415   -7.6570 C   0  0  1  0  0  0  0  0  0  0  0  0
  -17.8916  -37.7368   -8.4392 O   0  0  0  0  0  0  0  0  0  0  0  0
  -17.5693  -39.7960   -7.2798 C   0  0  2  0  0  0  0  0  0  0  0  0
  -18.3924  -39.6480   -6.0354 C   0  0  0  0  0  0  0  0  0  0  0  0
  -19.8471  -39.4036   -6.2941 C   0  0  0  0  0  0  0  0  0  0  0  0
  -20.2445  -38.1855   -5.6735 C   0  0  0  0  0  0  0  0  0  0  0  0
  -21.5223  -37.7163   -5.6746 C   0  0  0  0  0  0  0  0  0  0  0  0
  -22.4296  -38.5111   -6.3276 C   0  0  0  0  0  0  0  0  0  0  0  0
  -22.0926  -39.7293   -6.9617 C   0  0  0  0  0  0  0  0  0  0  0  0
  -23.2986  -40.3722   -7.5434 C   0  0  0  0  0  0  0  0  0  0  0  0
  -23.7513  -41.6350   -6.8289 C   0  0  0  0  0  0  0  0  0  0  0  0
  -22.9936  -42.8156   -7.4062 C   0  0  0  0  0  0  0  0  0  0  0  0
  -22.2425  -43.4789   -6.3072 C   0  0  0  0  0  0  0  0  0  0  0  0
  -21.1645  -44.3529   -6.7212 N   0  0  0  0  0  0  0  0  0  0  0  0
  -19.8695  -43.9997   -7.2455 C   0  0  0  0  0  0  0  0  0  0  0  0
  -18.8847  -43.1609   -6.7986 C   0  0  0  0  0  0  0  0  0  0  0  0
  -17.7791  -43.0192   -7.6141 C   0  0  0  0  0  0  0  0  0  0  0  0
  -17.7155  -43.7368   -8.8376 C   0  0  0  0  0  0  0  0  0  0  0  0
  -18.7135  -44.5803   -9.2708 C   0  0  0  0  0  0  0  0  0  0  0  0
  -18.5767  -45.4396  -10.7889 Cl  0  0  0  0  0  0  0  0  0  0  0  0
  -19.7418  -44.6733   -8.4600 N   0  0  0  0  0  0  0  0  0  0  0  0
  -16.5856  -42.1552   -7.4941 C   0  0  0  0  0  0  0  0  0  0  0  0
  -15.4616  -42.7832   -7.7470 O   0  0  0  0  0  0  0  0  0  0  0  0
  -16.5043  -40.7636   -7.1522 N   0  0  0  0  0  0  0  0  0  0  0  0
  -20.7806  -40.1750   -6.9430 C   0  0  0  0  0  0  0  0  0  0  0  0
  1  2  1  0
  2  3  1  0
  2  4  1  0
  4  5  2  0
  5  6  1  0
  6  7  2  0
  7  8  1  0
  8  9  2  0
  8 10  1  0
 10 11  1  0
 11 12  1  0
 10 13  1  0
 13 14  1  0
 14 15  1  0
 15 16  1  6
 15 17  1  0
 17 18  1  1
 18 19  1  0
 19 20  1  0
 20 21  2  0
 21 22  1  0
 22 23  2  0
 23 24  1  0
 24 25  1  0
 25 26  1  0
 26 27  1  0
 27 28  1  0
 28 29  1  0
 29 30  1  0
 30 31  2  0
 31 32  1  0
 32 33  2  0
 33 34  1  0
 33 35  1  0
 31 36  1  0
 36 37  2  0
 36 38  1  0
 23 39  1  0
  9  4  1  0
 12 10  1  0
 35 29  2  0
 38 17  1  0
 39 19  2  0
M  END
$$$$
