
     RDKit          3D

 39 43  0  0  0  0  0  0  0  0999 V2000
  -23.5317  -37.2150   -5.7249 C   0  0  0  0  0  0  0  0  0  0  0  0
  -23.5897  -37.6382   -7.1931 C   0  0  0  0  0  0  0  0  0  0  0  0
  -22.8284  -36.6094   -8.0073 C   0  0  0  0  0  0  0  0  0  0  0  0
  -22.9738  -38.9625   -7.3039 C   0  0  0  0  0  0  0  0  0  0  0  0
  -23.7664  -40.0771   -7.4058 C   0  0  0  0  0  0  0  0  0  0  0  0
  -23.1944  -41.3157   -7.5090 C   0  0  0  0  0  0  0  0  0  0  0  0
  -21.8631  -41.4058   -7.5077 N   0  0  0  0  0  0  0  0  0  0  0  0
  -21.0448  -40.3167   -7.4078 C   0  0  0  0  0  0  0  0  0  0  0  0
  -21.6003  -39.0719   -7.3040 C   0  0  0  0  0  0  0  0  0  0  0  0
  -19.5832  -40.5956   -7.4229 C   0  0  0  0  0  0  0  0  0  0  0  0
  -19.0230  -41.7325   -8.1974 C   0  0  0  0  0  0  0  0  0  0  0  0
  -19.1896  -41.8393   -6.7128 C   0  0  0  0  0  0  0  0  0  0  0  0
  -18.7859  -39.3860   -7.3228 N   0  0  0  0  0  0  0  0  0  0  0  0
  -17.4159  -39.6482   -6.9476 C   0  0  0  0  0  0  0  0  0  0  0  0
  -16.5205  -38.7718   -7.8122 C   0  0  1  0  0  0  0  0  0  0  0  0
  -15.3850  -38.4568   -7.1032 O   0  0  0  0  0  0  0  0  0  0  0  0
  -16.1770  -39.4547   -9.1195 C   0  0  2  0  0  0  0  0  0  0  0  0
  -16.6655  -38.6030  -10.2526 C   0  0  0  0  0  0  0  0  0  0  0  0
  -15.6406  -37.6471  -10.7806 C   0  0  0  0  0  0  0  0  0  0  0  0
  -16.1394  -36.3165  -10.6947 C   0  0  0  0  0  0  0  0  0  0  0  0
  -15.4675  -35.2245  -11.1519 C   0  0  0  0  0  0  0  0  0  0  0  0
  -14.2466  -35.4914  -11.7171 C   0  0  0  0  0  0  0  0  0  0  0  0
  -13.7009  -36.7912  -11.8289 C   0  0  0  0  0  0  0  0  0  0  0  0
  -12.3869  -36.7536  -12.5204 C   0  0  0  0  0  0  0  0  0  0  0  0
  -12.3882  -37.3515  -13.9179 C   0  0  0  0  0  0  0  0  0  0  0  0
  -12.1485  -38.8452  -13.8053 C   0  0  0  0  0  0  0  0  0  0  0  0
  -13.3018  -39.5570  -14.4177 C   0  0  0  0  0  0  0  0  0  0  0  0
  -13.4472  -40.9503  -14.0504 N   0  0  0  0  0  0  0  0  0  0  0  0
  -13.9043  -41.5101  -12.8037 C   0  0  0  0  0  0  0  0  0  0  0  0
  -15.0235  -41.2964  -12.0456 C   0  0  0  0  0  0  0  0  0  0  0  0
  -15.0972  -41.9821  -10.8489 C   0  0  0  0  0  0  0  0  0  0  0  0
  -14.0426  -42.8572  -10.4778 C   0  0  0  0  0  0  0  0  0  0  0  0
  -12.9248  -43.0641  -11.2543 C   0  0  0  0  0  0  0  0  0  0  0  0
  -11.6579  -44.1577  -10.7435 Cl  0  0  0  0  0  0  0  0  0  0  0  0
  -12.9047  -42.3841  -12.3770 N   0  0  0  0  0  0  0  0  0  0  0  0
  -16.0974  -41.9368   -9.7613 C   0  0  0  0  0  0  0  0  0  0  0  0
  -16.4473  -43.1245   -9.3269 O   0  0  0  0  0  0  0  0  0  0  0  0
  -16.7094  -40.7973   -9.1392 N   0  0  0  0  0  0  0  0  0  0  0  0
  -14.4120  -37.8798  -11.3498 C   0  0  0  0  0  0  0  0  0  0  0  0
  1  2  1  0
  2  3  1  0
  2  4  1  0
  4  5  2  0
  5  6  1  0
  6  7  2  0
  7  8  1  0
  8  9  2  0
  8 10  1  0
 10 11  1  0
 11 12  1  0
 10 13  1  0
 13 14  1  0
 14 15  1  0
 15 16  1  1
 15 17  1  0
 17 18  1  6
 18 19  1  0
 19 20  1  0
 20 21  2  0
 21 22  1  0
 22 23  2  0
 23 24  1  0
 24 25  1  0
 25 26  1  0
 26 27  1  0
 27 28  1  0
 28 29  1  0
 29 30  1  0
 30 31  2  0
 31 32  1  0
 32 33  2  0
 33 34  1  0
 33 35  1  0
 31 36  1  0
 36 37  2  0
 36 38  1  0
 23 39  1  0
  9  4  1  0
 12 10  1  0
 35 29  2  0
 38 17  1  0
 39 19  2  0
M  END
$$$$
