
     RDKit          3D

 39 43  0  0  0  0  0  0  0  0999 V2000
  -12.5536  -44.1227  -10.6847 C   0  0  0  0  0  0  0  0  0  0  0  0
  -12.8446  -42.9114   -9.7980 C   0  0  0  0  0  0  0  0  0  0  0  0
  -11.7538  -42.8276   -8.7473 C   0  0  0  0  0  0  0  0  0  0  0  0
  -12.8507  -41.7208  -10.6511 C   0  0  0  0  0  0  0  0  0  0  0  0
  -12.2878  -41.7739  -11.9006 C   0  0  0  0  0  0  0  0  0  0  0  0
  -12.2913  -40.6636  -12.6999 C   0  0  0  0  0  0  0  0  0  0  0  0
  -12.8501  -39.5445  -12.2349 N   0  0  0  0  0  0  0  0  0  0  0  0
  -13.4191  -39.4573  -10.9963 C   0  0  0  0  0  0  0  0  0  0  0  0
  -13.4239  -40.5578  -10.1851 C   0  0  0  0  0  0  0  0  0  0  0  0
  -13.9979  -38.1345  -10.6362 C   0  0  0  0  0  0  0  0  0  0  0  0
  -14.4568  -37.1835  -11.6807 C   0  0  0  0  0  0  0  0  0  0  0  0
  -13.1426  -36.9740  -10.9934 C   0  0  0  0  0  0  0  0  0  0  0  0
  -14.7329  -38.1723   -9.3843 N   0  0  0  0  0  0  0  0  0  0  0  0
  -16.0897  -37.6946   -9.5174 C   0  0  0  0  0  0  0  0  0  0  0  0
  -16.7636  -37.8223   -8.1583 C   0  0  1  0  0  0  0  0  0  0  0  0
  -17.8577  -36.9899   -8.1225 O   0  0  0  0  0  0  0  0  0  0  0  0
  -17.1576  -39.2559   -7.8708 C   0  0  2  0  0  0  0  0  0  0  0  0
  -17.7462  -39.3285   -6.4937 C   0  0  0  0  0  0  0  0  0  0  0  0
  -19.2365  -39.1841   -6.4610 C   0  0  0  0  0  0  0  0  0  0  0  0
  -19.5918  -38.0872   -5.6258 C   0  0  0  0  0  0  0  0  0  0  0  0
  -20.8759  -37.7353   -5.3428 C   0  0  0  0  0  0  0  0  0  0  0  0
  -21.8338  -38.5242   -5.9269 C   0  0  0  0  0  0  0  0  0  0  0  0
  -21.5402  -39.6248   -6.7649 C   0  0  0  0  0  0  0  0  0  0  0  0
  -22.7880  -40.2981   -7.2076 C   0  0  0  0  0  0  0  0  0  0  0  0
  -23.0185  -41.6712   -6.5978 C   0  0  0  0  0  0  0  0  0  0  0  0
  -22.3042  -42.7044   -7.4485 C   0  0  0  0  0  0  0  0  0  0  0  0
  -21.3225  -43.4240   -6.5941 C   0  0  0  0  0  0  0  0  0  0  0  0
  -20.2841  -44.1450   -7.3007 N   0  0  0  0  0  0  0  0  0  0  0  0
  -19.1333  -43.6201   -7.9911 C   0  0  0  0  0  0  0  0  0  0  0  0
  -18.1401  -42.7566   -7.6157 C   0  0  0  0  0  0  0  0  0  0  0  0
  -17.2146  -42.4232   -8.5852 C   0  0  0  0  0  0  0  0  0  0  0  0
  -17.3300  -42.9832   -9.8848 C   0  0  0  0  0  0  0  0  0  0  0  0
  -18.3334  -43.8541  -10.2451 C   0  0  0  0  0  0  0  0  0  0  0  0
  -18.4219  -44.5131  -11.8637 Cl  0  0  0  0  0  0  0  0  0  0  0  0
  -19.1871  -44.1320   -9.2873 N   0  0  0  0  0  0  0  0  0  0  0  0
  -16.0783  -41.4778   -8.5618 C   0  0  0  0  0  0  0  0  0  0  0  0
  -14.9813  -41.9705   -9.0869 O   0  0  0  0  0  0  0  0  0  0  0  0
  -16.0266  -40.1345   -8.0590 N   0  0  0  0  0  0  0  0  0  0  0  0
  -20.2209  -39.9526   -7.0336 C   0  0  0  0  0  0  0  0  0  0  0  0
  1  2  1  0
  2  3  1  0
  2  4  1  0
  4  5  2  0
  5  6  1  0
  6  7  2  0
  7  8  1  0
  8  9  2  0
  8 10  1  0
 10 11  1  0
 11 12  1  0
 10 13  1  0
 13 14  1  0
 14 15  1  0
 15 16  1  6
 15 17  1  0
 17 18  1  1
 18 19  1  0
 19 20  1  0
 20 21  2  0
 21 22  1  0
 22 23  2  0
 23 24  1  0
 24 25  1  0
 25 26  1  0
 26 27  1  0
 27 28  1  0
 28 29  1  0
 29 30  1  0
 30 31  2  0
 31 32  1  0
 32 33  2  0
 33 34  1  0
 33 35  1  0
 31 36  1  0
 36 37  2  0
 36 38  1  0
 23 39  1  0
  9  4  1  0
 12 10  1  0
 35 29  2  0
 38 17  1  0
 39 19  2  0
M  END
$$$$
