
     RDKit          3D

 39 43  0  0  0  0  0  0  0  0999 V2000
  -13.4709  -35.8215  -13.3559 C   0  0  0  0  0  0  0  0  0  0  0  0
  -12.0271  -35.9211  -12.8625 C   0  0  0  0  0  0  0  0  0  0  0  0
  -11.6873  -34.6285  -12.1453 C   0  0  0  0  0  0  0  0  0  0  0  0
  -11.9398  -37.0684  -11.9561 C   0  0  0  0  0  0  0  0  0  0  0  0
  -10.7408  -37.7109  -11.7823 C   0  0  0  0  0  0  0  0  0  0  0  0
  -10.6558  -38.7832  -10.9368 C   0  0  0  0  0  0  0  0  0  0  0  0
  -11.7572  -39.1792  -10.2959 N   0  0  0  0  0  0  0  0  0  0  0  0
  -12.9665  -38.5622  -10.4459 C   0  0  0  0  0  0  0  0  0  0  0  0
  -13.0684  -37.4893  -11.2871 C   0  0  0  0  0  0  0  0  0  0  0  0
  -14.0916  -39.1317   -9.6560 C   0  0  0  0  0  0  0  0  0  0  0  0
  -13.8536  -40.1377   -8.5895 C   0  0  0  0  0  0  0  0  0  0  0  0
  -14.3681  -40.5651   -9.9296 C   0  0  0  0  0  0  0  0  0  0  0  0
  -15.1708  -38.1798   -9.4607 N   0  0  0  0  0  0  0  0  0  0  0  0
  -15.7325  -38.2358   -8.1311 C   0  0  0  0  0  0  0  0  0  0  0  0
  -17.2414  -38.3826   -8.2689 C   0  0  1  0  0  0  0  0  0  0  0  0
  -17.5983  -38.1217   -9.5712 O   0  0  0  0  0  0  0  0  0  0  0  0
  -17.7028  -39.7600   -7.8410 C   0  0  2  0  0  0  0  0  0  0  0  0
  -18.4256  -39.6429   -6.5326 C   0  0  0  0  0  0  0  0  0  0  0  0
  -19.9071  -39.4720   -6.6695 C   0  0  0  0  0  0  0  0  0  0  0  0
  -20.3111  -38.2700   -6.0224 C   0  0  0  0  0  0  0  0  0  0  0  0
  -21.6062  -37.8640   -5.9183 C   0  0  0  0  0  0  0  0  0  0  0  0
  -22.5244  -38.7073   -6.4901 C   0  0  0  0  0  0  0  0  0  0  0  0
  -22.1815  -39.9125   -7.1458 C   0  0  0  0  0  0  0  0  0  0  0  0
  -23.3986  -40.6182   -7.6221 C   0  0  0  0  0  0  0  0  0  0  0  0
  -23.7272  -41.8961   -6.8676 C   0  0  0  0  0  0  0  0  0  0  0  0
  -22.9627  -43.0426   -7.5020 C   0  0  0  0  0  0  0  0  0  0  0  0
  -22.0907  -43.6597   -6.4673 C   0  0  0  0  0  0  0  0  0  0  0  0
  -21.0091  -44.4830   -6.9668 N   0  0  0  0  0  0  0  0  0  0  0  0
  -19.7814  -44.0710   -7.5990 C   0  0  0  0  0  0  0  0  0  0  0  0
  -18.8055  -43.1815   -7.2391 C   0  0  0  0  0  0  0  0  0  0  0  0
  -17.7801  -42.9922   -8.1448 C   0  0  0  0  0  0  0  0  0  0  0  0
  -17.7833  -43.7153   -9.3667 C   0  0  0  0  0  0  0  0  0  0  0  0
  -18.7711  -44.6100   -9.7118 C   0  0  0  0  0  0  0  0  0  0  0  0
  -18.7190  -45.4733  -11.2329 Cl  0  0  0  0  0  0  0  0  0  0  0  0
  -19.7223  -44.7469   -8.8174 N   0  0  0  0  0  0  0  0  0  0  0  0
  -16.6250  -42.0698   -8.1283 C   0  0  0  0  0  0  0  0  0  0  0  0
  -15.4963  -42.6440   -8.4721 O   0  0  0  0  0  0  0  0  0  0  0  0
  -16.5844  -40.6733   -7.7995 N   0  0  0  0  0  0  0  0  0  0  0  0
  -20.8522  -40.2932   -7.2353 C   0  0  0  0  0  0  0  0  0  0  0  0
  1  2  1  0
  2  3  1  0
  2  4  1  0
  4  5  2  0
  5  6  1  0
  6  7  2  0
  7  8  1  0
  8  9  2  0
  8 10  1  0
 10 11  1  0
 11 12  1  0
 10 13  1  0
 13 14  1  0
 14 15  1  0
 15 16  1  6
 15 17  1  0
 17 18  1  1
 18 19  1  0
 19 20  1  0
 20 21  2  0
 21 22  1  0
 22 23  2  0
 23 24  1  0
 24 25  1  0
 25 26  1  0
 26 27  1  0
 27 28  1  0
 28 29  1  0
 29 30  1  0
 30 31  2  0
 31 32  1  0
 32 33  2  0
 33 34  1  0
 33 35  1  0
 31 36  1  0
 36 37  2  0
 36 38  1  0
 23 39  1  0
  9  4  1  0
 12 10  1  0
 35 29  2  0
 38 17  1  0
 39 19  2  0
M  END
$$$$
