
     RDKit          3D

 39 43  0  0  0  0  0  0  0  0999 V2000
  -12.7842  -36.5115  -14.0852 C   0  0  0  0  0  0  0  0  0  0  0  0
  -12.2472  -36.0400  -12.7335 C   0  0  0  0  0  0  0  0  0  0  0  0
  -11.9159  -34.5644  -12.8503 C   0  0  0  0  0  0  0  0  0  0  0  0
  -13.2892  -36.2709  -11.7304 C   0  0  0  0  0  0  0  0  0  0  0  0
  -14.1608  -35.2624  -11.4074 C   0  0  0  0  0  0  0  0  0  0  0  0
  -15.1350  -35.4745  -10.4705 C   0  0  0  0  0  0  0  0  0  0  0  0
  -15.2110  -36.6733   -9.8892 N   0  0  0  0  0  0  0  0  0  0  0  0
  -14.3597  -37.6989  -10.1873 C   0  0  0  0  0  0  0  0  0  0  0  0
  -13.3806  -37.5034  -11.1213 C   0  0  0  0  0  0  0  0  0  0  0  0
  -14.5851  -38.9697   -9.4468 C   0  0  0  0  0  0  0  0  0  0  0  0
  -13.4994  -39.9700   -9.2833 C   0  0  0  0  0  0  0  0  0  0  0  0
  -14.5778  -40.1854  -10.3001 C   0  0  0  0  0  0  0  0  0  0  0  0
  -15.5356  -38.8178   -8.3594 N   0  0  0  0  0  0  0  0  0  0  0  0
  -16.5088  -37.7796   -8.6079 C   0  0  0  0  0  0  0  0  0  0  0  0
  -17.8058  -38.4507   -9.0377 C   0  0  1  0  0  0  0  0  0  0  0  0
  -17.6427  -38.9699  -10.3008 O   0  0  0  0  0  0  0  0  0  0  0  0
  -18.2232  -39.5246   -8.0549 C   0  0  2  0  0  0  0  0  0  0  0  0
  -18.9872  -38.8843   -6.9350 C   0  0  0  0  0  0  0  0  0  0  0  0
  -20.4699  -38.8628   -7.1447 C   0  0  0  0  0  0  0  0  0  0  0  0
  -20.9405  -37.5202   -7.0908 C   0  0  0  0  0  0  0  0  0  0  0  0
  -22.2534  -37.1732   -7.1849 C   0  0  0  0  0  0  0  0  0  0  0  0
  -23.1200  -38.2252   -7.3384 C   0  0  0  0  0  0  0  0  0  0  0  0
  -22.7102  -39.5773   -7.3991 C   0  0  0  0  0  0  0  0  0  0  0  0
  -23.8836  -40.4786   -7.5292 C   0  0  0  0  0  0  0  0  0  0  0  0
  -24.1816  -41.3141   -6.2950 C   0  0  0  0  0  0  0  0  0  0  0  0
  -23.3537  -42.5837   -6.3587 C   0  0  0  0  0  0  0  0  0  0  0  0
  -22.4873  -42.6447   -5.1514 C   0  0  0  0  0  0  0  0  0  0  0  0
  -21.3595  -43.5495   -5.2324 N   0  0  0  0  0  0  0  0  0  0  0  0
  -20.1319  -43.3948   -5.9712 C   0  0  0  0  0  0  0  0  0  0  0  0
  -19.2034  -42.3909   -6.0281 C   0  0  0  0  0  0  0  0  0  0  0  0
  -18.1611  -42.5655   -6.9172 C   0  0  0  0  0  0  0  0  0  0  0  0
  -18.1001  -43.7480   -7.7005 C   0  0  0  0  0  0  0  0  0  0  0  0
  -19.0406  -44.7507   -7.6282 C   0  0  0  0  0  0  0  0  0  0  0  0
  -18.9102  -46.1871   -8.6190 Cl  0  0  0  0  0  0  0  0  0  0  0  0
  -20.0107  -44.5304   -6.7715 N   0  0  0  0  0  0  0  0  0  0  0  0
  -17.0451  -41.6729   -7.2959 C   0  0  0  0  0  0  0  0  0  0  0  0
  -15.8848  -42.2836   -7.3453 O   0  0  0  0  0  0  0  0  0  0  0  0
  -17.0704  -40.2726   -7.6097 N   0  0  0  0  0  0  0  0  0  0  0  0
  -21.3645  -39.8935   -7.3026 C   0  0  0  0  0  0  0  0  0  0  0  0
  1  2  1  0
  2  3  1  0
  2  4  1  0
  4  5  2  0
  5  6  1  0
  6  7  2  0
  7  8  1  0
  8  9  2  0
  8 10  1  0
 10 11  1  0
 11 12  1  0
 10 13  1  0
 13 14  1  0
 14 15  1  0
 15 16  1  6
 15 17  1  0
 17 18  1  1
 18 19  1  0
 19 20  1  0
 20 21  2  0
 21 22  1  0
 22 23  2  0
 23 24  1  0
 24 25  1  0
 25 26  1  0
 26 27  1  0
 27 28  1  0
 28 29  1  0
 29 30  1  0
 30 31  2  0
 31 32  1  0
 32 33  2  0
 33 34  1  0
 33 35  1  0
 31 36  1  0
 36 37  2  0
 36 38  1  0
 23 39  1  0
  9  4  1  0
 12 10  1  0
 35 29  2  0
 38 17  1  0
 39 19  2  0
M  END
$$$$
