
     RDKit          3D

 39 43  0  0  0  0  0  0  0  0999 V2000
  -23.5985  -42.7352   -6.0810 C   0  0  0  0  0  0  0  0  0  0  0  0
  -22.8929  -42.0613   -4.9037 C   0  0  0  0  0  0  0  0  0  0  0  0
  -21.8202  -43.0067   -4.3974 C   0  0  0  0  0  0  0  0  0  0  0  0
  -22.3090  -40.8080   -5.3872 C   0  0  0  0  0  0  0  0  0  0  0  0
  -22.2882  -39.7057   -4.5715 C   0  0  0  0  0  0  0  0  0  0  0  0
  -21.7440  -38.5334   -5.0201 C   0  0  0  0  0  0  0  0  0  0  0  0
  -21.2416  -38.4947   -6.2557 N   0  0  0  0  0  0  0  0  0  0  0  0
  -21.2462  -39.5733   -7.0937 C   0  0  0  0  0  0  0  0  0  0  0  0
  -21.7863  -40.7524   -6.6608 C   0  0  0  0  0  0  0  0  0  0  0  0
  -20.6446  -39.3577   -8.4375 C   0  0  0  0  0  0  0  0  0  0  0  0
  -21.2993  -38.4840   -9.4444 C   0  0  0  0  0  0  0  0  0  0  0  0
  -21.4047  -39.9740   -9.5548 C   0  0  0  0  0  0  0  0  0  0  0  0
  -19.1930  -39.3866   -8.4071 N   0  0  0  0  0  0  0  0  0  0  0  0
  -18.6451  -38.7479   -7.2330 C   0  0  0  0  0  0  0  0  0  0  0  0
  -17.3352  -38.0832   -7.6331 C   0  0  1  0  0  0  0  0  0  0  0  0
  -16.5254  -37.9898   -6.5254 O   0  0  0  0  0  0  0  0  0  0  0  0
  -16.6496  -38.8431   -8.7492 C   0  0  2  0  0  0  0  0  0  0  0  0
  -17.0152  -38.2121  -10.0592 C   0  0  0  0  0  0  0  0  0  0  0  0
  -16.0460  -37.1689  -10.5231 C   0  0  0  0  0  0  0  0  0  0  0  0
  -16.7286  -35.9343  -10.7147 C   0  0  0  0  0  0  0  0  0  0  0  0
  -16.1346  -34.8063  -11.1920 C   0  0  0  0  0  0  0  0  0  0  0  0
  -14.8012  -34.9351  -11.4862 C   0  0  0  0  0  0  0  0  0  0  0  0
  -14.0721  -36.1348  -11.3158 C   0  0  0  0  0  0  0  0  0  0  0  0
  -12.6648  -35.9639  -11.7588 C   0  0  0  0  0  0  0  0  0  0  0  0
  -12.3075  -36.7058  -13.0365 C   0  0  0  0  0  0  0  0  0  0  0  0
  -11.8935  -38.1198  -12.6752 C   0  0  0  0  0  0  0  0  0  0  0  0
  -12.7945  -39.0710  -13.3789 C   0  0  0  0  0  0  0  0  0  0  0  0
  -12.8185  -40.4200  -12.8527 N   0  0  0  0  0  0  0  0  0  0  0  0
  -13.4330  -40.9038  -11.6424 C   0  0  0  0  0  0  0  0  0  0  0  0
  -14.6988  -40.7896  -11.1346 C   0  0  0  0  0  0  0  0  0  0  0  0
  -14.9141  -41.3409   -9.8867 C   0  0  0  0  0  0  0  0  0  0  0  0
  -13.8447  -41.9887   -9.2139 C   0  0  0  0  0  0  0  0  0  0  0  0
  -12.5776  -42.0986   -9.7408 C   0  0  0  0  0  0  0  0  0  0  0  0
  -11.3001  -42.9111   -8.8635 Cl  0  0  0  0  0  0  0  0  0  0  0  0
  -12.4283  -41.5532  -10.9256 N   0  0  0  0  0  0  0  0  0  0  0  0
  -16.1068  -41.3361   -9.0132 C   0  0  0  0  0  0  0  0  0  0  0  0
  -16.3705  -42.5088   -8.4870 O   0  0  0  0  0  0  0  0  0  0  0  0
  -16.9794  -40.2476   -8.6763 N   0  0  0  0  0  0  0  0  0  0  0  0
  -14.7089  -37.2633  -10.8247 C   0  0  0  0  0  0  0  0  0  0  0  0
  1  2  1  0
  2  3  1  0
  2  4  1  0
  4  5  2  0
  5  6  1  0
  6  7  2  0
  7  8  1  0
  8  9  2  0
  8 10  1  0
 10 11  1  0
 11 12  1  0
 10 13  1  0
 13 14  1  0
 14 15  1  0
 15 16  1  1
 15 17  1  0
 17 18  1  6
 18 19  1  0
 19 20  1  0
 20 21  2  0
 21 22  1  0
 22 23  2  0
 23 24  1  0
 24 25  1  0
 25 26  1  0
 26 27  1  0
 27 28  1  0
 28 29  1  0
 29 30  1  0
 30 31  2  0
 31 32  1  0
 32 33  2  0
 33 34  1  0
 33 35  1  0
 31 36  1  0
 36 37  2  0
 36 38  1  0
 23 39  1  0
  9  4  1  0
 12 10  1  0
 35 29  2  0
 38 17  1  0
 39 19  2  0
M  END
$$$$
