
     RDKit          3D

 39 43  0  0  0  0  0  0  0  0999 V2000
  -14.9607  -35.7286  -11.4663 C   0  0  0  0  0  0  0  0  0  0  0  0
  -13.4954  -35.7600  -11.9021 C   0  0  0  0  0  0  0  0  0  0  0  0
  -12.8493  -34.4589  -11.4657 C   0  0  0  0  0  0  0  0  0  0  0  0
  -12.8588  -36.9101  -11.2561 C   0  0  0  0  0  0  0  0  0  0  0  0
  -11.5048  -37.0948  -11.3724 C   0  0  0  0  0  0  0  0  0  0  0  0
  -10.9069  -38.1682  -10.7707 C   0  0  0  0  0  0  0  0  0  0  0  0
  -11.6684  -39.0173  -10.0779 N   0  0  0  0  0  0  0  0  0  0  0  0
  -13.0188  -38.8631   -9.9422 C   0  0  0  0  0  0  0  0  0  0  0  0
  -13.6317  -37.7957  -10.5372 C   0  0  0  0  0  0  0  0  0  0  0  0
  -13.7158  -39.9009   -9.1351 C   0  0  0  0  0  0  0  0  0  0  0  0
  -12.9948  -40.6875   -8.1020 C   0  0  0  0  0  0  0  0  0  0  0  0
  -13.2988  -41.2940   -9.4372 C   0  0  0  0  0  0  0  0  0  0  0  0
  -15.1070  -39.5681   -8.8847 N   0  0  0  0  0  0  0  0  0  0  0  0
  -15.3476  -39.1593   -7.5203 C   0  0  0  0  0  0  0  0  0  0  0  0
  -16.8362  -38.8751   -7.3751 C   0  0  1  0  0  0  0  0  0  0  0  0
  -17.0969  -37.6090   -7.8447 O   0  0  0  0  0  0  0  0  0  0  0  0
  -17.6687  -39.9102   -8.1022 C   0  0  2  0  0  0  0  0  0  0  0  0
  -18.2889  -40.8282   -7.0920 C   0  0  0  0  0  0  0  0  0  0  0  0
  -19.6587  -40.4118   -6.6522 C   0  0  0  0  0  0  0  0  0  0  0  0
  -19.6748  -40.2396   -5.2391 C   0  0  0  0  0  0  0  0  0  0  0  0
  -20.7908  -39.9220   -4.5272 C   0  0  0  0  0  0  0  0  0  0  0  0
  -21.9312  -39.7747   -5.2749 C   0  0  0  0  0  0  0  0  0  0  0  0
  -21.9746  -39.9328   -6.6796 C   0  0  0  0  0  0  0  0  0  0  0  0
  -23.3577  -39.7476   -7.1884 C   0  0  0  0  0  0  0  0  0  0  0  0
  -24.0251  -41.0182   -7.6887 C   0  0  0  0  0  0  0  0  0  0  0  0
  -23.6479  -41.2222   -9.1438 C   0  0  0  0  0  0  0  0  0  0  0  0
  -22.9666  -42.5375   -9.2762 C   0  0  0  0  0  0  0  0  0  0  0  0
  -22.1878  -42.7231  -10.4829 N   0  0  0  0  0  0  0  0  0  0  0  0
  -20.9113  -42.1505  -10.8281 C   0  0  0  0  0  0  0  0  0  0  0  0
  -19.7080  -42.1055  -10.1774 C   0  0  0  0  0  0  0  0  0  0  0  0
  -18.6977  -41.3981  -10.7990 C   0  0  0  0  0  0  0  0  0  0  0  0
  -18.9463  -40.7770  -12.0512 C   0  0  0  0  0  0  0  0  0  0  0  0
  -20.1620  -40.8354  -12.6947 C   0  0  0  0  0  0  0  0  0  0  0  0
  -20.4071  -40.0501  -14.2390 Cl  0  0  0  0  0  0  0  0  0  0  0  0
  -21.0864  -41.5155  -12.0573 N   0  0  0  0  0  0  0  0  0  0  0  0
  -17.3230  -41.0763  -10.3606 C   0  0  0  0  0  0  0  0  0  0  0  0
  -16.4220  -41.2626  -11.2961 O   0  0  0  0  0  0  0  0  0  0  0  0
  -16.8661  -40.5980   -9.0868 N   0  0  0  0  0  0  0  0  0  0  0  0
  -20.8181  -40.2536   -7.3721 C   0  0  0  0  0  0  0  0  0  0  0  0
  1  2  1  0
  2  3  1  0
  2  4  1  0
  4  5  2  0
  5  6  1  0
  6  7  2  0
  7  8  1  0
  8  9  2  0
  8 10  1  0
 10 11  1  0
 11 12  1  0
 10 13  1  0
 13 14  1  0
 14 15  1  0
 15 16  1  6
 15 17  1  0
 17 18  1  1
 18 19  1  0
 19 20  1  0
 20 21  2  0
 21 22  1  0
 22 23  2  0
 23 24  1  0
 24 25  1  0
 25 26  1  0
 26 27  1  0
 27 28  1  0
 28 29  1  0
 29 30  1  0
 30 31  2  0
 31 32  1  0
 32 33  2  0
 33 34  1  0
 33 35  1  0
 31 36  1  0
 36 37  2  0
 36 38  1  0
 23 39  1  0
  9  4  1  0
 12 10  1  0
 35 29  2  0
 38 17  1  0
 39 19  2  0
M  END
$$$$
