
     RDKit          3D

 39 43  0  0  0  0  0  0  0  0999 V2000
  -12.7599  -34.1440  -12.0335 C   0  0  0  0  0  0  0  0  0  0  0  0
  -13.9068  -35.1512  -12.1229 C   0  0  0  0  0  0  0  0  0  0  0  0
  -14.5557  -35.0019  -13.4858 C   0  0  0  0  0  0  0  0  0  0  0  0
  -13.3426  -36.4916  -11.9490 C   0  0  0  0  0  0  0  0  0  0  0  0
  -12.3933  -36.9513  -12.8256 C   0  0  0  0  0  0  0  0  0  0  0  0
  -11.8645  -38.2030  -12.6664 C   0  0  0  0  0  0  0  0  0  0  0  0
  -12.2931  -38.9520  -11.6486 N   0  0  0  0  0  0  0  0  0  0  0  0
  -13.2365  -38.5253  -10.7578 C   0  0  0  0  0  0  0  0  0  0  0  0
  -13.7750  -37.2770  -10.9028 C   0  0  0  0  0  0  0  0  0  0  0  0
  -13.5993  -39.4867   -9.6815 C   0  0  0  0  0  0  0  0  0  0  0  0
  -12.6135  -40.4669   -9.1586 C   0  0  0  0  0  0  0  0  0  0  0  0
  -13.6724  -40.9026  -10.1242 C   0  0  0  0  0  0  0  0  0  0  0  0
  -14.5681  -38.9373   -8.7495 N   0  0  0  0  0  0  0  0  0  0  0  0
  -15.9294  -39.0709   -9.2139 C   0  0  0  0  0  0  0  0  0  0  0  0
  -16.8454  -38.9868   -8.0009 C   0  0  1  0  0  0  0  0  0  0  0  0
  -17.7734  -37.9936   -8.2101 O   0  0  0  0  0  0  0  0  0  0  0  0
  -17.5187  -40.3149   -7.7251 C   0  0  2  0  0  0  0  0  0  0  0  0
  -18.0744  -40.2952   -6.3327 C   0  0  0  0  0  0  0  0  0  0  0  0
  -19.5017  -39.8486   -6.2539 C   0  0  0  0  0  0  0  0  0  0  0  0
  -19.6023  -38.7207   -5.3911 C   0  0  0  0  0  0  0  0  0  0  0  0
  -20.7789  -38.1189   -5.0649 C   0  0  0  0  0  0  0  0  0  0  0  0
  -21.8932  -38.6814   -5.6333 C   0  0  0  0  0  0  0  0  0  0  0  0
  -21.8538  -39.8002   -6.4973 C   0  0  0  0  0  0  0  0  0  0  0  0
  -23.2243  -40.1932   -6.9140 C   0  0  0  0  0  0  0  0  0  0  0  0
  -23.7169  -41.5027   -6.3200 C   0  0  0  0  0  0  0  0  0  0  0  0
  -23.2524  -42.6416   -7.2079 C   0  0  0  0  0  0  0  0  0  0  0  0
  -22.4185  -43.5660   -6.3944 C   0  0  0  0  0  0  0  0  0  0  0  0
  -21.5690  -44.4692   -7.1427 N   0  0  0  0  0  0  0  0  0  0  0  0
  -20.3527  -44.1768   -7.8580 C   0  0  0  0  0  0  0  0  0  0  0  0
  -19.1938  -43.5440   -7.4980 C   0  0  0  0  0  0  0  0  0  0  0  0
  -18.2444  -43.3866   -8.4887 C   0  0  0  0  0  0  0  0  0  0  0  0
  -18.5055  -43.8824   -9.7933 C   0  0  0  0  0  0  0  0  0  0  0  0
  -19.6756  -44.5207  -10.1381 C   0  0  0  0  0  0  0  0  0  0  0  0
  -19.9388  -45.1119  -11.7638 Cl  0  0  0  0  0  0  0  0  0  0  0  0
  -20.5436  -44.6383   -9.1602 N   0  0  0  0  0  0  0  0  0  0  0  0
  -16.9377  -42.6954   -8.4834 C   0  0  0  0  0  0  0  0  0  0  0  0
  -15.9792  -43.3912   -9.0483 O   0  0  0  0  0  0  0  0  0  0  0  0
  -16.5978  -41.4027   -7.9607 N   0  0  0  0  0  0  0  0  0  0  0  0
  -20.6374  -40.3859   -6.8098 C   0  0  0  0  0  0  0  0  0  0  0  0
  1  2  1  0
  2  3  1  0
  2  4  1  0
  4  5  2  0
  5  6  1  0
  6  7  2  0
  7  8  1  0
  8  9  2  0
  8 10  1  0
 10 11  1  0
 11 12  1  0
 10 13  1  0
 13 14  1  0
 14 15  1  0
 15 16  1  6
 15 17  1  0
 17 18  1  1
 18 19  1  0
 19 20  1  0
 20 21  2  0
 21 22  1  0
 22 23  2  0
 23 24  1  0
 24 25  1  0
 25 26  1  0
 26 27  1  0
 27 28  1  0
 28 29  1  0
 29 30  1  0
 30 31  2  0
 31 32  1  0
 32 33  2  0
 33 34  1  0
 33 35  1  0
 31 36  1  0
 36 37  2  0
 36 38  1  0
 23 39  1  0
  9  4  1  0
 12 10  1  0
 35 29  2  0
 38 17  1  0
 39 19  2  0
M  END
$$$$
