
     RDKit          3D

 39 43  0  0  0  0  0  0  0  0999 V2000
  -16.2418  -36.1911  -12.1794 C   0  0  0  0  0  0  0  0  0  0  0  0
  -14.8339  -36.1950  -12.7758 C   0  0  0  0  0  0  0  0  0  0  0  0
  -14.0787  -35.0117  -12.2011 C   0  0  0  0  0  0  0  0  0  0  0  0
  -14.1938  -37.4604  -12.4091 C   0  0  0  0  0  0  0  0  0  0  0  0
  -13.3477  -38.0785  -13.2940 C   0  0  0  0  0  0  0  0  0  0  0  0
  -12.7485  -39.2608  -12.9549 C   0  0  0  0  0  0  0  0  0  0  0  0
  -13.0076  -39.7867  -11.7562 N   0  0  0  0  0  0  0  0  0  0  0  0
  -13.8446  -39.1977  -10.8516 C   0  0  0  0  0  0  0  0  0  0  0  0
  -14.4514  -38.0160  -11.1749 C   0  0  0  0  0  0  0  0  0  0  0  0
  -14.0216  -39.9180   -9.5616 C   0  0  0  0  0  0  0  0  0  0  0  0
  -12.9274  -40.7359   -8.9786 C   0  0  0  0  0  0  0  0  0  0  0  0
  -14.0691  -41.3971   -9.6876 C   0  0  0  0  0  0  0  0  0  0  0  0
  -14.9000  -39.2108   -8.6467 N   0  0  0  0  0  0  0  0  0  0  0  0
  -15.9152  -38.4415   -9.3279 C   0  0  0  0  0  0  0  0  0  0  0  0
  -17.1040  -38.3031   -8.3871 C   0  0  1  0  0  0  0  0  0  0  0  0
  -18.1423  -37.7075   -9.0643 O   0  0  0  0  0  0  0  0  0  0  0  0
  -17.5186  -39.6451   -7.8213 C   0  0  2  0  0  0  0  0  0  0  0  0
  -17.7445  -39.4989   -6.3463 C   0  0  0  0  0  0  0  0  0  0  0  0
  -19.1633  -39.1945   -5.9756 C   0  0  0  0  0  0  0  0  0  0  0  0
  -19.2136  -37.9789   -5.2364 C   0  0  0  0  0  0  0  0  0  0  0  0
  -20.3549  -37.4632   -4.7031 C   0  0  0  0  0  0  0  0  0  0  0  0
  -21.4853  -38.2071   -4.9267 C   0  0  0  0  0  0  0  0  0  0  0  0
  -21.4955  -39.4203   -5.6533 C   0  0  0  0  0  0  0  0  0  0  0  0
  -22.8612  -40.0032   -5.6869 C   0  0  0  0  0  0  0  0  0  0  0  0
  -23.0322  -41.2665   -4.8590 C   0  0  0  0  0  0  0  0  0  0  0  0
  -22.6347  -42.4590   -5.7083 C   0  0  0  0  0  0  0  0  0  0  0  0
  -21.5257  -43.1773   -5.0258 C   0  0  0  0  0  0  0  0  0  0  0  0
  -20.7560  -44.0795   -5.8569 N   0  0  0  0  0  0  0  0  0  0  0  0
  -19.7806  -43.7609   -6.8688 C   0  0  0  0  0  0  0  0  0  0  0  0
  -18.6633  -42.9706   -6.8643 C   0  0  0  0  0  0  0  0  0  0  0  0
  -17.9901  -42.8489   -8.0642 C   0  0  0  0  0  0  0  0  0  0  0  0
  -18.4709  -43.5367   -9.2093 C   0  0  0  0  0  0  0  0  0  0  0  0
  -19.5949  -44.3316   -9.1958 C   0  0  0  0  0  0  0  0  0  0  0  0
  -20.1376  -45.1561  -10.6405 Cl  0  0  0  0  0  0  0  0  0  0  0  0
  -20.1976  -44.4074   -8.0320 N   0  0  0  0  0  0  0  0  0  0  0  0
  -16.8173  -42.0326   -8.4436 C   0  0  0  0  0  0  0  0  0  0  0  0
  -15.9282  -42.6949   -9.1454 O   0  0  0  0  0  0  0  0  0  0  0  0
  -16.5404  -40.6542   -8.1552 N   0  0  0  0  0  0  0  0  0  0  0  0
  -20.3148  -39.9142   -6.1846 C   0  0  0  0  0  0  0  0  0  0  0  0
  1  2  1  0
  2  3  1  0
  2  4  1  0
  4  5  2  0
  5  6  1  0
  6  7  2  0
  7  8  1  0
  8  9  2  0
  8 10  1  0
 10 11  1  0
 11 12  1  0
 10 13  1  0
 13 14  1  0
 14 15  1  0
 15 16  1  6
 15 17  1  0
 17 18  1  1
 18 19  1  0
 19 20  1  0
 20 21  2  0
 21 22  1  0
 22 23  2  0
 23 24  1  0
 24 25  1  0
 25 26  1  0
 26 27  1  0
 27 28  1  0
 28 29  1  0
 29 30  1  0
 30 31  2  0
 31 32  1  0
 32 33  2  0
 33 34  1  0
 33 35  1  0
 31 36  1  0
 36 37  2  0
 36 38  1  0
 23 39  1  0
  9  4  1  0
 12 10  1  0
 35 29  2  0
 38 17  1  0
 39 19  2  0
M  END
$$$$
