
     RDKit          3D

 39 43  0  0  0  0  0  0  0  0999 V2000
  -10.7339  -34.2834  -10.4792 C   0  0  0  0  0  0  0  0  0  0  0  0
  -12.0360  -34.8710  -11.0245 C   0  0  0  0  0  0  0  0  0  0  0  0
  -12.0345  -34.6944  -12.5310 C   0  0  0  0  0  0  0  0  0  0  0  0
  -12.0782  -36.2883  -10.6574 C   0  0  0  0  0  0  0  0  0  0  0  0
  -10.9664  -36.8881  -10.1235 C   0  0  0  0  0  0  0  0  0  0  0  0
  -11.0021  -38.2120   -9.7800 C   0  0  0  0  0  0  0  0  0  0  0  0
  -12.1333  -38.8919   -9.9767 N   0  0  0  0  0  0  0  0  0  0  0  0
  -13.2580  -38.3257  -10.5059 C   0  0  0  0  0  0  0  0  0  0  0  0
  -13.2390  -37.0038  -10.8545 C   0  0  0  0  0  0  0  0  0  0  0  0
  -14.4326  -39.2267  -10.6566 C   0  0  0  0  0  0  0  0  0  0  0  0
  -14.3192  -40.6882  -10.4176 C   0  0  0  0  0  0  0  0  0  0  0  0
  -14.3502  -40.1518  -11.8156 C   0  0  0  0  0  0  0  0  0  0  0  0
  -15.6808  -38.5766  -10.2983 N   0  0  0  0  0  0  0  0  0  0  0  0
  -16.7614  -39.5134  -10.0949 C   0  0  0  0  0  0  0  0  0  0  0  0
  -17.6680  -38.9497   -9.0096 C   0  0  1  0  0  0  0  0  0  0  0  0
  -18.7635  -38.3659   -9.6017 O   0  0  0  0  0  0  0  0  0  0  0  0
  -18.0850  -40.0236   -8.0267 C   0  0  2  0  0  0  0  0  0  0  0  0
  -18.6350  -39.3658   -6.7967 C   0  0  0  0  0  0  0  0  0  0  0  0
  -20.1202  -39.1748   -6.8218 C   0  0  0  0  0  0  0  0  0  0  0  0
  -20.4271  -37.7944   -6.6568 C   0  0  0  0  0  0  0  0  0  0  0  0
  -21.6945  -37.3045   -6.5750 C   0  0  0  0  0  0  0  0  0  0  0  0
  -22.6860  -38.2482   -6.6628 C   0  0  0  0  0  0  0  0  0  0  0  0
  -22.4409  -39.6312   -6.8274 C   0  0  0  0  0  0  0  0  0  0  0  0
  -23.7154  -40.3936   -6.8484 C   0  0  0  0  0  0  0  0  0  0  0  0
  -23.9583  -41.2571   -5.6213 C   0  0  0  0  0  0  0  0  0  0  0  0
  -23.2918  -42.6026   -5.8369 C   0  0  0  0  0  0  0  0  0  0  0  0
  -22.3019  -42.8202   -4.7486 C   0  0  0  0  0  0  0  0  0  0  0  0
  -21.3004  -43.8347   -5.0036 N   0  0  0  0  0  0  0  0  0  0  0  0
  -20.1587  -43.7730   -5.8807 C   0  0  0  0  0  0  0  0  0  0  0  0
  -19.1364  -42.8725   -6.0110 C   0  0  0  0  0  0  0  0  0  0  0  0
  -18.2322  -43.1099   -7.0277 C   0  0  0  0  0  0  0  0  0  0  0  0
  -18.3973  -44.2488   -7.8593 C   0  0  0  0  0  0  0  0  0  0  0  0
  -19.4296  -45.1477   -7.7121 C   0  0  0  0  0  0  0  0  0  0  0  0
  -19.5792  -46.5349   -8.7681 Cl  0  0  0  0  0  0  0  0  0  0  0  0
  -20.2611  -44.8709   -6.7347 N   0  0  0  0  0  0  0  0  0  0  0  0
  -17.0752  -42.3229   -7.5046 C   0  0  0  0  0  0  0  0  0  0  0  0
  -16.0049  -43.0507   -7.7205 O   0  0  0  0  0  0  0  0  0  0  0  0
  -16.9795  -40.9132   -7.7567 N   0  0  0  0  0  0  0  0  0  0  0  0
  -21.1374  -40.0941   -6.9097 C   0  0  0  0  0  0  0  0  0  0  0  0
  1  2  1  0
  2  3  1  0
  2  4  1  0
  4  5  2  0
  5  6  1  0
  6  7  2  0
  7  8  1  0
  8  9  2  0
  8 10  1  0
 10 11  1  0
 11 12  1  0
 10 13  1  0
 13 14  1  0
 14 15  1  0
 15 16  1  6
 15 17  1  0
 17 18  1  1
 18 19  1  0
 19 20  1  0
 20 21  2  0
 21 22  1  0
 22 23  2  0
 23 24  1  0
 24 25  1  0
 25 26  1  0
 26 27  1  0
 27 28  1  0
 28 29  1  0
 29 30  1  0
 30 31  2  0
 31 32  1  0
 32 33  2  0
 33 34  1  0
 33 35  1  0
 31 36  1  0
 36 37  2  0
 36 38  1  0
 23 39  1  0
  9  4  1  0
 12 10  1  0
 35 29  2  0
 38 17  1  0
 39 19  2  0
M  END
$$$$
