
     RDKit          3D

 39 43  0  0  0  0  0  0  0  0999 V2000
  -19.3005  -41.2346  -10.0127 C   0  0  0  0  0  0  0  0  0  0  0  0
  -20.3357  -42.1990   -9.4328 C   0  0  0  0  0  0  0  0  0  0  0  0
  -19.5986  -43.4152   -8.9053 C   0  0  0  0  0  0  0  0  0  0  0  0
  -21.0462  -41.5029   -8.3577 C   0  0  0  0  0  0  0  0  0  0  0  0
  -22.1512  -42.0792   -7.7853 C   0  0  0  0  0  0  0  0  0  0  0  0
  -22.8175  -41.4315   -6.7811 C   0  0  0  0  0  0  0  0  0  0  0  0
  -22.3674  -40.2407   -6.3813 N   0  0  0  0  0  0  0  0  0  0  0  0
  -21.2708  -39.6386   -6.9295 C   0  0  0  0  0  0  0  0  0  0  0  0
  -20.5936  -40.2725   -7.9338 C   0  0  0  0  0  0  0  0  0  0  0  0
  -20.9051  -38.3112   -6.3649 C   0  0  0  0  0  0  0  0  0  0  0  0
  -21.4828  -37.8328   -5.0830 C   0  0  0  0  0  0  0  0  0  0  0  0
  -22.0041  -37.3124   -6.3871 C   0  0  0  0  0  0  0  0  0  0  0  0
  -19.5373  -37.9340   -6.6741 N   0  0  0  0  0  0  0  0  0  0  0  0
  -18.6704  -39.0746   -6.8587 C   0  0  0  0  0  0  0  0  0  0  0  0
  -17.6376  -38.7083   -7.9155 C   0  0  1  0  0  0  0  0  0  0  0  0
  -16.4591  -38.3733   -7.2908 O   0  0  0  0  0  0  0  0  0  0  0  0
  -17.4318  -39.8396   -8.9009 C   0  0  2  0  0  0  0  0  0  0  0  0
  -17.0618  -39.2590  -10.2328 C   0  0  0  0  0  0  0  0  0  0  0  0
  -15.5856  -39.1407  -10.4557 C   0  0  0  0  0  0  0  0  0  0  0  0
  -15.2515  -37.7848  -10.7326 C   0  0  0  0  0  0  0  0  0  0  0  0
  -13.9947  -37.3618  -11.0398 C   0  0  0  0  0  0  0  0  0  0  0  0
  -13.0430  -38.3490  -11.0681 C   0  0  0  0  0  0  0  0  0  0  0  0
  -13.3163  -39.7106  -10.8013 C   0  0  0  0  0  0  0  0  0  0  0  0
  -12.0887  -40.5336  -10.9495 C   0  0  0  0  0  0  0  0  0  0  0  0
  -12.0854  -41.4559  -12.1576 C   0  0  0  0  0  0  0  0  0  0  0  0
  -12.7643  -42.7574  -11.7746 C   0  0  0  0  0  0  0  0  0  0  0  0
  -13.9264  -42.9687  -12.6783 C   0  0  0  0  0  0  0  0  0  0  0  0
  -14.9150  -43.9216  -12.2182 N   0  0  0  0  0  0  0  0  0  0  0  0
  -15.8952  -43.7689  -11.1730 C   0  0  0  0  0  0  0  0  0  0  0  0
  -16.8438  -42.8146  -10.9228 C   0  0  0  0  0  0  0  0  0  0  0  0
  -17.5798  -42.9666   -9.7640 C   0  0  0  0  0  0  0  0  0  0  0  0
  -17.3301  -44.0784   -8.9171 C   0  0  0  0  0  0  0  0  0  0  0  0
  -16.3743  -45.0322   -9.1856 C   0  0  0  0  0  0  0  0  0  0  0  0
  -16.1139  -46.3822   -8.1033 Cl  0  0  0  0  0  0  0  0  0  0  0  0
  -15.7019  -44.8358  -10.2959 N   0  0  0  0  0  0  0  0  0  0  0  0
  -18.6095  -42.1051   -9.1452 C   0  0  0  0  0  0  0  0  0  0  0  0
  -19.6603  -42.7700   -8.7261 O   0  0  0  0  0  0  0  0  0  0  0  0
  -18.6032  -40.6835   -8.9476 N   0  0  0  0  0  0  0  0  0  0  0  0
  -14.6075  -40.1050  -10.4891 C   0  0  0  0  0  0  0  0  0  0  0  0
  1  2  1  0
  2  3  1  0
  2  4  1  0
  4  5  2  0
  5  6  1  0
  6  7  2  0
  7  8  1  0
  8  9  2  0
  8 10  1  0
 10 11  1  0
 11 12  1  0
 10 13  1  0
 13 14  1  0
 14 15  1  0
 15 16  1  1
 15 17  1  0
 17 18  1  6
 18 19  1  0
 19 20  1  0
 20 21  2  0
 21 22  1  0
 22 23  2  0
 23 24  1  0
 24 25  1  0
 25 26  1  0
 26 27  1  0
 27 28  1  0
 28 29  1  0
 29 30  1  0
 30 31  2  0
 31 32  1  0
 32 33  2  0
 33 34  1  0
 33 35  1  0
 31 36  1  0
 36 37  2  0
 36 38  1  0
 23 39  1  0
  9  4  1  0
 12 10  1  0
 35 29  2  0
 38 17  1  0
 39 19  2  0
M  END
$$$$
