
     RDKit          3D

 39 43  0  0  0  0  0  0  0  0999 V2000
  -15.3184  -35.3543  -11.9723 C   0  0  0  0  0  0  0  0  0  0  0  0
  -14.4828  -36.4560  -12.6248 C   0  0  0  0  0  0  0  0  0  0  0  0
  -13.0188  -36.1031  -12.4427 C   0  0  0  0  0  0  0  0  0  0  0  0
  -14.8091  -37.7205  -11.9616 C   0  0  0  0  0  0  0  0  0  0  0  0
  -15.4465  -38.7132  -12.6610 C   0  0  0  0  0  0  0  0  0  0  0  0
  -15.7533  -39.8953  -12.0444 C   0  0  0  0  0  0  0  0  0  0  0  0
  -15.4191  -40.0516  -10.7620 N   0  0  0  0  0  0  0  0  0  0  0  0
  -14.7842  -39.0841  -10.0365 C   0  0  0  0  0  0  0  0  0  0  0  0
  -14.4706  -37.8970  -10.6377 C   0  0  0  0  0  0  0  0  0  0  0  0
  -14.4840  -39.4234   -8.6191 C   0  0  0  0  0  0  0  0  0  0  0  0
  -13.1320  -39.8774   -8.2045 C   0  0  0  0  0  0  0  0  0  0  0  0
  -14.2425  -40.8681   -8.3731 C   0  0  0  0  0  0  0  0  0  0  0  0
  -15.2445  -38.6160   -7.6817 N   0  0  0  0  0  0  0  0  0  0  0  0
  -16.3272  -37.8972   -8.3124 C   0  0  0  0  0  0  0  0  0  0  0  0
  -17.5909  -38.1556   -7.5037 C   0  0  1  0  0  0  0  0  0  0  0  0
  -18.6527  -37.5422   -8.1264 O   0  0  0  0  0  0  0  0  0  0  0  0
  -17.8411  -39.6391   -7.3308 C   0  0  2  0  0  0  0  0  0  0  0  0
  -18.3321  -39.8871   -5.9360 C   0  0  0  0  0  0  0  0  0  0  0  0
  -19.8241  -39.8829   -5.8068 C   0  0  0  0  0  0  0  0  0  0  0  0
  -20.2183  -38.9016   -4.8537 C   0  0  0  0  0  0  0  0  0  0  0  0
  -21.5072  -38.6950   -4.4678 C   0  0  0  0  0  0  0  0  0  0  0  0
  -22.4292  -39.5133   -5.0692 C   0  0  0  0  0  0  0  0  0  0  0  0
  -22.0962  -40.5038   -6.0221 C   0  0  0  0  0  0  0  0  0  0  0  0
  -23.3072  -41.2464   -6.4558 C   0  0  0  0  0  0  0  0  0  0  0  0
  -23.3794  -42.6835   -5.9660 C   0  0  0  0  0  0  0  0  0  0  0  0
  -22.6348  -43.5675   -6.9486 C   0  0  0  0  0  0  0  0  0  0  0  0
  -21.5423  -44.2672   -6.2216 C   0  0  0  0  0  0  0  0  0  0  0  0
  -20.4930  -44.8247   -7.0496 N   0  0  0  0  0  0  0  0  0  0  0  0
  -19.4380  -44.1377   -7.7506 C   0  0  0  0  0  0  0  0  0  0  0  0
  -18.5007  -43.2237   -7.3516 C   0  0  0  0  0  0  0  0  0  0  0  0
  -17.6712  -42.7224   -8.3356 C   0  0  0  0  0  0  0  0  0  0  0  0
  -17.8207  -43.1731   -9.6736 C   0  0  0  0  0  0  0  0  0  0  0  0
  -18.7666  -44.0967  -10.0578 C   0  0  0  0  0  0  0  0  0  0  0  0
  -18.9012  -44.6148  -11.7236 Cl  0  0  0  0  0  0  0  0  0  0  0  0
  -19.5303  -44.5354   -9.0842 N   0  0  0  0  0  0  0  0  0  0  0  0
  -16.6212  -41.6829   -8.2867 C   0  0  0  0  0  0  0  0  0  0  0  0
  -15.5217  -42.0247   -8.9161 O   0  0  0  0  0  0  0  0  0  0  0  0
  -16.6531  -40.3905   -7.6635 N   0  0  0  0  0  0  0  0  0  0  0  0
  -20.7734  -40.6844   -6.3934 C   0  0  0  0  0  0  0  0  0  0  0  0
  1  2  1  0
  2  3  1  0
  2  4  1  0
  4  5  2  0
  5  6  1  0
  6  7  2  0
  7  8  1  0
  8  9  2  0
  8 10  1  0
 10 11  1  0
 11 12  1  0
 10 13  1  0
 13 14  1  0
 14 15  1  0
 15 16  1  6
 15 17  1  0
 17 18  1  1
 18 19  1  0
 19 20  1  0
 20 21  2  0
 21 22  1  0
 22 23  2  0
 23 24  1  0
 24 25  1  0
 25 26  1  0
 26 27  1  0
 27 28  1  0
 28 29  1  0
 29 30  1  0
 30 31  2  0
 31 32  1  0
 32 33  2  0
 33 34  1  0
 33 35  1  0
 31 36  1  0
 36 37  2  0
 36 38  1  0
 23 39  1  0
  9  4  1  0
 12 10  1  0
 35 29  2  0
 38 17  1  0
 39 19  2  0
M  END
$$$$
