
     RDKit          3D

 39 43  0  0  0  0  0  0  0  0999 V2000
  -19.9145  -36.5609  -10.5584 C   0  0  0  0  0  0  0  0  0  0  0  0
  -21.3592  -36.7572  -10.0978 C   0  0  0  0  0  0  0  0  0  0  0  0
  -22.1290  -37.4033  -11.2339 C   0  0  0  0  0  0  0  0  0  0  0  0
  -21.3404  -37.6189   -8.9135 C   0  0  0  0  0  0  0  0  0  0  0  0
  -22.1037  -37.2940   -7.8213 C   0  0  0  0  0  0  0  0  0  0  0  0
  -22.0882  -38.0964   -6.7132 C   0  0  0  0  0  0  0  0  0  0  0  0
  -21.3203  -39.1876   -6.7263 N   0  0  0  0  0  0  0  0  0  0  0  0
  -20.5484  -39.5401   -7.7966 C   0  0  0  0  0  0  0  0  0  0  0  0
  -20.5525  -38.7492   -8.9118 C   0  0  0  0  0  0  0  0  0  0  0  0
  -19.7533  -40.7887   -7.6443 C   0  0  0  0  0  0  0  0  0  0  0  0
  -20.4089  -42.1210   -7.6098 C   0  0  0  0  0  0  0  0  0  0  0  0
  -19.9387  -41.4777   -6.3416 C   0  0  0  0  0  0  0  0  0  0  0  0
  -18.4450  -40.6934   -8.2672 N   0  0  0  0  0  0  0  0  0  0  0  0
  -17.4853  -39.9898   -7.4483 C   0  0  0  0  0  0  0  0  0  0  0  0
  -16.9107  -38.8509   -8.2792 C   0  0  1  0  0  0  0  0  0  0  0  0
  -16.0757  -38.0977   -7.4875 O   0  0  0  0  0  0  0  0  0  0  0  0
  -16.1828  -39.3722   -9.5006 C   0  0  2  0  0  0  0  0  0  0  0  0
  -16.4665  -38.4616  -10.6575 C   0  0  0  0  0  0  0  0  0  0  0  0
  -15.4535  -37.3732  -10.8373 C   0  0  0  0  0  0  0  0  0  0  0  0
  -16.1001  -36.1059  -10.7873 C   0  0  0  0  0  0  0  0  0  0  0  0
  -15.4594  -34.9203  -10.9792 C   0  0  0  0  0  0  0  0  0  0  0  0
  -14.1152  -35.0237  -11.2316 C   0  0  0  0  0  0  0  0  0  0  0  0
  -13.4203  -36.2539  -11.2924 C   0  0  0  0  0  0  0  0  0  0  0  0
  -11.9885  -36.0349  -11.6213 C   0  0  0  0  0  0  0  0  0  0  0  0
  -11.5797  -36.4934  -13.0116 C   0  0  0  0  0  0  0  0  0  0  0  0
  -11.2138  -37.9643  -12.9478 C   0  0  0  0  0  0  0  0  0  0  0  0
  -12.0955  -38.7122  -13.8831 C   0  0  0  0  0  0  0  0  0  0  0  0
  -12.1742  -40.1417  -13.6649 N   0  0  0  0  0  0  0  0  0  0  0  0
  -12.8610  -40.8567  -12.6191 C   0  0  0  0  0  0  0  0  0  0  0  0
  -14.1491  -40.8158  -12.1585 C   0  0  0  0  0  0  0  0  0  0  0  0
  -14.4406  -41.6172  -11.0721 C   0  0  0  0  0  0  0  0  0  0  0  0
  -13.4213  -42.4281  -10.5072 C   0  0  0  0  0  0  0  0  0  0  0  0
  -12.1307  -42.4607  -10.9854 C   0  0  0  0  0  0  0  0  0  0  0  0
  -10.9176  -43.4830  -10.2471 Cl  0  0  0  0  0  0  0  0  0  0  0  0
  -11.9085  -41.6767  -12.0147 N   0  0  0  0  0  0  0  0  0  0  0  0
  -15.6771  -41.7645  -10.2753 C   0  0  0  0  0  0  0  0  0  0  0  0
  -15.9917  -43.0146  -10.0300 O   0  0  0  0  0  0  0  0  0  0  0  0
  -16.5442  -40.7482   -9.7508 N   0  0  0  0  0  0  0  0  0  0  0  0
  -14.1046  -37.4416  -11.0892 C   0  0  0  0  0  0  0  0  0  0  0  0
  1  2  1  0
  2  3  1  0
  2  4  1  0
  4  5  2  0
  5  6  1  0
  6  7  2  0
  7  8  1  0
  8  9  2  0
  8 10  1  0
 10 11  1  0
 11 12  1  0
 10 13  1  0
 13 14  1  0
 14 15  1  0
 15 16  1  1
 15 17  1  0
 17 18  1  6
 18 19  1  0
 19 20  1  0
 20 21  2  0
 21 22  1  0
 22 23  2  0
 23 24  1  0
 24 25  1  0
 25 26  1  0
 26 27  1  0
 27 28  1  0
 28 29  1  0
 29 30  1  0
 30 31  2  0
 31 32  1  0
 32 33  2  0
 33 34  1  0
 33 35  1  0
 31 36  1  0
 36 37  2  0
 36 38  1  0
 23 39  1  0
  9  4  1  0
 12 10  1  0
 35 29  2  0
 38 17  1  0
 39 19  2  0
M  END
$$$$
