
     RDKit          3D

 39 42  0  0  0  0  0  0  0  0999 V2000
  -19.1422  -38.3993   -5.9552 C   0  0  0  0  0  0  0  0  0  0  0  0
  -19.2351  -39.8792   -6.2515 C   0  0  2  0  0  0  0  0  0  0  0  0
  -19.5498  -40.6451   -4.9731 C   0  0  0  0  0  0  0  0  0  0  0  0
  -20.6492  -40.0668   -4.1796 C   0  0  0  0  0  0  0  0  0  0  0  0
  -22.0020  -40.0349   -4.8049 C   0  0  0  0  0  0  0  0  0  0  0  0
  -22.9866  -40.9864   -4.2224 C   0  0  0  0  0  0  0  0  0  0  0  0
  -24.0835  -41.5234   -4.9982 C   0  0  0  0  0  0  0  0  0  0  0  0
  -24.0672  -41.5540   -6.4761 C   0  0  0  0  0  0  0  0  0  0  0  0
  -23.6811  -42.9519   -7.0081 C   0  0  0  0  0  0  0  0  0  0  0  0
  -22.4229  -43.3638   -6.4051 N   0  0  0  0  0  0  0  0  0  0  0  0
  -21.0996  -43.4930   -6.9305 C   0  0  0  0  0  0  0  0  0  0  0  0
  -20.3871  -42.7202   -7.8174 C   0  0  0  0  0  0  0  0  0  0  0  0
  -19.0874  -43.0899   -8.1151 C   0  0  0  0  0  0  0  0  0  0  0  0
  -18.5387  -44.2434   -7.5030 C   0  0  0  0  0  0  0  0  0  0  0  0
  -19.2170  -45.0374   -6.6159 C   0  0  0  0  0  0  0  0  0  0  0  0
  -20.4964  -44.6394   -6.3468 C   0  0  0  0  0  0  0  0  0  0  0  0
  -18.0879  -42.4599   -9.0005 C   0  0  0  0  0  0  0  0  0  0  0  0
  -17.4540  -43.3636   -9.7446 O   0  0  0  0  0  0  0  0  0  0  0  0
  -17.6920  -41.1266   -9.1984 N   0  0  0  0  0  0  0  0  0  0  0  0
  -17.7372  -39.9937   -8.2965 C   0  0  1  0  0  0  0  0  0  0  0  0
  -17.9511  -40.3609   -6.8743 C   0  0  0  0  0  0  0  0  0  0  0  0
  -16.3589  -39.3110   -8.5139 C   0  0  2  0  0  0  0  0  0  0  0  0
  -16.5044  -38.6272   -9.7129 O   0  0  0  0  0  0  0  0  0  0  0  0
  -15.2105  -40.2025   -8.5347 C   0  0  0  0  0  0  0  0  0  0  0  0
  -14.5764  -40.3510   -9.7552 N   0  0  0  0  0  0  0  0  0  0  0  0
  -13.2907  -39.9604  -10.1007 C   0  0  0  0  0  0  0  0  0  0  0  0
  -12.2333  -40.2371   -9.1082 C   0  0  0  0  0  0  0  0  0  0  0  0
  -11.6654  -41.2496   -9.8699 O   0  0  0  0  0  0  0  0  0  0  0  0
  -12.4530  -40.9035  -10.9206 C   0  0  0  0  0  0  0  0  0  0  0  0
  -13.2559  -38.5524  -10.6029 C   0  0  0  0  0  0  0  0  0  0  0  0
  -13.1833  -38.1660  -11.9062 C   0  0  0  0  0  0  0  0  0  0  0  0
  -13.1819  -36.8238  -12.2872 C   0  0  0  0  0  0  0  0  0  0  0  0
  -13.2568  -35.8810  -11.2978 C   0  0  0  0  0  0  0  0  0  0  0  0
  -13.3301  -36.2554   -9.9720 C   0  0  0  0  0  0  0  0  0  0  0  0
  -13.3308  -37.5741   -9.6074 C   0  0  0  0  0  0  0  0  0  0  0  0
  -13.1000  -36.4170  -13.7060 C   0  0  0  0  0  0  0  0  0  0  0  0
  -14.4040  -36.6201  -14.4269 C   0  0  0  0  0  0  0  0  0  0  0  0
  -11.9602  -37.0685  -14.4368 C   0  0  0  0  0  0  0  0  0  0  0  0
  -12.8334  -34.9085  -13.7396 C   0  0  0  0  0  0  0  0  0  0  0  0
  2  1  1  1
  2  3  1  0
  3  4  1  0
  4  5  1  0
  5  6  1  0
  6  7  1  0
  7  8  1  0
  8  9  1  0
  9 10  1  0
 10 11  1  0
 11 12  1  0
 12 13  2  0
 13 14  1  0
 14 15  2  0
 15 16  1  0
 13 17  1  0
 17 18  2  0
 17 19  1  0
 19 20  1  0
 20 21  1  1
 20 22  1  0
 22 23  1  6
 22 24  1  0
 24 25  1  0
 25 26  1  0
 26 27  1  0
 27 28  1  0
 28 29  1  0
 26 30  1  0
 30 31  2  0
 31 32  1  0
 32 33  2  0
 33 34  1  0
 34 35  2  0
 32 36  1  0
 36 37  1  0
 36 38  1  0
 36 39  1  0
 16 11  2  0
 21  2  1  0
 29 26  1  0
 35 30  1  0
M  END
$$$$
