
     RDKit          3D

 39 42  0  0  0  0  0  0  0  0999 V2000
  -19.9419  -38.6716   -5.9958 C   0  0  0  0  0  0  0  0  0  0  0  0
  -19.8241  -40.1074   -6.4553 C   0  0  2  0  0  0  0  0  0  0  0  0
  -20.4892  -41.0317   -5.4436 C   0  0  0  0  0  0  0  0  0  0  0  0
  -21.8283  -40.5902   -5.0138 C   0  0  0  0  0  0  0  0  0  0  0  0
  -22.8955  -40.5289   -6.0527 C   0  0  0  0  0  0  0  0  0  0  0  0
  -23.9462  -41.5762   -5.9375 C   0  0  0  0  0  0  0  0  0  0  0  0
  -24.6818  -42.0526   -7.0889 C   0  0  0  0  0  0  0  0  0  0  0  0
  -24.1737  -41.9047   -8.4692 C   0  0  0  0  0  0  0  0  0  0  0  0
  -23.5332  -43.2148   -8.9789 C   0  0  0  0  0  0  0  0  0  0  0  0
  -22.5202  -43.6536   -8.0314 N   0  0  0  0  0  0  0  0  0  0  0  0
  -21.0919  -43.6741   -8.0889 C   0  0  0  0  0  0  0  0  0  0  0  0
  -20.1831  -42.7768   -8.5992 C   0  0  0  0  0  0  0  0  0  0  0  0
  -18.8352  -43.0640   -8.4761 C   0  0  0  0  0  0  0  0  0  0  0  0
  -18.4391  -44.2636   -7.8355 C   0  0  0  0  0  0  0  0  0  0  0  0
  -19.3142  -45.1809   -7.3157 C   0  0  0  0  0  0  0  0  0  0  0  0
  -20.6356  -44.8614   -7.4558 C   0  0  0  0  0  0  0  0  0  0  0  0
  -17.6466  -42.2989   -8.9025 C   0  0  0  0  0  0  0  0  0  0  0  0
  -16.7383  -43.0847   -9.4766 O   0  0  0  0  0  0  0  0  0  0  0  0
  -17.3048  -40.9389   -8.8180 N   0  0  0  0  0  0  0  0  0  0  0  0
  -17.7283  -39.9248   -7.8740 C   0  0  1  0  0  0  0  0  0  0  0  0
  -18.3751  -40.4673   -6.6531 C   0  0  0  0  0  0  0  0  0  0  0  0
  -16.4091  -39.1749   -7.5420 C   0  0  2  0  0  0  0  0  0  0  0  0
  -16.8296  -38.0078   -6.9196 O   0  0  0  0  0  0  0  0  0  0  0  0
  -15.5379  -38.9015   -8.6736 C   0  0  0  0  0  0  0  0  0  0  0  0
  -14.3631  -39.6301   -8.7280 N   0  0  0  0  0  0  0  0  0  0  0  0
  -13.6407  -39.9994   -9.8535 C   0  0  0  0  0  0  0  0  0  0  0  0
  -12.2026  -40.2651   -9.6506 C   0  0  0  0  0  0  0  0  0  0  0  0
  -12.3447  -41.6354   -9.8233 O   0  0  0  0  0  0  0  0  0  0  0  0
  -13.6220  -41.4515  -10.2463 C   0  0  0  0  0  0  0  0  0  0  0  0
  -13.9005  -39.0807  -11.0042 C   0  0  0  0  0  0  0  0  0  0  0  0
  -13.7903  -37.7239  -10.9895 C   0  0  0  0  0  0  0  0  0  0  0  0
  -14.0281  -36.9440  -12.1218 C   0  0  0  0  0  0  0  0  0  0  0  0
  -14.3832  -37.5886  -13.2758 C   0  0  0  0  0  0  0  0  0  0  0  0
  -14.5003  -38.9628  -13.3077 C   0  0  0  0  0  0  0  0  0  0  0  0
  -14.2653  -39.7198  -12.1925 C   0  0  0  0  0  0  0  0  0  0  0  0
  -13.9075  -35.4710  -12.0922 C   0  0  0  0  0  0  0  0  0  0  0  0
  -14.1430  -34.8587  -13.4453 C   0  0  0  0  0  0  0  0  0  0  0  0
  -12.6115  -35.0018  -11.4942 C   0  0  0  0  0  0  0  0  0  0  0  0
  -15.0232  -34.9340  -11.1896 C   0  0  0  0  0  0  0  0  0  0  0  0
  2  1  1  1
  2  3  1  0
  3  4  1  0
  4  5  1  0
  5  6  1  0
  6  7  1  0
  7  8  1  0
  8  9  1  0
  9 10  1  0
 10 11  1  0
 11 12  1  0
 12 13  2  0
 13 14  1  0
 14 15  2  0
 15 16  1  0
 13 17  1  0
 17 18  2  0
 17 19  1  0
 19 20  1  0
 20 21  1  1
 20 22  1  0
 22 23  1  6
 22 24  1  0
 24 25  1  0
 25 26  1  0
 26 27  1  0
 27 28  1  0
 28 29  1  0
 26 30  1  0
 30 31  2  0
 31 32  1  0
 32 33  2  0
 33 34  1  0
 34 35  2  0
 32 36  1  0
 36 37  1  0
 36 38  1  0
 36 39  1  0
 16 11  2  0
 21  2  1  0
 29 26  1  0
 35 30  1  0
M  END
$$$$
