
     RDKit          3D

 39 42  0  0  0  0  0  0  0  0999 V2000
  -15.2677  -36.2338   -9.7980 C   0  0  0  0  0  0  0  0  0  0  0  0
  -14.8675  -37.5698  -10.3821 C   0  0  2  0  0  0  0  0  0  0  0  0
  -14.8777  -37.4946  -11.9034 C   0  0  0  0  0  0  0  0  0  0  0  0
  -14.1942  -36.3096  -12.4525 C   0  0  0  0  0  0  0  0  0  0  0  0
  -12.7316  -36.1816  -12.1944 C   0  0  0  0  0  0  0  0  0  0  0  0
  -11.8623  -36.3947  -13.3830 C   0  0  0  0  0  0  0  0  0  0  0  0
  -10.5063  -36.8846  -13.2618 C   0  0  0  0  0  0  0  0  0  0  0  0
  -10.0355  -37.6244  -12.0716 C   0  0  0  0  0  0  0  0  0  0  0  0
  -10.0178  -39.1483  -12.3240 C   0  0  0  0  0  0  0  0  0  0  0  0
  -11.3290  -39.5724  -12.7900 N   0  0  0  0  0  0  0  0  0  0  0  0
  -12.3749  -40.3245  -12.1700 C   0  0  0  0  0  0  0  0  0  0  0  0
  -12.8647  -40.3243  -10.8848 C   0  0  0  0  0  0  0  0  0  0  0  0
  -13.9274  -41.1585  -10.5861 C   0  0  0  0  0  0  0  0  0  0  0  0
  -14.4702  -41.9795  -11.6047 C   0  0  0  0  0  0  0  0  0  0  0  0
  -14.0093  -42.0073  -12.8947 C   0  0  0  0  0  0  0  0  0  0  0  0
  -12.9604  -41.1695  -13.1507 C   0  0  0  0  0  0  0  0  0  0  0  0
  -14.6649  -41.3607   -9.3230 C   0  0  0  0  0  0  0  0  0  0  0  0
  -14.8820  -42.6521   -9.0840 O   0  0  0  0  0  0  0  0  0  0  0  0
  -15.1657  -40.4729   -8.3562 N   0  0  0  0  0  0  0  0  0  0  0  0
  -15.5834  -39.0914   -8.4819 C   0  0  1  0  0  0  0  0  0  0  0  0
  -15.7931  -38.6479   -9.8828 C   0  0  0  0  0  0  0  0  0  0  0  0
  -16.9000  -39.0418   -7.6590 C   0  0  2  0  0  0  0  0  0  0  0  0
  -16.5428  -38.3911   -6.4862 O   0  0  0  0  0  0  0  0  0  0  0  0
  -17.5273  -40.3269   -7.3959 C   0  0  0  0  0  0  0  0  0  0  0  0
  -18.4627  -40.7494   -8.3234 N   0  0  0  0  0  0  0  0  0  0  0  0
  -19.4511  -41.7094   -8.1604 C   0  0  0  0  0  0  0  0  0  0  0  0
  -19.8684  -42.4330   -9.3778 C   0  0  0  0  0  0  0  0  0  0  0  0
  -19.2586  -43.6171   -8.9854 O   0  0  0  0  0  0  0  0  0  0  0  0
  -19.0393  -43.0970   -7.7503 C   0  0  0  0  0  0  0  0  0  0  0  0
  -20.6106  -41.1826   -7.3768 C   0  0  0  0  0  0  0  0  0  0  0  0
  -21.3313  -40.0638   -7.6628 C   0  0  0  0  0  0  0  0  0  0  0  0
  -22.4188  -39.6589   -6.8881 C   0  0  0  0  0  0  0  0  0  0  0  0
  -22.7534  -40.4301   -5.8080 C   0  0  0  0  0  0  0  0  0  0  0  0
  -22.0330  -41.5666   -5.5036 C   0  0  0  0  0  0  0  0  0  0  0  0
  -20.9678  -41.9562   -6.2688 C   0  0  0  0  0  0  0  0  0  0  0  0
  -23.1920  -38.4402   -7.2077 C   0  0  0  0  0  0  0  0  0  0  0  0
  -22.4063  -37.1869   -6.9370 C   0  0  0  0  0  0  0  0  0  0  0  0
  -24.5339  -38.4046   -6.5327 C   0  0  0  0  0  0  0  0  0  0  0  0
  -23.4631  -38.4470   -8.7157 C   0  0  0  0  0  0  0  0  0  0  0  0
  2  1  1  1
  2  3  1  0
  3  4  1  0
  4  5  1  0
  5  6  1  0
  6  7  1  0
  7  8  1  0
  8  9  1  0
  9 10  1  0
 10 11  1  0
 11 12  1  0
 12 13  2  0
 13 14  1  0
 14 15  2  0
 15 16  1  0
 13 17  1  0
 17 18  2  0
 17 19  1  0
 19 20  1  0
 20 21  1  6
 20 22  1  0
 22 23  1  1
 22 24  1  0
 24 25  1  0
 25 26  1  0
 26 27  1  0
 27 28  1  0
 28 29  1  0
 26 30  1  0
 30 31  2  0
 31 32  1  0
 32 33  2  0
 33 34  1  0
 34 35  2  0
 32 36  1  0
 36 37  1  0
 36 38  1  0
 36 39  1  0
 16 11  2  0
 21  2  1  0
 29 26  1  0
 35 30  1  0
M  END
$$$$
