
     RDKit          3D

 39 42  0  0  0  0  0  0  0  0999 V2000
  -14.8880  -36.8502   -8.3977 C   0  0  0  0  0  0  0  0  0  0  0  0
  -15.7982  -37.3414   -9.5007 C   0  0  2  0  0  0  0  0  0  0  0  0
  -16.5343  -36.1646  -10.1281 C   0  0  0  0  0  0  0  0  0  0  0  0
  -15.6679  -35.0183  -10.4569 C   0  0  0  0  0  0  0  0  0  0  0  0
  -14.6034  -35.2349  -11.4777 C   0  0  0  0  0  0  0  0  0  0  0  0
  -14.8397  -34.5639  -12.7846 C   0  0  0  0  0  0  0  0  0  0  0  0
  -14.2978  -35.0841  -14.0213 C   0  0  0  0  0  0  0  0  0  0  0  0
  -13.8830  -36.4949  -14.1720 C   0  0  0  0  0  0  0  0  0  0  0  0
  -14.9651  -37.3280  -14.8940 C   0  0  0  0  0  0  0  0  0  0  0  0
  -16.2349  -37.1670  -14.2026 N   0  0  0  0  0  0  0  0  0  0  0  0
  -17.0023  -38.0490  -13.3798 C   0  0  0  0  0  0  0  0  0  0  0  0
  -16.6304  -38.9626  -12.4214 C   0  0  0  0  0  0  0  0  0  0  0  0
  -17.6238  -39.6604  -11.7575 C   0  0  0  0  0  0  0  0  0  0  0  0
  -18.9796  -39.4142  -12.0853 C   0  0  0  0  0  0  0  0  0  0  0  0
  -19.3883  -38.5132  -13.0333 C   0  0  0  0  0  0  0  0  0  0  0  0
  -18.3788  -37.8436  -13.6659 C   0  0  0  0  0  0  0  0  0  0  0  0
  -17.5353  -40.6741  -10.6876 C   0  0  0  0  0  0  0  0  0  0  0  0
  -18.3560  -41.6976  -10.9137 O   0  0  0  0  0  0  0  0  0  0  0  0
  -16.7715  -40.7581   -9.5116 N   0  0  0  0  0  0  0  0  0  0  0  0
  -16.2056  -39.7100   -8.6869 C   0  0  1  0  0  0  0  0  0  0  0  0
  -16.7635  -38.3610   -8.9558 C   0  0  0  0  0  0  0  0  0  0  0  0
  -16.5201  -40.1857   -7.2420 C   0  0  2  0  0  0  0  0  0  0  0  0
  -15.3176  -40.0345   -6.5657 O   0  0  0  0  0  0  0  0  0  0  0  0
  -17.0419  -41.5377   -7.1234 C   0  0  0  0  0  0  0  0  0  0  0  0
  -18.2460  -41.7838   -7.7584 N   0  0  0  0  0  0  0  0  0  0  0  0
  -18.9589  -42.9734   -7.8021 C   0  0  0  0  0  0  0  0  0  0  0  0
  -19.2328  -43.5238   -9.1444 C   0  0  0  0  0  0  0  0  0  0  0  0
  -18.3337  -44.5708   -8.9914 O   0  0  0  0  0  0  0  0  0  0  0  0
  -18.2006  -44.2664   -7.6746 C   0  0  0  0  0  0  0  0  0  0  0  0
  -20.1802  -42.9188   -6.9412 C   0  0  0  0  0  0  0  0  0  0  0  0
  -20.6024  -41.8490   -6.2128 C   0  0  0  0  0  0  0  0  0  0  0  0
  -21.7733  -41.8782   -5.4547 C   0  0  0  0  0  0  0  0  0  0  0  0
  -22.5062  -43.0341   -5.4594 C   0  0  0  0  0  0  0  0  0  0  0  0
  -22.0922  -44.1278   -6.1913 C   0  0  0  0  0  0  0  0  0  0  0  0
  -20.9424  -44.0904   -6.9320 C   0  0  0  0  0  0  0  0  0  0  0  0
  -22.2196  -40.7105   -4.6658 C   0  0  0  0  0  0  0  0  0  0  0  0
  -23.5613  -40.9411   -4.0269 C   0  0  0  0  0  0  0  0  0  0  0  0
  -22.1975  -39.4301   -5.4518 C   0  0  0  0  0  0  0  0  0  0  0  0
  -21.2308  -40.5286   -3.5094 C   0  0  0  0  0  0  0  0  0  0  0  0
  2  1  1  1
  2  3  1  0
  3  4  1  0
  4  5  1  0
  5  6  1  0
  6  7  1  0
  7  8  1  0
  8  9  1  0
  9 10  1  0
 10 11  1  0
 11 12  1  0
 12 13  2  0
 13 14  1  0
 14 15  2  0
 15 16  1  0
 13 17  1  0
 17 18  2  0
 17 19  1  0
 19 20  1  0
 20 21  1  6
 20 22  1  0
 22 23  1  1
 22 24  1  0
 24 25  1  0
 25 26  1  0
 26 27  1  0
 27 28  1  0
 28 29  1  0
 26 30  1  0
 30 31  2  0
 31 32  1  0
 32 33  2  0
 33 34  1  0
 34 35  2  0
 32 36  1  0
 36 37  1  0
 36 38  1  0
 36 39  1  0
 16 11  2  0
 21  2  1  0
 29 26  1  0
 35 30  1  0
M  END
$$$$
