
     RDKit          3D

 39 42  0  0  0  0  0  0  0  0999 V2000
  -19.4580  -38.2105   -6.3150 C   0  0  0  0  0  0  0  0  0  0  0  0
  -19.5442  -39.4952   -7.1078 C   0  0  2  0  0  0  0  0  0  0  0  0
  -20.4553  -40.4851   -6.3935 C   0  0  0  0  0  0  0  0  0  0  0  0
  -21.7343  -39.9086   -5.9414 C   0  0  0  0  0  0  0  0  0  0  0  0
  -22.6669  -39.4044   -6.9894 C   0  0  0  0  0  0  0  0  0  0  0  0
  -23.8883  -40.2293   -7.1937 C   0  0  0  0  0  0  0  0  0  0  0  0
  -24.5772  -40.2751   -8.4653 C   0  0  0  0  0  0  0  0  0  0  0  0
  -23.9172  -39.9097   -9.7366 C   0  0  0  0  0  0  0  0  0  0  0  0
  -23.4644  -41.1626  -10.5186 C   0  0  0  0  0  0  0  0  0  0  0  0
  -22.6409  -41.9951   -9.6554 N   0  0  0  0  0  0  0  0  0  0  0  0
  -21.2388  -42.2739   -9.6385 C   0  0  0  0  0  0  0  0  0  0  0  0
  -20.1432  -41.4730   -9.8611 C   0  0  0  0  0  0  0  0  0  0  0  0
  -18.8837  -42.0330   -9.7397 C   0  0  0  0  0  0  0  0  0  0  0  0
  -18.7653  -43.4017   -9.3948 C   0  0  0  0  0  0  0  0  0  0  0  0
  -19.8323  -44.2303   -9.1661 C   0  0  0  0  0  0  0  0  0  0  0  0
  -21.0586  -43.6407   -9.2945 C   0  0  0  0  0  0  0  0  0  0  0  0
  -17.5449  -41.4310   -9.8986 C   0  0  0  0  0  0  0  0  0  0  0  0
  -16.7331  -42.2201  -10.5989 O   0  0  0  0  0  0  0  0  0  0  0  0
  -16.9842  -40.2190   -9.4623 N   0  0  0  0  0  0  0  0  0  0  0  0
  -17.3183  -39.3909   -8.3214 C   0  0  1  0  0  0  0  0  0  0  0  0
  -18.1664  -40.0690   -7.3094 C   0  0  0  0  0  0  0  0  0  0  0  0
  -15.9291  -39.0050   -7.7433 C   0  0  2  0  0  0  0  0  0  0  0  0
  -16.1189  -37.7313   -7.2258 O   0  0  0  0  0  0  0  0  0  0  0  0
  -14.8212  -39.0479   -8.6840 C   0  0  0  0  0  0  0  0  0  0  0  0
  -14.3617  -40.3068   -9.0271 N   0  0  0  0  0  0  0  0  0  0  0  0
  -13.2424  -40.6293   -9.7809 C   0  0  0  0  0  0  0  0  0  0  0  0
  -11.9570  -40.6795   -9.0562 C   0  0  0  0  0  0  0  0  0  0  0  0
  -11.8719  -42.0634   -9.1311 O   0  0  0  0  0  0  0  0  0  0  0  0
  -12.9193  -42.0829   -9.9953 C   0  0  0  0  0  0  0  0  0  0  0  0
  -13.1663  -39.8173  -11.0342 C   0  0  0  0  0  0  0  0  0  0  0  0
  -12.9166  -38.4814  -11.1118 C   0  0  0  0  0  0  0  0  0  0  0  0
  -12.8376  -37.8070  -12.3307 C   0  0  0  0  0  0  0  0  0  0  0  0
  -13.0212  -38.5358  -13.4746 C   0  0  0  0  0  0  0  0  0  0  0  0
  -13.2759  -39.8902  -13.4138 C   0  0  0  0  0  0  0  0  0  0  0  0
  -13.3518  -40.5435  -12.2140 C   0  0  0  0  0  0  0  0  0  0  0  0
  -12.5683  -36.3552  -12.4015 C   0  0  0  0  0  0  0  0  0  0  0  0
  -12.5942  -35.8453  -13.8160 C   0  0  0  0  0  0  0  0  0  0  0  0
  -11.3012  -35.9600  -11.6975 C   0  0  0  0  0  0  0  0  0  0  0  0
  -13.7115  -35.6373  -11.6765 C   0  0  0  0  0  0  0  0  0  0  0  0
  2  1  1  1
  2  3  1  0
  3  4  1  0
  4  5  1  0
  5  6  1  0
  6  7  1  0
  7  8  1  0
  8  9  1  0
  9 10  1  0
 10 11  1  0
 11 12  1  0
 12 13  2  0
 13 14  1  0
 14 15  2  0
 15 16  1  0
 13 17  1  0
 17 18  2  0
 17 19  1  0
 19 20  1  0
 20 21  1  1
 20 22  1  0
 22 23  1  6
 22 24  1  0
 24 25  1  0
 25 26  1  0
 26 27  1  0
 27 28  1  0
 28 29  1  0
 26 30  1  0
 30 31  2  0
 31 32  1  0
 32 33  2  0
 33 34  1  0
 34 35  2  0
 32 36  1  0
 36 37  1  0
 36 38  1  0
 36 39  1  0
 16 11  2  0
 21  2  1  0
 29 26  1  0
 35 30  1  0
M  END
$$$$
