
     RDKit          3D

 39 42  0  0  0  0  0  0  0  0999 V2000
  -19.5358  -38.1658   -7.8632 C   0  0  0  0  0  0  0  0  0  0  0  0
  -19.7669  -39.5221   -7.2361 C   0  0  2  0  0  0  0  0  0  0  0  0
  -20.7607  -39.3999   -6.0882 C   0  0  0  0  0  0  0  0  0  0  0  0
  -21.9659  -38.6168   -6.4157 C   0  0  0  0  0  0  0  0  0  0  0  0
  -22.8613  -39.1511   -7.4809 C   0  0  0  0  0  0  0  0  0  0  0  0
  -24.1640  -39.6844   -6.9984 C   0  0  0  0  0  0  0  0  0  0  0  0
  -24.8773  -40.7225   -7.7104 C   0  0  0  0  0  0  0  0  0  0  0  0
  -24.2070  -41.6325   -8.6633 C   0  0  0  0  0  0  0  0  0  0  0  0
  -23.8986  -43.0009   -8.0162 C   0  0  0  0  0  0  0  0  0  0  0  0
  -23.1484  -42.7921   -6.7874 N   0  0  0  0  0  0  0  0  0  0  0  0
  -21.7820  -43.0298   -6.4408 C   0  0  0  0  0  0  0  0  0  0  0  0
  -20.6148  -42.8574   -7.1474 C   0  0  0  0  0  0  0  0  0  0  0  0
  -19.4169  -43.1510   -6.5202 C   0  0  0  0  0  0  0  0  0  0  0  0
  -19.4321  -43.6172   -5.1828 C   0  0  0  0  0  0  0  0  0  0  0  0
  -20.5736  -43.8016   -4.4476 C   0  0  0  0  0  0  0  0  0  0  0  0
  -21.7356  -43.5002   -5.1008 C   0  0  0  0  0  0  0  0  0  0  0  0
  -18.0269  -43.0511   -7.0080 C   0  0  0  0  0  0  0  0  0  0  0  0
  -17.3127  -44.1239   -6.6750 O   0  0  0  0  0  0  0  0  0  0  0  0
  -17.3377  -42.0660   -7.7349 N   0  0  0  0  0  0  0  0  0  0  0  0
  -17.5646  -40.6378   -7.8224 C   0  0  1  0  0  0  0  0  0  0  0  0
  -18.4586  -40.1014   -6.7659 C   0  0  0  0  0  0  0  0  0  0  0  0
  -16.1330  -40.0435   -7.7218 C   0  0  2  0  0  0  0  0  0  0  0  0
  -16.2059  -39.1619   -6.6524 O   0  0  0  0  0  0  0  0  0  0  0  0
  -15.6336  -39.3963   -8.9243 C   0  0  0  0  0  0  0  0  0  0  0  0
  -14.3211  -38.9609   -8.8815 N   0  0  0  0  0  0  0  0  0  0  0  0
  -13.3468  -39.0941   -9.8603 C   0  0  0  0  0  0  0  0  0  0  0  0
  -11.9449  -39.0385   -9.4006 C   0  0  0  0  0  0  0  0  0  0  0  0
  -11.7319  -40.3937   -9.6151 O   0  0  0  0  0  0  0  0  0  0  0  0
  -12.9224  -40.4802  -10.2627 C   0  0  0  0  0  0  0  0  0  0  0  0
  -13.6072  -38.1953  -11.0266 C   0  0  0  0  0  0  0  0  0  0  0  0
  -12.7262  -37.3131  -11.5731 C   0  0  0  0  0  0  0  0  0  0  0  0
  -13.0467  -36.5292  -12.6820 C   0  0  0  0  0  0  0  0  0  0  0  0
  -14.2967  -36.6701  -13.2214 C   0  0  0  0  0  0  0  0  0  0  0  0
  -15.2018  -37.5589  -12.6794 C   0  0  0  0  0  0  0  0  0  0  0  0
  -14.8791  -38.3237  -11.5917 C   0  0  0  0  0  0  0  0  0  0  0  0
  -12.0819  -35.5727  -13.2646 C   0  0  0  0  0  0  0  0  0  0  0  0
  -12.4565  -35.1773  -14.6663 C   0  0  0  0  0  0  0  0  0  0  0  0
  -10.6612  -36.0562  -13.1907 C   0  0  0  0  0  0  0  0  0  0  0  0
  -12.1479  -34.2864  -12.4347 C   0  0  0  0  0  0  0  0  0  0  0  0
  2  1  1  1
  2  3  1  0
  3  4  1  0
  4  5  1  0
  5  6  1  0
  6  7  1  0
  7  8  1  0
  8  9  1  0
  9 10  1  0
 10 11  1  0
 11 12  1  0
 12 13  2  0
 13 14  1  0
 14 15  2  0
 15 16  1  0
 13 17  1  0
 17 18  2  0
 17 19  1  0
 19 20  1  0
 20 21  1  1
 20 22  1  0
 22 23  1  1
 22 24  1  0
 24 25  1  0
 25 26  1  0
 26 27  1  0
 27 28  1  0
 28 29  1  0
 26 30  1  0
 30 31  2  0
 31 32  1  0
 32 33  2  0
 33 34  1  0
 34 35  2  0
 32 36  1  0
 36 37  1  0
 36 38  1  0
 36 39  1  0
 16 11  2  0
 21  2  1  0
 29 26  1  0
 35 30  1  0
M  END
$$$$
