
     RDKit          3D

 39 42  0  0  0  0  0  0  0  0999 V2000
  -13.9943  -37.4876   -9.0274 C   0  0  0  0  0  0  0  0  0  0  0  0
  -15.4205  -37.2882   -9.4884 C   0  0  2  0  0  0  0  0  0  0  0  0
  -15.6816  -35.8089   -9.7413 C   0  0  0  0  0  0  0  0  0  0  0  0
  -14.6371  -35.1406  -10.5383 C   0  0  0  0  0  0  0  0  0  0  0  0
  -14.4357  -35.6134  -11.9376 C   0  0  0  0  0  0  0  0  0  0  0  0
  -14.8931  -34.6688  -12.9924 C   0  0  0  0  0  0  0  0  0  0  0  0
  -15.3259  -35.1269  -14.2949 C   0  0  0  0  0  0  0  0  0  0  0  0
  -15.7796  -36.5130  -14.5357 C   0  0  0  0  0  0  0  0  0  0  0  0
  -17.3213  -36.6070  -14.5584 C   0  0  0  0  0  0  0  0  0  0  0  0
  -17.8552  -36.0256  -13.3364 N   0  0  0  0  0  0  0  0  0  0  0  0
  -18.4667  -36.6048  -12.1812 C   0  0  0  0  0  0  0  0  0  0  0  0
  -18.1908  -37.7542  -11.4783 C   0  0  0  0  0  0  0  0  0  0  0  0
  -18.9532  -38.0399  -10.3595 C   0  0  0  0  0  0  0  0  0  0  0  0
  -19.9853  -37.1474   -9.9792 C   0  0  0  0  0  0  0  0  0  0  0  0
  -20.2897  -35.9943  -10.6539 C   0  0  0  0  0  0  0  0  0  0  0  0
  -19.5145  -35.7465  -11.7518 C   0  0  0  0  0  0  0  0  0  0  0  0
  -18.8828  -39.1695   -9.4114 C   0  0  0  0  0  0  0  0  0  0  0  0
  -20.0930  -39.6441   -9.1243 O   0  0  0  0  0  0  0  0  0  0  0  0
  -17.8112  -39.8172   -8.7745 N   0  0  0  0  0  0  0  0  0  0  0  0
  -16.4968  -39.3221   -8.4192 C   0  0  1  0  0  0  0  0  0  0  0  0
  -16.3749  -37.8434   -8.4642 C   0  0  0  0  0  0  0  0  0  0  0  0
  -16.2854  -39.8739   -6.9826 C   0  0  2  0  0  0  0  0  0  0  0  0
  -14.9060  -39.9219   -6.8371 O   0  0  0  0  0  0  0  0  0  0  0  0
  -16.9045  -41.1597   -6.7042 C   0  0  0  0  0  0  0  0  0  0  0  0
  -17.6084  -41.7355   -7.7467 N   0  0  0  0  0  0  0  0  0  0  0  0
  -18.3702  -42.8949   -7.7229 C   0  0  0  0  0  0  0  0  0  0  0  0
  -18.1615  -43.8386   -8.8390 C   0  0  0  0  0  0  0  0  0  0  0  0
  -17.5067  -44.7682   -8.0421 O   0  0  0  0  0  0  0  0  0  0  0  0
  -17.8604  -44.0692   -6.9329 C   0  0  0  0  0  0  0  0  0  0  0  0
  -19.8160  -42.6024   -7.4779 C   0  0  0  0  0  0  0  0  0  0  0  0
  -20.3855  -42.3194   -6.2743 C   0  0  0  0  0  0  0  0  0  0  0  0
  -21.7443  -42.0322   -6.1413 C   0  0  0  0  0  0  0  0  0  0  0  0
  -22.5110  -42.0412   -7.2751 C   0  0  0  0  0  0  0  0  0  0  0  0
  -21.9499  -42.3267   -8.5026 C   0  0  0  0  0  0  0  0  0  0  0  0
  -20.6163  -42.6075   -8.6238 C   0  0  0  0  0  0  0  0  0  0  0  0
  -22.3514  -41.7290   -4.8280 C   0  0  0  0  0  0  0  0  0  0  0  0
  -23.7720  -41.2538   -4.9596 C   0  0  0  0  0  0  0  0  0  0  0  0
  -21.5269  -40.7776   -4.0077 C   0  0  0  0  0  0  0  0  0  0  0  0
  -22.4197  -43.0395   -4.0369 C   0  0  0  0  0  0  0  0  0  0  0  0
  2  1  1  1
  2  3  1  0
  3  4  1  0
  4  5  1  0
  5  6  1  0
  6  7  1  0
  7  8  1  0
  8  9  1  0
  9 10  1  0
 10 11  1  0
 11 12  1  0
 12 13  2  0
 13 14  1  0
 14 15  2  0
 15 16  1  0
 13 17  1  0
 17 18  2  0
 17 19  1  0
 19 20  1  0
 20 21  1  1
 20 22  1  0
 22 23  1  6
 22 24  1  0
 24 25  1  0
 25 26  1  0
 26 27  1  0
 27 28  1  0
 28 29  1  0
 26 30  1  0
 30 31  2  0
 31 32  1  0
 32 33  2  0
 33 34  1  0
 34 35  2  0
 32 36  1  0
 36 37  1  0
 36 38  1  0
 36 39  1  0
 16 11  2  0
 21  2  1  0
 29 26  1  0
 35 30  1  0
M  END
$$$$
