
     RDKit          3D

 39 42  0  0  0  0  0  0  0  0999 V2000
  -19.0378  -38.8096   -5.2142 C   0  0  0  0  0  0  0  0  0  0  0  0
  -19.1445  -40.0458   -6.0783 C   0  0  2  0  0  0  0  0  0  0  0  0
  -20.0381  -41.0765   -5.4007 C   0  0  0  0  0  0  0  0  0  0  0  0
  -21.3052  -40.5284   -4.8840 C   0  0  0  0  0  0  0  0  0  0  0  0
  -22.2631  -39.9646   -5.8773 C   0  0  0  0  0  0  0  0  0  0  0  0
  -23.4898  -40.7771   -6.0991 C   0  0  0  0  0  0  0  0  0  0  0  0
  -24.2101  -40.7492   -7.3537 C   0  0  0  0  0  0  0  0  0  0  0  0
  -23.5816  -40.3096   -8.6174 C   0  0  0  0  0  0  0  0  0  0  0  0
  -23.1492  -41.5142   -9.4824 C   0  0  0  0  0  0  0  0  0  0  0  0
  -22.3050  -42.3950   -8.6899 N   0  0  0  0  0  0  0  0  0  0  0  0
  -20.9031  -42.6733   -8.7242 C   0  0  0  0  0  0  0  0  0  0  0  0
  -19.8129  -41.8598   -8.9267 C   0  0  0  0  0  0  0  0  0  0  0  0
  -18.5512  -42.4249   -8.8696 C   0  0  0  0  0  0  0  0  0  0  0  0
  -18.4251  -43.8113   -8.6083 C   0  0  0  0  0  0  0  0  0  0  0  0
  -19.4866  -44.6528   -8.4020 C   0  0  0  0  0  0  0  0  0  0  0  0
  -20.7153  -44.0577   -8.4652 C   0  0  0  0  0  0  0  0  0  0  0  0
  -17.2163  -41.8136   -9.0263 C   0  0  0  0  0  0  0  0  0  0  0  0
  -16.4227  -42.5598   -9.7914 O   0  0  0  0  0  0  0  0  0  0  0  0
  -16.6442  -40.6287   -8.5339 N   0  0  0  0  0  0  0  0  0  0  0  0
  -16.9493  -39.8690   -7.3386 C   0  0  1  0  0  0  0  0  0  0  0  0
  -17.7724  -40.6057   -6.3472 C   0  0  0  0  0  0  0  0  0  0  0  0
  -15.5459  -39.5163   -6.7736 C   0  0  2  0  0  0  0  0  0  0  0  0
  -15.6048  -38.1481   -6.5485 O   0  0  0  0  0  0  0  0  0  0  0  0
  -14.4181  -39.8785   -7.6168 C   0  0  0  0  0  0  0  0  0  0  0  0
  -14.0407  -38.9436   -8.5641 N   0  0  0  0  0  0  0  0  0  0  0  0
  -13.9432  -39.1136   -9.9376 C   0  0  0  0  0  0  0  0  0  0  0  0
  -12.6347  -39.5663  -10.4503 C   0  0  0  0  0  0  0  0  0  0  0  0
  -13.1010  -40.8367  -10.7614 O   0  0  0  0  0  0  0  0  0  0  0  0
  -14.3749  -40.4284  -10.5277 C   0  0  0  0  0  0  0  0  0  0  0  0
  -14.4757  -37.9306  -10.6811 C   0  0  0  0  0  0  0  0  0  0  0  0
  -15.7860  -37.6678  -10.9399 C   0  0  0  0  0  0  0  0  0  0  0  0
  -16.1963  -36.5214  -11.6213 C   0  0  0  0  0  0  0  0  0  0  0  0
  -15.2290  -35.6455  -12.0339 C   0  0  0  0  0  0  0  0  0  0  0  0
  -13.8964  -35.8970  -11.7806 C   0  0  0  0  0  0  0  0  0  0  0  0
  -13.5030  -37.0238  -11.1117 C   0  0  0  0  0  0  0  0  0  0  0  0
  -17.6225  -36.2487  -11.8985 C   0  0  0  0  0  0  0  0  0  0  0  0
  -18.2167  -35.2895  -10.9045 C   0  0  0  0  0  0  0  0  0  0  0  0
  -18.4458  -37.5002  -12.0150 C   0  0  0  0  0  0  0  0  0  0  0  0
  -17.7031  -35.5464  -13.2580 C   0  0  0  0  0  0  0  0  0  0  0  0
  2  1  1  1
  2  3  1  0
  3  4  1  0
  4  5  1  0
  5  6  1  0
  6  7  1  0
  7  8  1  0
  8  9  1  0
  9 10  1  0
 10 11  1  0
 11 12  1  0
 12 13  2  0
 13 14  1  0
 14 15  2  0
 15 16  1  0
 13 17  1  0
 17 18  2  0
 17 19  1  0
 19 20  1  0
 20 21  1  1
 20 22  1  0
 22 23  1  6
 22 24  1  0
 24 25  1  0
 25 26  1  0
 26 27  1  0
 27 28  1  0
 28 29  1  0
 26 30  1  0
 30 31  2  0
 31 32  1  0
 32 33  2  0
 33 34  1  0
 34 35  2  0
 32 36  1  0
 36 37  1  0
 36 38  1  0
 36 39  1  0
 16 11  2  0
 21  2  1  0
 29 26  1  0
 35 30  1  0
M  END
$$$$
