
     RDKit          3D

 39 42  0  0  0  0  0  0  0  0999 V2000
  -19.9151  -38.4821   -6.1566 C   0  0  0  0  0  0  0  0  0  0  0  0
  -19.6846  -39.9585   -6.3879 C   0  0  2  0  0  0  0  0  0  0  0  0
  -19.9278  -40.7296   -5.0970 C   0  0  0  0  0  0  0  0  0  0  0  0
  -21.1754  -40.3633   -4.4025 C   0  0  0  0  0  0  0  0  0  0  0  0
  -22.4585  -40.6310   -5.1125 C   0  0  0  0  0  0  0  0  0  0  0  0
  -23.2686  -41.7445   -4.5488 C   0  0  0  0  0  0  0  0  0  0  0  0
  -24.1758  -42.5211   -5.3658 C   0  0  0  0  0  0  0  0  0  0  0  0
  -24.0483  -42.5971   -6.8366 C   0  0  0  0  0  0  0  0  0  0  0  0
  -23.3499  -43.9028   -7.2765 C   0  0  0  0  0  0  0  0  0  0  0  0
  -22.0806  -44.0270   -6.5767 N   0  0  0  0  0  0  0  0  0  0  0  0
  -20.7245  -43.8990   -7.0111 C   0  0  0  0  0  0  0  0  0  0  0  0
  -20.1221  -43.0264   -7.8870 C   0  0  0  0  0  0  0  0  0  0  0  0
  -18.7566  -43.1309   -8.0844 C   0  0  0  0  0  0  0  0  0  0  0  0
  -18.0305  -44.1258   -7.3851 C   0  0  0  0  0  0  0  0  0  0  0  0
  -18.5951  -45.0122   -6.5059 C   0  0  0  0  0  0  0  0  0  0  0  0
  -19.9446  -44.8768   -6.3370 C   0  0  0  0  0  0  0  0  0  0  0  0
  -17.8450  -42.3389   -8.9340 C   0  0  0  0  0  0  0  0  0  0  0  0
  -16.9897  -43.1174   -9.5932 O   0  0  0  0  0  0  0  0  0  0  0  0
  -17.7146  -40.9600   -9.1694 N   0  0  0  0  0  0  0  0  0  0  0  0
  -18.0528  -39.8311   -8.3268 C   0  0  1  0  0  0  0  0  0  0  0  0
  -18.2887  -40.1866   -6.9051 C   0  0  0  0  0  0  0  0  0  0  0  0
  -16.8297  -38.8874   -8.4891 C   0  0  2  0  0  0  0  0  0  0  0  0
  -17.3619  -37.6139   -8.3429 O   0  0  0  0  0  0  0  0  0  0  0  0
  -16.0882  -39.0251   -9.7323 C   0  0  0  0  0  0  0  0  0  0  0  0
  -14.8547  -38.4006   -9.7783 N   0  0  0  0  0  0  0  0  0  0  0  0
  -13.7117  -38.8196  -10.4439 C   0  0  0  0  0  0  0  0  0  0  0  0
  -12.7254  -39.5710   -9.6423 C   0  0  0  0  0  0  0  0  0  0  0  0
  -13.0092  -40.7774  -10.2685 O   0  0  0  0  0  0  0  0  0  0  0  0
  -13.7581  -40.1232  -11.1934 C   0  0  0  0  0  0  0  0  0  0  0  0
  -13.0903  -37.7096  -11.2298 C   0  0  0  0  0  0  0  0  0  0  0  0
  -13.6862  -36.5331  -11.5675 C   0  0  0  0  0  0  0  0  0  0  0  0
  -13.0200  -35.5383  -12.2838 C   0  0  0  0  0  0  0  0  0  0  0  0
  -11.7226  -35.7768  -12.6485 C   0  0  0  0  0  0  0  0  0  0  0  0
  -11.1039  -36.9640  -12.3152 C   0  0  0  0  0  0  0  0  0  0  0  0
  -11.7649  -37.9342  -11.6125 C   0  0  0  0  0  0  0  0  0  0  0  0
  -13.6792  -34.2659  -12.6467 C   0  0  0  0  0  0  0  0  0  0  0  0
  -13.5442  -33.2319  -11.5632 C   0  0  0  0  0  0  0  0  0  0  0  0
  -15.1126  -34.4462  -13.0594 C   0  0  0  0  0  0  0  0  0  0  0  0
  -12.9441  -33.6953  -13.8640 C   0  0  0  0  0  0  0  0  0  0  0  0
  2  1  1  1
  2  3  1  0
  3  4  1  0
  4  5  1  0
  5  6  1  0
  6  7  1  0
  7  8  1  0
  8  9  1  0
  9 10  1  0
 10 11  1  0
 11 12  1  0
 12 13  2  0
 13 14  1  0
 14 15  2  0
 15 16  1  0
 13 17  1  0
 17 18  2  0
 17 19  1  0
 19 20  1  0
 20 21  1  1
 20 22  1  0
 22 23  1  6
 22 24  1  0
 24 25  1  0
 25 26  1  0
 26 27  1  0
 27 28  1  0
 28 29  1  0
 26 30  1  0
 30 31  2  0
 31 32  1  0
 32 33  2  0
 33 34  1  0
 34 35  2  0
 32 36  1  0
 36 37  1  0
 36 38  1  0
 36 39  1  0
 16 11  2  0
 21  2  1  0
 29 26  1  0
 35 30  1  0
M  END
$$$$
