
     RDKit          3D

 39 42  0  0  0  0  0  0  0  0999 V2000
  -18.6495  -43.4932   -7.7418 C   0  0  0  0  0  0  0  0  0  0  0  0
  -19.1482  -42.0659   -7.7622 C   0  0  2  0  0  0  0  0  0  0  0  0
  -20.4300  -41.9763   -8.5802 C   0  0  0  0  0  0  0  0  0  0  0  0
  -21.4263  -43.0125   -8.2542 C   0  0  0  0  0  0  0  0  0  0  0  0
  -21.9947  -43.0068   -6.8762 C   0  0  0  0  0  0  0  0  0  0  0  0
  -23.4147  -42.5719   -6.7835 C   0  0  0  0  0  0  0  0  0  0  0  0
  -23.9494  -41.9525   -5.5902 C   0  0  0  0  0  0  0  0  0  0  0  0
  -23.0866  -41.2992   -4.5832 C   0  0  0  0  0  0  0  0  0  0  0  0
  -23.0787  -39.7642   -4.7564 C   0  0  0  0  0  0  0  0  0  0  0  0
  -22.7193  -39.4382   -6.1278 N   0  0  0  0  0  0  0  0  0  0  0  0
  -21.5387  -38.8771   -6.7069 C   0  0  0  0  0  0  0  0  0  0  0  0
  -20.2045  -39.0704   -6.4348 C   0  0  0  0  0  0  0  0  0  0  0  0
  -19.2723  -38.3951   -7.2025 C   0  0  0  0  0  0  0  0  0  0  0  0
  -19.7190  -37.5328   -8.2336 C   0  0  0  0  0  0  0  0  0  0  0  0
  -21.0381  -37.3147   -8.5337 C   0  0  0  0  0  0  0  0  0  0  0  0
  -21.9278  -37.9998   -7.7546 C   0  0  0  0  0  0  0  0  0  0  0  0
  -17.7966  -38.4132   -7.1586 C   0  0  0  0  0  0  0  0  0  0  0  0
  -17.2885  -37.1870   -7.2597 O   0  0  0  0  0  0  0  0  0  0  0  0
  -16.8569  -39.4502   -7.0346 N   0  0  0  0  0  0  0  0  0  0  0  0
  -16.9511  -40.8473   -7.4062 C   0  0  1  0  0  0  0  0  0  0  0  0
  -18.0829  -41.1564   -8.3156 C   0  0  0  0  0  0  0  0  0  0  0  0
  -15.5792  -41.1300   -8.0776 C   0  0  2  0  0  0  0  0  0  0  0  0
  -14.6554  -40.9210   -7.0631 O   0  0  0  0  0  0  0  0  0  0  0  0
  -15.2786  -40.3335   -9.2564 C   0  0  0  0  0  0  0  0  0  0  0  0
  -13.9452  -40.2587   -9.6173 N   0  0  0  0  0  0  0  0  0  0  0  0
  -13.3931  -39.6023  -10.7080 C   0  0  0  0  0  0  0  0  0  0  0  0
  -11.9196  -39.5161  -10.7433 C   0  0  0  0  0  0  0  0  0  0  0  0
  -11.8066  -40.4287  -11.7836 O   0  0  0  0  0  0  0  0  0  0  0  0
  -13.1514  -40.3879  -11.9679 C   0  0  0  0  0  0  0  0  0  0  0  0
  -14.0538  -38.2835  -10.9531 C   0  0  0  0  0  0  0  0  0  0  0  0
  -15.1488  -38.0662  -11.7322 C   0  0  0  0  0  0  0  0  0  0  0  0
  -15.7165  -36.8008  -11.8844 C   0  0  0  0  0  0  0  0  0  0  0  0
  -15.1344  -35.7573  -11.2170 C   0  0  0  0  0  0  0  0  0  0  0  0
  -14.0239  -35.9600  -10.4240 C   0  0  0  0  0  0  0  0  0  0  0  0
  -13.4735  -37.2044  -10.2805 C   0  0  0  0  0  0  0  0  0  0  0  0
  -16.9043  -36.5774  -12.7356 C   0  0  0  0  0  0  0  0  0  0  0  0
  -16.5943  -35.7005  -13.9172 C   0  0  0  0  0  0  0  0  0  0  0  0
  -18.0881  -36.0644  -11.9655 C   0  0  0  0  0  0  0  0  0  0  0  0
  -17.3177  -37.9334  -13.3174 C   0  0  0  0  0  0  0  0  0  0  0  0
  2  1  1  6
  2  3  1  0
  3  4  1  0
  4  5  1  0
  5  6  1  0
  6  7  1  0
  7  8  1  0
  8  9  1  0
  9 10  1  0
 10 11  1  0
 11 12  1  0
 12 13  2  0
 13 14  1  0
 14 15  2  0
 15 16  1  0
 13 17  1  0
 17 18  2  0
 17 19  1  0
 19 20  1  0
 20 21  1  6
 20 22  1  0
 22 23  1  1
 22 24  1  0
 24 25  1  0
 25 26  1  0
 26 27  1  0
 27 28  1  0
 28 29  1  0
 26 30  1  0
 30 31  2  0
 31 32  1  0
 32 33  2  0
 33 34  1  0
 34 35  2  0
 32 36  1  0
 36 37  1  0
 36 38  1  0
 36 39  1  0
 16 11  2  0
 21  2  1  0
 29 26  1  0
 35 30  1  0
M  END
$$$$
