
     RDKit          3D

 39 42  0  0  0  0  0  0  0  0999 V2000
  -20.0680  -38.2595   -9.8212 C   0  0  0  0  0  0  0  0  0  0  0  0
  -20.0549  -39.1222   -8.5794 C   0  0  2  0  0  0  0  0  0  0  0  0
  -20.6707  -38.3607   -7.4127 C   0  0  0  0  0  0  0  0  0  0  0  0
  -21.9464  -37.6957   -7.7337 C   0  0  0  0  0  0  0  0  0  0  0  0
  -23.0957  -38.5658   -8.1136 C   0  0  0  0  0  0  0  0  0  0  0  0
  -24.1783  -38.6570   -7.0969 C   0  0  0  0  0  0  0  0  0  0  0  0
  -25.0313  -39.8208   -6.9892 C   0  0  0  0  0  0  0  0  0  0  0  0
  -24.6385  -41.1420   -7.5233 C   0  0  0  0  0  0  0  0  0  0  0  0
  -24.1038  -42.0664   -6.4071 C   0  0  0  0  0  0  0  0  0  0  0  0
  -23.0334  -41.3871   -5.6937 N   0  0  0  0  0  0  0  0  0  0  0  0
  -21.6177  -41.5847   -5.6655 C   0  0  0  0  0  0  0  0  0  0  0  0
  -20.7172  -41.8995   -6.6562 C   0  0  0  0  0  0  0  0  0  0  0  0
  -19.3780  -41.9941   -6.3217 C   0  0  0  0  0  0  0  0  0  0  0  0
  -18.9820  -41.7672   -4.9808 C   0  0  0  0  0  0  0  0  0  0  0  0
  -19.8490  -41.4523   -3.9676 C   0  0  0  0  0  0  0  0  0  0  0  0
  -21.1619  -41.3672   -4.3374 C   0  0  0  0  0  0  0  0  0  0  0  0
  -18.1977  -42.2938   -7.1566 C   0  0  0  0  0  0  0  0  0  0  0  0
  -17.3785  -43.1542   -6.5559 O   0  0  0  0  0  0  0  0  0  0  0  0
  -17.7892  -41.8543   -8.4269 N   0  0  0  0  0  0  0  0  0  0  0  0
  -18.0836  -40.6221   -9.1297 C   0  0  1  0  0  0  0  0  0  0  0  0
  -18.6460  -39.5531   -8.2670 C   0  0  0  0  0  0  0  0  0  0  0  0
  -16.7084  -40.2162   -9.7271 C   0  0  2  0  0  0  0  0  0  0  0  0
  -16.6992  -40.8011  -10.9857 O   0  0  0  0  0  0  0  0  0  0  0  0
  -15.5441  -40.5976   -8.9441 C   0  0  0  0  0  0  0  0  0  0  0  0
  -14.4170  -40.9546   -9.6625 N   0  0  0  0  0  0  0  0  0  0  0  0
  -13.1767  -40.3329   -9.6667 C   0  0  0  0  0  0  0  0  0  0  0  0
  -12.2012  -40.8110   -8.6668 C   0  0  0  0  0  0  0  0  0  0  0  0
  -11.4073  -41.4393   -9.6171 O   0  0  0  0  0  0  0  0  0  0  0  0
  -12.1222  -40.8473  -10.6084 C   0  0  0  0  0  0  0  0  0  0  0  0
  -13.3042  -38.8432   -9.6813 C   0  0  0  0  0  0  0  0  0  0  0  0
  -13.4202  -38.0578  -10.7871 C   0  0  0  0  0  0  0  0  0  0  0  0
  -13.5611  -36.6720  -10.7062 C   0  0  0  0  0  0  0  0  0  0  0  0
  -13.5806  -36.1057   -9.4604 C   0  0  0  0  0  0  0  0  0  0  0  0
  -13.4634  -36.8870   -8.3294 C   0  0  0  0  0  0  0  0  0  0  0  0
  -13.3254  -38.2453   -8.4181 C   0  0  0  0  0  0  0  0  0  0  0  0
  -13.6836  -35.8298  -11.9149 C   0  0  0  0  0  0  0  0  0  0  0  0
  -13.0952  -36.4955  -13.1281 C   0  0  0  0  0  0  0  0  0  0  0  0
  -13.1288  -34.4467  -11.7231 C   0  0  0  0  0  0  0  0  0  0  0  0
  -15.1774  -35.6623  -12.2121 C   0  0  0  0  0  0  0  0  0  0  0  0
  2  1  1  6
  2  3  1  0
  3  4  1  0
  4  5  1  0
  5  6  1  0
  6  7  1  0
  7  8  1  0
  8  9  1  0
  9 10  1  0
 10 11  1  0
 11 12  1  0
 12 13  2  0
 13 14  1  0
 14 15  2  0
 15 16  1  0
 13 17  1  0
 17 18  2  0
 17 19  1  0
 19 20  1  0
 20 21  1  1
 20 22  1  0
 22 23  1  6
 22 24  1  0
 24 25  1  0
 25 26  1  0
 26 27  1  0
 27 28  1  0
 28 29  1  0
 26 30  1  0
 30 31  2  0
 31 32  1  0
 32 33  2  0
 33 34  1  0
 34 35  2  0
 32 36  1  0
 36 37  1  0
 36 38  1  0
 36 39  1  0
 16 11  2  0
 21  2  1  0
 29 26  1  0
 35 30  1  0
M  END
$$$$
