
     RDKit          3D

 39 42  0  0  0  0  0  0  0  0999 V2000
  -17.9039  -43.6632   -7.3150 C   0  0  0  0  0  0  0  0  0  0  0  0
  -18.4817  -42.3269   -7.7233 C   0  0  2  0  0  0  0  0  0  0  0  0
  -19.8258  -42.5312   -8.4101 C   0  0  0  0  0  0  0  0  0  0  0  0
  -20.7345  -43.4457   -7.6954 C   0  0  0  0  0  0  0  0  0  0  0  0
  -21.1943  -43.0327   -6.3389 C   0  0  0  0  0  0  0  0  0  0  0  0
  -22.6249  -42.6325   -6.2547 C   0  0  0  0  0  0  0  0  0  0  0  0
  -23.0996  -41.6917   -5.2630 C   0  0  0  0  0  0  0  0  0  0  0  0
  -22.1995  -40.7350   -4.5850 C   0  0  0  0  0  0  0  0  0  0  0  0
  -22.2907  -39.3284   -5.2169 C   0  0  0  0  0  0  0  0  0  0  0  0
  -22.0570  -39.4300   -6.6492 N   0  0  0  0  0  0  0  0  0  0  0  0
  -20.9579  -39.0399   -7.4760 C   0  0  0  0  0  0  0  0  0  0  0  0
  -19.5980  -39.1007   -7.2801 C   0  0  0  0  0  0  0  0  0  0  0  0
  -18.7670  -38.6674   -8.2980 C   0  0  0  0  0  0  0  0  0  0  0  0
  -19.3395  -38.1779   -9.4976 C   0  0  0  0  0  0  0  0  0  0  0  0
  -20.6879  -38.1019   -9.7290 C   0  0  0  0  0  0  0  0  0  0  0  0
  -21.4752  -38.5397   -8.7012 C   0  0  0  0  0  0  0  0  0  0  0  0
  -17.2936  -38.6276   -8.3846 C   0  0  0  0  0  0  0  0  0  0  0  0
  -16.8641  -37.4776   -8.8996 O   0  0  0  0  0  0  0  0  0  0  0  0
  -16.2907  -39.5479   -8.0367 N   0  0  0  0  0  0  0  0  0  0  0  0
  -16.3352  -40.9937   -7.9556 C   0  0  1  0  0  0  0  0  0  0  0  0
  -17.5148  -41.6009   -8.6213 C   0  0  0  0  0  0  0  0  0  0  0  0
  -15.0055  -41.4287   -8.6306 C   0  0  2  0  0  0  0  0  0  0  0  0
  -14.5017  -42.4091   -7.7873 O   0  0  0  0  0  0  0  0  0  0  0  0
  -14.0404  -40.3665   -8.8639 C   0  0  0  0  0  0  0  0  0  0  0  0
  -13.7556  -40.0820  -10.1874 N   0  0  0  0  0  0  0  0  0  0  0  0
  -13.0612  -38.9931  -10.6946 C   0  0  0  0  0  0  0  0  0  0  0  0
  -12.2424  -38.2316   -9.7304 C   0  0  0  0  0  0  0  0  0  0  0  0
  -11.0427  -38.6924  -10.2561 O   0  0  0  0  0  0  0  0  0  0  0  0
  -11.7091  -39.2309  -11.3097 C   0  0  0  0  0  0  0  0  0  0  0  0
  -13.9404  -38.1139  -11.5251 C   0  0  0  0  0  0  0  0  0  0  0  0
  -14.0817  -36.7662  -11.3949 C   0  0  0  0  0  0  0  0  0  0  0  0
  -14.9084  -36.0185  -12.2341 C   0  0  0  0  0  0  0  0  0  0  0  0
  -15.5909  -36.6858  -13.2150 C   0  0  0  0  0  0  0  0  0  0  0  0
  -15.4598  -38.0514  -13.3602 C   0  0  0  0  0  0  0  0  0  0  0  0
  -14.6468  -38.7769  -12.5326 C   0  0  0  0  0  0  0  0  0  0  0  0
  -15.0553  -34.5555  -12.0807 C   0  0  0  0  0  0  0  0  0  0  0  0
  -15.7506  -34.1900  -10.7984 C   0  0  0  0  0  0  0  0  0  0  0  0
  -15.7107  -33.9057  -13.2664 C   0  0  0  0  0  0  0  0  0  0  0  0
  -13.6481  -33.9578  -11.9791 C   0  0  0  0  0  0  0  0  0  0  0  0
  2  1  1  6
  2  3  1  0
  3  4  1  0
  4  5  1  0
  5  6  1  0
  6  7  1  0
  7  8  1  0
  8  9  1  0
  9 10  1  0
 10 11  1  0
 11 12  1  0
 12 13  2  0
 13 14  1  0
 14 15  2  0
 15 16  1  0
 13 17  1  0
 17 18  2  0
 17 19  1  0
 19 20  1  0
 20 21  1  6
 20 22  1  0
 22 23  1  1
 22 24  1  0
 24 25  1  0
 25 26  1  0
 26 27  1  0
 27 28  1  0
 28 29  1  0
 26 30  1  0
 30 31  2  0
 31 32  1  0
 32 33  2  0
 33 34  1  0
 34 35  2  0
 32 36  1  0
 36 37  1  0
 36 38  1  0
 36 39  1  0
 16 11  2  0
 21  2  1  0
 29 26  1  0
 35 30  1  0
M  END
$$$$
