
     RDKit          3D

 39 42  0  0  0  0  0  0  0  0999 V2000
  -12.6975  -41.3058   -7.4318 C   0  0  0  0  0  0  0  0  0  0  0  0
  -13.7383  -42.0227   -8.2620 C   0  0  2  0  0  0  0  0  0  0  0  0
  -13.1127  -42.5245   -9.5570 C   0  0  0  0  0  0  0  0  0  0  0  0
  -11.8275  -43.2227   -9.3742 C   0  0  0  0  0  0  0  0  0  0  0  0
  -11.8410  -44.4864   -8.5836 C   0  0  0  0  0  0  0  0  0  0  0  0
  -11.6284  -45.7270   -9.3773 C   0  0  0  0  0  0  0  0  0  0  0  0
  -12.1642  -47.0044   -8.9595 C   0  0  0  0  0  0  0  0  0  0  0  0
  -13.2994  -47.1171   -8.0193 C   0  0  0  0  0  0  0  0  0  0  0  0
  -14.6260  -47.3838   -8.7646 C   0  0  0  0  0  0  0  0  0  0  0  0
  -14.8162  -46.3642   -9.7847 N   0  0  0  0  0  0  0  0  0  0  0  0
  -15.7149  -45.2568   -9.8840 C   0  0  0  0  0  0  0  0  0  0  0  0
  -16.1709  -44.3606   -8.9457 C   0  0  0  0  0  0  0  0  0  0  0  0
  -17.0283  -43.3560   -9.3581 C   0  0  0  0  0  0  0  0  0  0  0  0
  -17.4065  -43.2853  -10.7213 C   0  0  0  0  0  0  0  0  0  0  0  0
  -16.9736  -44.1591  -11.6839 C   0  0  0  0  0  0  0  0  0  0  0  0
  -16.1281  -45.1359  -11.2381 C   0  0  0  0  0  0  0  0  0  0  0  0
  -17.6581  -42.2579   -8.5982 C   0  0  0  0  0  0  0  0  0  0  0  0
  -18.9415  -42.1124   -8.9203 O   0  0  0  0  0  0  0  0  0  0  0  0
  -17.1716  -41.3646   -7.6291 N   0  0  0  0  0  0  0  0  0  0  0  0
  -15.8290  -40.8689   -7.4039 C   0  0  1  0  0  0  0  0  0  0  0  0
  -14.8995  -41.1038   -8.5371 C   0  0  0  0  0  0  0  0  0  0  0  0
  -16.0486  -39.3533   -7.1438 C   0  0  2  0  0  0  0  0  0  0  0  0
  -15.4333  -39.1263   -5.9206 O   0  0  0  0  0  0  0  0  0  0  0  0
  -17.4327  -38.9080   -7.1448 C   0  0  0  0  0  0  0  0  0  0  0  0
  -17.8181  -38.1191   -8.2140 N   0  0  0  0  0  0  0  0  0  0  0  0
  -19.0534  -38.0828   -8.8446 C   0  0  0  0  0  0  0  0  0  0  0  0
  -19.5661  -39.3697   -9.3553 C   0  0  0  0  0  0  0  0  0  0  0  0
  -20.5505  -39.4613   -8.3803 O   0  0  0  0  0  0  0  0  0  0  0  0
  -20.2921  -38.1844   -7.9969 C   0  0  0  0  0  0  0  0  0  0  0  0
  -19.1236  -36.9895   -9.8623 C   0  0  0  0  0  0  0  0  0  0  0  0
  -18.0754  -36.2542  -10.3247 C   0  0  0  0  0  0  0  0  0  0  0  0
  -18.2291  -35.2668  -11.2984 C   0  0  0  0  0  0  0  0  0  0  0  0
  -19.4874  -35.0483  -11.7906 C   0  0  0  0  0  0  0  0  0  0  0  0
  -20.5607  -35.7840  -11.3324 C   0  0  0  0  0  0  0  0  0  0  0  0
  -20.4009  -36.7504  -10.3770 C   0  0  0  0  0  0  0  0  0  0  0  0
  -17.0832  -34.4732  -11.7905 C   0  0  0  0  0  0  0  0  0  0  0  0
  -17.2422  -34.0893  -13.2357 C   0  0  0  0  0  0  0  0  0  0  0  0
  -15.7597  -35.1392  -11.5408 C   0  0  0  0  0  0  0  0  0  0  0  0
  -17.0626  -33.1563  -11.0073 C   0  0  0  0  0  0  0  0  0  0  0  0
  2  1  1  6
  2  3  1  0
  3  4  1  0
  4  5  1  0
  5  6  1  0
  6  7  1  0
  7  8  1  0
  8  9  1  0
  9 10  1  0
 10 11  1  0
 11 12  1  0
 12 13  2  0
 13 14  1  0
 14 15  2  0
 15 16  1  0
 13 17  1  0
 17 18  2  0
 17 19  1  0
 19 20  1  0
 20 21  1  6
 20 22  1  0
 22 23  1  1
 22 24  1  0
 24 25  1  0
 25 26  1  0
 26 27  1  0
 27 28  1  0
 28 29  1  0
 26 30  1  0
 30 31  2  0
 31 32  1  0
 32 33  2  0
 33 34  1  0
 34 35  2  0
 32 36  1  0
 36 37  1  0
 36 38  1  0
 36 39  1  0
 16 11  2  0
 21  2  1  0
 29 26  1  0
 35 30  1  0
M  END
$$$$
