
     RDKit          3D

 39 42  0  0  0  0  0  0  0  0999 V2000
  -12.4049  -38.1380   -9.8556 C   0  0  0  0  0  0  0  0  0  0  0  0
  -12.8181  -39.5724  -10.0968 C   0  0  2  0  0  0  0  0  0  0  0  0
  -12.3598  -40.0184  -11.4792 C   0  0  0  0  0  0  0  0  0  0  0  0
  -10.9584  -39.6809  -11.7873 C   0  0  0  0  0  0  0  0  0  0  0  0
   -9.9013  -40.3106  -10.9457 C   0  0  0  0  0  0  0  0  0  0  0  0
   -9.0910  -41.3540  -11.6305 C   0  0  0  0  0  0  0  0  0  0  0  0
   -8.4700  -42.4403  -10.9040 C   0  0  0  0  0  0  0  0  0  0  0  0
   -8.9357  -42.8667   -9.5674 C   0  0  0  0  0  0  0  0  0  0  0  0
   -9.8341  -44.1202   -9.6554 C   0  0  0  0  0  0  0  0  0  0  0  0
  -10.9165  -43.8695  -10.5945 N   0  0  0  0  0  0  0  0  0  0  0  0
  -12.3179  -43.6524  -10.4135 C   0  0  0  0  0  0  0  0  0  0  0  0
  -13.0203  -42.9500   -9.4625 C   0  0  0  0  0  0  0  0  0  0  0  0
  -14.3986  -42.8935   -9.5713 C   0  0  0  0  0  0  0  0  0  0  0  0
  -15.0354  -43.5569  -10.6485 C   0  0  0  0  0  0  0  0  0  0  0  0
  -14.3701  -44.2661  -11.6139 C   0  0  0  0  0  0  0  0  0  0  0  0
  -13.0111  -44.2978  -11.4727 C   0  0  0  0  0  0  0  0  0  0  0  0
  -15.4022  -42.2145   -8.7276 C   0  0  0  0  0  0  0  0  0  0  0  0
  -16.4536  -42.9963   -8.4922 O   0  0  0  0  0  0  0  0  0  0  0  0
  -15.4542  -40.9372   -8.1451 N   0  0  0  0  0  0  0  0  0  0  0  0
  -14.8297  -39.6959   -8.5551 C   0  0  1  0  0  0  0  0  0  0  0  0
  -14.3102  -39.7106   -9.9455 C   0  0  0  0  0  0  0  0  0  0  0  0
  -15.9646  -38.6506   -8.3755 C   0  0  2  0  0  0  0  0  0  0  0  0
  -16.3855  -38.8286   -7.0650 O   0  0  0  0  0  0  0  0  0  0  0  0
  -17.0680  -38.7504   -9.3171 C   0  0  0  0  0  0  0  0  0  0  0  0
  -18.3135  -39.0046   -8.7713 N   0  0  0  0  0  0  0  0  0  0  0  0
  -19.3717  -39.6932   -9.3468 C   0  0  0  0  0  0  0  0  0  0  0  0
  -19.3653  -39.7914  -10.8200 C   0  0  0  0  0  0  0  0  0  0  0  0
  -19.0536  -41.1444  -10.8131 O   0  0  0  0  0  0  0  0  0  0  0  0
  -19.2675  -41.1887   -9.4728 C   0  0  0  0  0  0  0  0  0  0  0  0
  -20.6888  -39.2375   -8.8052 C   0  0  0  0  0  0  0  0  0  0  0  0
  -21.0265  -39.1414   -7.4899 C   0  0  0  0  0  0  0  0  0  0  0  0
  -22.2751  -38.6797   -7.0723 C   0  0  0  0  0  0  0  0  0  0  0  0
  -23.1751  -38.3165   -8.0375 C   0  0  0  0  0  0  0  0  0  0  0  0
  -22.8493  -38.4084   -9.3749 C   0  0  0  0  0  0  0  0  0  0  0  0
  -21.6224  -38.8625   -9.7755 C   0  0  0  0  0  0  0  0  0  0  0  0
  -22.6307  -38.5825   -5.6408 C   0  0  0  0  0  0  0  0  0  0  0  0
  -24.0196  -38.0422   -5.4402 C   0  0  0  0  0  0  0  0  0  0  0  0
  -21.6201  -37.8136   -4.8376 C   0  0  0  0  0  0  0  0  0  0  0  0
  -22.6484  -40.0050   -5.0714 C   0  0  0  0  0  0  0  0  0  0  0  0
  2  1  1  6
  2  3  1  0
  3  4  1  0
  4  5  1  0
  5  6  1  0
  6  7  1  0
  7  8  1  0
  8  9  1  0
  9 10  1  0
 10 11  1  0
 11 12  1  0
 12 13  2  0
 13 14  1  0
 14 15  2  0
 15 16  1  0
 13 17  1  0
 17 18  2  0
 17 19  1  0
 19 20  1  0
 20 21  1  6
 20 22  1  0
 22 23  1  1
 22 24  1  0
 24 25  1  0
 25 26  1  0
 26 27  1  0
 27 28  1  0
 28 29  1  0
 26 30  1  0
 30 31  2  0
 31 32  1  0
 32 33  2  0
 33 34  1  0
 34 35  2  0
 32 36  1  0
 36 37  1  0
 36 38  1  0
 36 39  1  0
 16 11  2  0
 21  2  1  0
 29 26  1  0
 35 30  1  0
M  END
$$$$
