
     RDKit          3D

 40 43  0  0  0  0  0  0  0  0999 V2000
  -21.2655  -41.0803  -12.5333 C   0  0  0  0  0  0  0  0  0  0  0  0
  -20.9409  -39.7935  -12.8852 O   0  0  0  0  0  0  0  0  0  0  0  0
  -20.5387  -38.9938  -11.8265 C   0  0  0  0  0  0  0  0  0  0  0  0
  -19.0622  -38.8449  -11.8844 C   0  0  0  0  0  0  0  0  0  0  0  0
  -18.4368  -37.9427  -12.6938 C   0  0  0  0  0  0  0  0  0  0  0  0
  -17.0243  -37.7826  -12.7638 C   0  0  0  0  0  0  0  0  0  0  0  0
  -16.2178  -38.5775  -11.9756 C   0  0  0  0  0  0  0  0  0  0  0  0
  -16.8125  -39.5013  -11.1426 C   0  0  0  0  0  0  0  0  0  0  0  0
  -18.2284  -39.6145  -11.1168 C   0  0  0  0  0  0  0  0  0  0  0  0
  -16.2362  -40.4767  -10.1892 C   0  0  0  0  0  0  0  0  0  0  0  0
  -16.7887  -41.6840  -10.1420 O   0  0  0  0  0  0  0  0  0  0  0  0
  -15.1837  -40.4128   -9.2729 N   0  0  0  0  0  0  0  0  0  0  0  0
  -14.9150  -39.4107   -8.2643 C   0  0  1  0  0  0  0  0  0  0  0  0
  -14.0799  -38.2807   -8.7755 C   0  0  0  0  0  0  0  0  0  0  0  0
  -12.6339  -38.6784   -8.9938 C   0  0  2  0  0  0  0  0  0  0  0  0
  -11.8351  -38.0935   -7.8686 C   0  0  0  0  0  0  0  0  0  0  0  0
  -12.1303  -38.2671  -10.3496 C   0  0  0  0  0  0  0  0  0  0  0  0
  -12.0338  -36.7486  -10.4707 C   0  0  0  0  0  0  0  0  0  0  0  0
  -11.7873  -36.3478  -11.9096 C   0  0  0  0  0  0  0  0  0  0  0  0
  -13.0474  -36.5276  -12.6765 C   0  0  0  0  0  0  0  0  0  0  0  0
  -13.2803  -35.4917  -13.7559 C   0  0  0  0  0  0  0  0  0  0  0  0
  -14.5654  -35.9348  -14.4681 C   0  0  0  0  0  0  0  0  0  0  0  0
  -15.7908  -35.6441  -13.6602 C   0  0  0  0  0  0  0  0  0  0  0  0
  -16.7245  -36.7547  -13.7064 N   0  0  0  0  0  0  0  0  0  0  0  0
  -16.1378  -38.9011   -7.5829 C   0  0  2  0  0  0  0  0  0  0  0  0
  -15.9201  -37.9129   -6.6341 O   0  0  0  0  0  0  0  0  0  0  0  0
  -16.9590  -39.9830   -6.9181 C   0  0  0  0  0  0  0  0  0  0  0  0
  -18.1384  -40.3550   -7.6329 N   0  0  0  0  0  0  0  0  0  0  0  0
  -18.8326  -41.4861   -7.0993 C   0  0  0  0  0  0  0  0  0  0  0  0
  -20.2379  -41.1975   -6.7651 C   0  0  0  0  0  0  0  0  0  0  0  0
  -20.7621  -41.6752   -5.5882 C   0  0  0  0  0  0  0  0  0  0  0  0
  -22.0703  -41.4429   -5.2170 C   0  0  0  0  0  0  0  0  0  0  0  0
  -22.4003  -42.0073   -4.0011 O   0  0  0  0  0  0  0  0  0  0  0  0
  -23.5578  -41.7150   -3.2286 C   0  0  0  0  0  0  0  0  0  0  0  0
  -23.9563  -40.2763   -3.4452 C   0  0  0  0  0  0  0  0  0  0  0  0
  -24.8734  -40.1100   -4.6174 C   0  0  0  0  0  0  0  0  0  0  0  0
  -24.2133  -40.3785   -5.8405 O   0  0  0  0  0  0  0  0  0  0  0  0
  -22.8753  -40.6968   -6.0749 C   0  0  0  0  0  0  0  0  0  0  0  0
  -22.3747  -40.2147   -7.2454 C   0  0  0  0  0  0  0  0  0  0  0  0
  -21.0642  -40.4650   -7.5856 C   0  0  0  0  0  0  0  0  0  0  0  0
  1  2  1  0
  2  3  1  0
  3  4  1  0
  4  5  2  0
  5  6  1  0
  6  7  2  0
  7  8  1  0
  8  9  2  0
  8 10  1  0
 10 11  2  0
 10 12  1  0
 12 13  1  0
 13 14  1  6
 14 15  1  0
 15 16  1  1
 15 17  1  0
 17 18  1  0
 18 19  1  0
 19 20  1  0
 20 21  1  0
 21 22  1  0
 22 23  1  0
 23 24  1  0
 13 25  1  0
 25 26  1  1
 25 27  1  0
 27 28  1  0
 28 29  1  0
 29 30  1  0
 30 31  2  0
 31 32  1  0
 32 33  1  0
 33 34  1  0
 34 35  1  0
 35 36  1  0
 36 37  1  0
 37 38  1  0
 38 39  1  0
 39 40  2  0
  9  4  1  0
 24  6  1  0
 38 32  2  0
 40 30  1  0
M  END
$$$$
