
     RDKit          3D

 40 43  0  0  0  0  0  0  0  0999 V2000
  -14.6944  -44.7546   -8.1054 C   0  0  0  0  0  0  0  0  0  0  0  0
  -15.5294  -45.7813   -7.7395 O   0  0  0  0  0  0  0  0  0  0  0  0
  -16.5442  -46.0457   -8.6464 C   0  0  0  0  0  0  0  0  0  0  0  0
  -17.6566  -45.0937   -8.3976 C   0  0  0  0  0  0  0  0  0  0  0  0
  -18.5963  -45.2850   -7.4278 C   0  0  0  0  0  0  0  0  0  0  0  0
  -19.6690  -44.3854   -7.1716 C   0  0  0  0  0  0  0  0  0  0  0  0
  -19.7873  -43.2445   -7.9384 C   0  0  0  0  0  0  0  0  0  0  0  0
  -18.8557  -43.0147   -8.9286 C   0  0  0  0  0  0  0  0  0  0  0  0
  -17.8069  -43.9501   -9.1366 C   0  0  0  0  0  0  0  0  0  0  0  0
  -18.7065  -41.9041   -9.8965 C   0  0  0  0  0  0  0  0  0  0  0  0
  -18.3569  -42.2196  -11.1388 O   0  0  0  0  0  0  0  0  0  0  0  0
  -18.8562  -40.5189   -9.7951 N   0  0  0  0  0  0  0  0  0  0  0  0
  -18.2998  -39.6131   -8.8135 C   0  0  1  0  0  0  0  0  0  0  0  0
  -19.1757  -39.4471   -7.6131 C   0  0  0  0  0  0  0  0  0  0  0  0
  -20.4138  -38.6236   -7.9057 C   0  0  2  0  0  0  0  0  0  0  0  0
  -20.1983  -37.2658   -7.3089 C   0  0  0  0  0  0  0  0  0  0  0  0
  -21.6686  -39.2905   -7.4142 C   0  0  0  0  0  0  0  0  0  0  0  0
  -21.7105  -39.3435   -5.8893 C   0  0  0  0  0  0  0  0  0  0  0  0
  -22.8335  -40.2451   -5.4225 C   0  0  0  0  0  0  0  0  0  0  0  0
  -22.4389  -41.6582   -5.6586 C   0  0  0  0  0  0  0  0  0  0  0  0
  -22.9209  -42.6308   -4.6031 C   0  0  0  0  0  0  0  0  0  0  0  0
  -22.4902  -44.0155   -5.1053 C   0  0  0  0  0  0  0  0  0  0  0  0
  -21.0239  -44.2534   -4.9256 C   0  0  0  0  0  0  0  0  0  0  0  0
  -20.4505  -44.8972   -6.0935 N   0  0  0  0  0  0  0  0  0  0  0  0
  -16.9049  -39.9466   -8.4107 C   0  0  2  0  0  0  0  0  0  0  0  0
  -16.3457  -39.1077   -7.4580 O   0  0  0  0  0  0  0  0  0  0  0  0
  -15.9362  -40.0111   -9.5702 C   0  0  0  0  0  0  0  0  0  0  0  0
  -14.5824  -40.2731   -9.1972 N   0  0  0  0  0  0  0  0  0  0  0  0
  -13.6751  -40.4204  -10.2932 C   0  0  0  0  0  0  0  0  0  0  0  0
  -13.5338  -39.1935  -11.0959 C   0  0  0  0  0  0  0  0  0  0  0  0
  -12.7186  -38.1835  -10.6448 C   0  0  0  0  0  0  0  0  0  0  0  0
  -12.5444  -37.0088  -11.3467 C   0  0  0  0  0  0  0  0  0  0  0  0
  -11.6868  -36.1239  -10.7242 O   0  0  0  0  0  0  0  0  0  0  0  0
  -11.0949  -34.9745  -11.3161 C   0  0  0  0  0  0  0  0  0  0  0  0
  -10.8685  -35.2265  -12.7860 C   0  0  0  0  0  0  0  0  0  0  0  0
  -12.0604  -34.8621  -13.6162 C   0  0  0  0  0  0  0  0  0  0  0  0
  -13.1520  -35.7302  -13.3740 O   0  0  0  0  0  0  0  0  0  0  0  0
  -13.2249  -36.8555  -12.5526 C   0  0  0  0  0  0  0  0  0  0  0  0
  -14.0371  -37.8444  -13.0168 C   0  0  0  0  0  0  0  0  0  0  0  0
  -14.1886  -39.0047  -12.2910 C   0  0  0  0  0  0  0  0  0  0  0  0
  1  2  1  0
  2  3  1  0
  3  4  1  0
  4  5  2  0
  5  6  1  0
  6  7  2  0
  7  8  1  0
  8  9  2  0
  8 10  1  0
 10 11  2  0
 10 12  1  0
 12 13  1  0
 13 14  1  1
 14 15  1  0
 15 16  1  1
 15 17  1  0
 17 18  1  0
 18 19  1  0
 19 20  1  0
 20 21  1  0
 21 22  1  0
 22 23  1  0
 23 24  1  0
 13 25  1  0
 25 26  1  1
 25 27  1  0
 27 28  1  0
 28 29  1  0
 29 30  1  0
 30 31  2  0
 31 32  1  0
 32 33  1  0
 33 34  1  0
 34 35  1  0
 35 36  1  0
 36 37  1  0
 37 38  1  0
 38 39  1  0
 39 40  2  0
  9  4  1  0
 24  6  1  0
 38 32  2  0
 40 30  1  0
M  END
$$$$
