
     RDKit          3D

 40 43  0  0  0  0  0  0  0  0999 V2000
  -16.4561  -46.9315  -11.0122 C   0  0  0  0  0  0  0  0  0  0  0  0
  -15.9193  -45.6795  -10.8406 O   0  0  0  0  0  0  0  0  0  0  0  0
  -15.9279  -45.2268   -9.5302 C   0  0  0  0  0  0  0  0  0  0  0  0
  -17.1443  -44.3992   -9.3269 C   0  0  0  0  0  0  0  0  0  0  0  0
  -18.3197  -44.9076   -8.8577 C   0  0  0  0  0  0  0  0  0  0  0  0
  -19.4961  -44.1328   -8.6542 C   0  0  0  0  0  0  0  0  0  0  0  0
  -19.4710  -42.7839   -8.9430 C   0  0  0  0  0  0  0  0  0  0  0  0
  -18.3003  -42.2320   -9.4185 C   0  0  0  0  0  0  0  0  0  0  0  0
  -17.1584  -43.0571   -9.6009 C   0  0  0  0  0  0  0  0  0  0  0  0
  -17.9565  -40.8450   -9.8067 C   0  0  0  0  0  0  0  0  0  0  0  0
  -17.2065  -40.6825  -10.8911 O   0  0  0  0  0  0  0  0  0  0  0  0
  -18.2566  -39.5952   -9.2594 N   0  0  0  0  0  0  0  0  0  0  0  0
  -18.1225  -39.1453   -7.8908 C   0  0  1  0  0  0  0  0  0  0  0  0
  -19.3428  -39.4118   -7.0690 C   0  0  0  0  0  0  0  0  0  0  0  0
  -20.4959  -38.4952   -7.4255 C   0  0  2  0  0  0  0  0  0  0  0  0
  -20.6042  -37.4700   -6.3377 C   0  0  0  0  0  0  0  0  0  0  0  0
  -21.7750  -39.2529   -7.6501 C   0  0  0  0  0  0  0  0  0  0  0  0
  -22.2895  -39.8738   -6.3541 C   0  0  0  0  0  0  0  0  0  0  0  0
  -23.4149  -40.8443   -6.6433 C   0  0  0  0  0  0  0  0  0  0  0  0
  -22.8385  -42.0780   -7.2384 C   0  0  0  0  0  0  0  0  0  0  0  0
  -23.5371  -43.3583   -6.8317 C   0  0  0  0  0  0  0  0  0  0  0  0
  -22.8455  -44.4669   -7.6366 C   0  0  0  0  0  0  0  0  0  0  0  0
  -21.4949  -44.8069   -7.0895 C   0  0  0  0  0  0  0  0  0  0  0  0
  -20.5268  -44.9842   -8.1565 N   0  0  0  0  0  0  0  0  0  0  0  0
  -16.9007  -39.6551   -7.2076 C   0  0  2  0  0  0  0  0  0  0  0  0
  -17.1178  -40.2654   -5.9811 O   0  0  0  0  0  0  0  0  0  0  0  0
  -15.8368  -38.6011   -6.9980 C   0  0  0  0  0  0  0  0  0  0  0  0
  -15.0558  -38.3088   -8.1578 N   0  0  0  0  0  0  0  0  0  0  0  0
  -15.4701  -37.1483   -8.8842 C   0  0  0  0  0  0  0  0  0  0  0  0
  -14.8172  -37.0251  -10.1988 C   0  0  0  0  0  0  0  0  0  0  0  0
  -13.5089  -36.6102  -10.2648 C   0  0  0  0  0  0  0  0  0  0  0  0
  -12.8400  -36.4718  -11.4633 C   0  0  0  0  0  0  0  0  0  0  0  0
  -11.5358  -36.0446  -11.3135 O   0  0  0  0  0  0  0  0  0  0  0  0
  -10.5237  -36.0776  -12.3117 C   0  0  0  0  0  0  0  0  0  0  0  0
  -10.7566  -37.2558  -13.2245 C   0  0  0  0  0  0  0  0  0  0  0  0
  -11.6680  -36.9210  -14.3647 C   0  0  0  0  0  0  0  0  0  0  0  0
  -12.9903  -36.6755  -13.9230 O   0  0  0  0  0  0  0  0  0  0  0  0
  -13.5275  -36.7663  -12.6386 C   0  0  0  0  0  0  0  0  0  0  0  0
  -14.8240  -37.1788  -12.5944 C   0  0  0  0  0  0  0  0  0  0  0  0
  -15.4620  -37.3065  -11.3810 C   0  0  0  0  0  0  0  0  0  0  0  0
  1  2  1  0
  2  3  1  0
  3  4  1  0
  4  5  2  0
  5  6  1  0
  6  7  2  0
  7  8  1  0
  8  9  2  0
  8 10  1  0
 10 11  2  0
 10 12  1  0
 12 13  1  0
 13 14  1  1
 14 15  1  0
 15 16  1  1
 15 17  1  0
 17 18  1  0
 18 19  1  0
 19 20  1  0
 20 21  1  0
 21 22  1  0
 22 23  1  0
 23 24  1  0
 13 25  1  0
 25 26  1  1
 25 27  1  0
 27 28  1  0
 28 29  1  0
 29 30  1  0
 30 31  2  0
 31 32  1  0
 32 33  1  0
 33 34  1  0
 34 35  1  0
 35 36  1  0
 36 37  1  0
 37 38  1  0
 38 39  1  0
 39 40  2  0
  9  4  1  0
 24  6  1  0
 38 32  2  0
 40 30  1  0
M  END
$$$$
