
     RDKit          3D

 40 43  0  0  0  0  0  0  0  0999 V2000
  -16.6339  -45.4400  -10.8168 C   0  0  0  0  0  0  0  0  0  0  0  0
  -17.9720  -45.1349  -10.7798 O   0  0  0  0  0  0  0  0  0  0  0  0
  -18.2486  -43.7948  -10.5568 C   0  0  0  0  0  0  0  0  0  0  0  0
  -17.0289  -43.0056  -10.8654 C   0  0  0  0  0  0  0  0  0  0  0  0
  -16.4932  -42.9235  -12.1170 C   0  0  0  0  0  0  0  0  0  0  0  0
  -15.3268  -42.1723  -12.4348 C   0  0  0  0  0  0  0  0  0  0  0  0
  -14.6808  -41.4778  -11.4330 C   0  0  0  0  0  0  0  0  0  0  0  0
  -15.1924  -41.5349  -10.1539 C   0  0  0  0  0  0  0  0  0  0  0  0
  -16.3605  -42.3021   -9.8985 C   0  0  0  0  0  0  0  0  0  0  0  0
  -14.7438  -40.9093   -8.8890 C   0  0  0  0  0  0  0  0  0  0  0  0
  -14.8050  -41.6485   -7.7868 O   0  0  0  0  0  0  0  0  0  0  0  0
  -14.2434  -39.6443   -8.5711 N   0  0  0  0  0  0  0  0  0  0  0  0
  -14.7732  -38.3431   -8.9169 C   0  0  1  0  0  0  0  0  0  0  0  0
  -14.2598  -37.8355  -10.2263 C   0  0  0  0  0  0  0  0  0  0  0  0
  -12.8093  -37.4025  -10.1539 C   0  0  2  0  0  0  0  0  0  0  0  0
  -12.7906  -35.9039  -10.1408 C   0  0  0  0  0  0  0  0  0  0  0  0
  -11.9847  -37.9920  -11.2646 C   0  0  0  0  0  0  0  0  0  0  0  0
  -12.3891  -37.4218  -12.6215 C   0  0  0  0  0  0  0  0  0  0  0  0
  -11.7448  -38.2125  -13.7403 C   0  0  0  0  0  0  0  0  0  0  0  0
  -12.4399  -39.5205  -13.8603 C   0  0  0  0  0  0  0  0  0  0  0  0
  -12.5688  -40.0366  -15.2779 C   0  0  0  0  0  0  0  0  0  0  0  0
  -13.2143  -41.4225  -15.1442 C   0  0  0  0  0  0  0  0  0  0  0  0
  -14.6770  -41.3401  -14.8396 C   0  0  0  0  0  0  0  0  0  0  0  0
  -15.0572  -42.3101  -13.8288 N   0  0  0  0  0  0  0  0  0  0  0  0
  -16.2601  -38.2662   -8.8641 C   0  0  2  0  0  0  0  0  0  0  0  0
  -16.8037  -37.0397   -9.2162 O   0  0  0  0  0  0  0  0  0  0  0  0
  -16.8408  -38.6406   -7.5190 C   0  0  0  0  0  0  0  0  0  0  0  0
  -17.8337  -37.7374   -7.0303 N   0  0  0  0  0  0  0  0  0  0  0  0
  -19.1391  -37.9223   -7.5848 C   0  0  0  0  0  0  0  0  0  0  0  0
  -19.9392  -38.9239   -6.8593 C   0  0  0  0  0  0  0  0  0  0  0  0
  -21.0724  -39.4341   -7.4456 C   0  0  0  0  0  0  0  0  0  0  0  0
  -21.8668  -40.3721   -6.8195 C   0  0  0  0  0  0  0  0  0  0  0  0
  -22.9567  -40.7553   -7.5754 O   0  0  0  0  0  0  0  0  0  0  0  0
  -23.7867  -41.8847   -7.3359 C   0  0  0  0  0  0  0  0  0  0  0  0
  -22.9681  -42.9859   -6.7093 C   0  0  0  0  0  0  0  0  0  0  0  0
  -22.9239  -42.8830   -5.2159 C   0  0  0  0  0  0  0  0  0  0  0  0
  -22.1921  -41.7482   -4.7910 O   0  0  0  0  0  0  0  0  0  0  0  0
  -21.4947  -40.8076   -5.5496 C   0  0  0  0  0  0  0  0  0  0  0  0
  -20.3756  -40.3145   -4.9517 C   0  0  0  0  0  0  0  0  0  0  0  0
  -19.6049  -39.3789   -5.6048 C   0  0  0  0  0  0  0  0  0  0  0  0
  1  2  1  0
  2  3  1  0
  3  4  1  0
  4  5  2  0
  5  6  1  0
  6  7  2  0
  7  8  1  0
  8  9  2  0
  8 10  1  0
 10 11  2  0
 10 12  1  0
 12 13  1  0
 13 14  1  6
 14 15  1  0
 15 16  1  6
 15 17  1  0
 17 18  1  0
 18 19  1  0
 19 20  1  0
 20 21  1  0
 21 22  1  0
 22 23  1  0
 23 24  1  0
 13 25  1  0
 25 26  1  1
 25 27  1  0
 27 28  1  0
 28 29  1  0
 29 30  1  0
 30 31  2  0
 31 32  1  0
 32 33  1  0
 33 34  1  0
 34 35  1  0
 35 36  1  0
 36 37  1  0
 37 38  1  0
 38 39  1  0
 39 40  2  0
  9  4  1  0
 24  6  1  0
 38 32  2  0
 40 30  1  0
M  END
$$$$
