
     RDKit          3D

 40 43  0  0  0  0  0  0  0  0999 V2000
  -24.4692  -38.5771   -8.3506 C   0  0  0  0  0  0  0  0  0  0  0  0
  -23.2788  -38.0086   -8.7314 O   0  0  0  0  0  0  0  0  0  0  0  0
  -22.1659  -38.5188   -8.0808 C   0  0  0  0  0  0  0  0  0  0  0  0
  -20.9781  -38.3098   -8.9475 C   0  0  0  0  0  0  0  0  0  0  0  0
  -20.7753  -37.1704   -9.6692 C   0  0  0  0  0  0  0  0  0  0  0  0
  -19.6442  -36.9490  -10.5042 C   0  0  0  0  0  0  0  0  0  0  0  0
  -18.6818  -37.9322  -10.6072 C   0  0  0  0  0  0  0  0  0  0  0  0
  -18.8502  -39.0988   -9.8918 C   0  0  0  0  0  0  0  0  0  0  0  0
  -20.0009  -39.2615   -9.0748 C   0  0  0  0  0  0  0  0  0  0  0  0
  -18.0116  -40.3146   -9.7863 C   0  0  0  0  0  0  0  0  0  0  0  0
  -18.6355  -41.4874   -9.7723 O   0  0  0  0  0  0  0  0  0  0  0  0
  -16.6334  -40.5219   -9.6903 N   0  0  0  0  0  0  0  0  0  0  0  0
  -15.6800  -39.9009   -8.7964 C   0  0  1  0  0  0  0  0  0  0  0  0
  -15.1013  -38.6382   -9.3497 C   0  0  0  0  0  0  0  0  0  0  0  0
  -14.1204  -38.8928  -10.4766 C   0  0  2  0  0  0  0  0  0  0  0  0
  -12.7424  -38.6861   -9.9245 C   0  0  0  0  0  0  0  0  0  0  0  0
  -14.4060  -38.0399  -11.6816 C   0  0  0  0  0  0  0  0  0  0  0  0
  -14.1405  -36.5644  -11.3951 C   0  0  0  0  0  0  0  0  0  0  0  0
  -14.6827  -35.7026  -12.5155 C   0  0  0  0  0  0  0  0  0  0  0  0
  -16.1644  -35.6610  -12.4096 C   0  0  0  0  0  0  0  0  0  0  0  0
  -16.7856  -34.3350  -12.7947 C   0  0  0  0  0  0  0  0  0  0  0  0
  -18.3011  -34.5606  -12.7082 C   0  0  0  0  0  0  0  0  0  0  0  0
  -18.7898  -34.5944  -11.2943 C   0  0  0  0  0  0  0  0  0  0  0  0
  -19.7586  -35.6579  -11.1001 N   0  0  0  0  0  0  0  0  0  0  0  0
  -16.2009  -39.6863   -7.4172 C   0  0  2  0  0  0  0  0  0  0  0  0
  -15.2487  -39.3366   -6.4711 O   0  0  0  0  0  0  0  0  0  0  0  0
  -16.9638  -40.8692   -6.8645 C   0  0  0  0  0  0  0  0  0  0  0  0
  -18.1035  -40.5230   -6.0760 N   0  0  0  0  0  0  0  0  0  0  0  0
  -18.4689  -41.4930   -5.0902 C   0  0  0  0  0  0  0  0  0  0  0  0
  -19.2129  -42.6345   -5.6499 C   0  0  0  0  0  0  0  0  0  0  0  0
  -18.6305  -43.8790   -5.6584 C   0  0  0  0  0  0  0  0  0  0  0  0
  -19.2716  -44.9884   -6.1697 C   0  0  0  0  0  0  0  0  0  0  0  0
  -18.5172  -46.1415   -6.0843 O   0  0  0  0  0  0  0  0  0  0  0  0
  -18.9944  -47.4694   -6.2599 C   0  0  0  0  0  0  0  0  0  0  0  0
  -20.4272  -47.5539   -5.7959 C   0  0  0  0  0  0  0  0  0  0  0  0
  -21.3987  -47.2151   -6.8841 C   0  0  0  0  0  0  0  0  0  0  0  0
  -21.3271  -45.8475   -7.2424 O   0  0  0  0  0  0  0  0  0  0  0  0
  -20.5529  -44.8258   -6.6918 C   0  0  0  0  0  0  0  0  0  0  0  0
  -21.1471  -43.6011   -6.6926 C   0  0  0  0  0  0  0  0  0  0  0  0
  -20.4791  -42.5144   -6.1743 C   0  0  0  0  0  0  0  0  0  0  0  0
  1  2  1  0
  2  3  1  0
  3  4  1  0
  4  5  2  0
  5  6  1  0
  6  7  2  0
  7  8  1  0
  8  9  2  0
  8 10  1  0
 10 11  2  0
 10 12  1  0
 12 13  1  0
 13 14  1  6
 14 15  1  0
 15 16  1  1
 15 17  1  0
 17 18  1  0
 18 19  1  0
 19 20  1  0
 20 21  1  0
 21 22  1  0
 22 23  1  0
 23 24  1  0
 13 25  1  0
 25 26  1  1
 25 27  1  0
 27 28  1  0
 28 29  1  0
 29 30  1  0
 30 31  2  0
 31 32  1  0
 32 33  1  0
 33 34  1  0
 34 35  1  0
 35 36  1  0
 36 37  1  0
 37 38  1  0
 38 39  1  0
 39 40  2  0
  9  4  1  0
 24  6  1  0
 38 32  2  0
 40 30  1  0
M  END
$$$$
