
     RDKit          3D

 40 43  0  0  0  0  0  0  0  0999 V2000
  -24.0638  -42.2713   -5.7113 C   0  0  0  0  0  0  0  0  0  0  0  0
  -22.6924  -42.3390   -5.7134 O   0  0  0  0  0  0  0  0  0  0  0  0
  -22.0621  -41.2108   -5.2113 C   0  0  0  0  0  0  0  0  0  0  0  0
  -21.5449  -40.4142   -6.3530 C   0  0  0  0  0  0  0  0  0  0  0  0
  -21.9785  -39.1524   -6.6363 C   0  0  0  0  0  0  0  0  0  0  0  0
  -21.4957  -38.3712   -7.7237 C   0  0  0  0  0  0  0  0  0  0  0  0
  -20.5317  -38.9012   -8.5563 C   0  0  0  0  0  0  0  0  0  0  0  0
  -20.0667  -40.1741   -8.3021 C   0  0  0  0  0  0  0  0  0  0  0  0
  -20.5874  -40.9050   -7.2009 C   0  0  0  0  0  0  0  0  0  0  0  0
  -19.0526  -41.0040   -8.9917 C   0  0  0  0  0  0  0  0  0  0  0  0
  -19.3201  -42.2967   -9.1407 O   0  0  0  0  0  0  0  0  0  0  0  0
  -17.8046  -40.7216   -9.5524 N   0  0  0  0  0  0  0  0  0  0  0  0
  -16.6883  -40.0055   -8.9740 C   0  0  1  0  0  0  0  0  0  0  0  0
  -16.7482  -38.5330   -9.2270 C   0  0  0  0  0  0  0  0  0  0  0  0
  -16.4368  -38.1770  -10.6668 C   0  0  2  0  0  0  0  0  0  0  0  0
  -15.0480  -37.6143  -10.6973 C   0  0  0  0  0  0  0  0  0  0  0  0
  -17.4617  -37.2481  -11.2564 C   0  0  0  0  0  0  0  0  0  0  0  0
  -17.4082  -35.8710  -10.6001 C   0  0  0  0  0  0  0  0  0  0  0  0
  -18.6077  -35.0433  -11.0099 C   0  0  0  0  0  0  0  0  0  0  0  0
  -19.8061  -35.5560  -10.2963 C   0  0  0  0  0  0  0  0  0  0  0  0
  -20.8015  -34.4893   -9.8915 C   0  0  0  0  0  0  0  0  0  0  0  0
  -21.9813  -35.2532   -9.2753 C   0  0  0  0  0  0  0  0  0  0  0  0
  -21.6748  -35.7569   -7.9000 C   0  0  0  0  0  0  0  0  0  0  0  0
  -22.1643  -37.1112   -7.7168 N   0  0  0  0  0  0  0  0  0  0  0  0
  -16.4788  -40.2872   -7.5262 C   0  0  2  0  0  0  0  0  0  0  0  0
  -15.8211  -39.2928   -6.8173 O   0  0  0  0  0  0  0  0  0  0  0  0
  -15.7465  -41.5829   -7.2587 C   0  0  0  0  0  0  0  0  0  0  0  0
  -16.2017  -42.6919   -8.0354 N   0  0  0  0  0  0  0  0  0  0  0  0
  -17.3031  -43.4090   -7.4707 C   0  0  0  0  0  0  0  0  0  0  0  0
  -17.3105  -44.8367   -7.8331 C   0  0  0  0  0  0  0  0  0  0  0  0
  -17.7997  -45.7566   -6.9371 C   0  0  0  0  0  0  0  0  0  0  0  0
  -17.8328  -47.1077   -7.2132 C   0  0  0  0  0  0  0  0  0  0  0  0
  -18.3607  -47.8616   -6.1841 O   0  0  0  0  0  0  0  0  0  0  0  0
  -18.7823  -49.2169   -6.2696 C   0  0  0  0  0  0  0  0  0  0  0  0
  -19.3042  -49.4941   -7.6576 C   0  0  0  0  0  0  0  0  0  0  0  0
  -18.2204  -49.9230   -8.5979 C   0  0  0  0  0  0  0  0  0  0  0  0
  -17.3170  -48.8680   -8.8714 O   0  0  0  0  0  0  0  0  0  0  0  0
  -17.3503  -47.5395   -8.4467 C   0  0  0  0  0  0  0  0  0  0  0  0
  -16.8616  -46.6440   -9.3480 C   0  0  0  0  0  0  0  0  0  0  0  0
  -16.8432  -45.3021   -9.0404 C   0  0  0  0  0  0  0  0  0  0  0  0
  1  2  1  0
  2  3  1  0
  3  4  1  0
  4  5  2  0
  5  6  1  0
  6  7  2  0
  7  8  1  0
  8  9  2  0
  8 10  1  0
 10 11  2  0
 10 12  1  0
 12 13  1  0
 13 14  1  1
 14 15  1  0
 15 16  1  1
 15 17  1  0
 17 18  1  0
 18 19  1  0
 19 20  1  0
 20 21  1  0
 21 22  1  0
 22 23  1  0
 23 24  1  0
 13 25  1  0
 25 26  1  6
 25 27  1  0
 27 28  1  0
 28 29  1  0
 29 30  1  0
 30 31  2  0
 31 32  1  0
 32 33  1  0
 33 34  1  0
 34 35  1  0
 35 36  1  0
 36 37  1  0
 37 38  1  0
 38 39  1  0
 39 40  2  0
  9  4  1  0
 24  6  1  0
 38 32  2  0
 40 30  1  0
M  END
$$$$
