
     RDKit          3D

 40 43  0  0  0  0  0  0  0  0999 V2000
  -16.6021  -47.2428  -10.3612 C   0  0  0  0  0  0  0  0  0  0  0  0
  -15.7271  -46.1987  -10.1900 O   0  0  0  0  0  0  0  0  0  0  0  0
  -15.7606  -45.6236   -8.9290 C   0  0  0  0  0  0  0  0  0  0  0  0
  -16.9134  -44.6891   -8.8691 C   0  0  0  0  0  0  0  0  0  0  0  0
  -18.0711  -44.9778   -8.2083 C   0  0  0  0  0  0  0  0  0  0  0  0
  -19.1868  -44.0969   -8.1371 C   0  0  0  0  0  0  0  0  0  0  0  0
  -19.1172  -42.8717   -8.7677 C   0  0  0  0  0  0  0  0  0  0  0  0
  -17.9626  -42.5424   -9.4455 C   0  0  0  0  0  0  0  0  0  0  0  0
  -16.8821  -43.4640   -9.4811 C   0  0  0  0  0  0  0  0  0  0  0  0
  -17.5820  -41.3280  -10.2025 C   0  0  0  0  0  0  0  0  0  0  0  0
  -16.9150  -41.5005  -11.3384 O   0  0  0  0  0  0  0  0  0  0  0  0
  -17.7736  -39.9621   -9.9807 N   0  0  0  0  0  0  0  0  0  0  0  0
  -17.5068  -39.1878   -8.7879 C   0  0  1  0  0  0  0  0  0  0  0  0
  -18.6685  -39.1500   -7.8473 C   0  0  0  0  0  0  0  0  0  0  0  0
  -19.7991  -38.2772   -8.3541 C   0  0  2  0  0  0  0  0  0  0  0  0
  -19.7675  -37.0030   -7.5655 C   0  0  0  0  0  0  0  0  0  0  0  0
  -21.1287  -38.9764   -8.2901 C   0  0  0  0  0  0  0  0  0  0  0  0
  -21.5673  -39.2081   -6.8465 C   0  0  0  0  0  0  0  0  0  0  0  0
  -22.7597  -40.1397   -6.7995 C   0  0  0  0  0  0  0  0  0  0  0  0
  -22.2961  -41.5214   -7.0896 C   0  0  0  0  0  0  0  0  0  0  0  0
  -23.0230  -42.6035   -6.3194 C   0  0  0  0  0  0  0  0  0  0  0  0
  -22.4554  -43.9263   -6.8516 C   0  0  0  0  0  0  0  0  0  0  0  0
  -21.0838  -44.2082   -6.3241 C   0  0  0  0  0  0  0  0  0  0  0  0
  -20.2153  -44.7192   -7.3690 N   0  0  0  0  0  0  0  0  0  0  0  0
  -16.2610  -39.5897   -8.0767 C   0  0  2  0  0  0  0  0  0  0  0  0
  -16.2466  -39.3327   -6.7137 O   0  0  0  0  0  0  0  0  0  0  0  0
  -15.0054  -38.9794   -8.6578 C   0  0  0  0  0  0  0  0  0  0  0  0
  -13.8437  -39.8044   -8.5559 N   0  0  0  0  0  0  0  0  0  0  0  0
  -12.6441  -39.2187   -9.0696 C   0  0  0  0  0  0  0  0  0  0  0  0
  -12.5262  -39.3316  -10.5335 C   0  0  0  0  0  0  0  0  0  0  0  0
  -12.2493  -40.5550  -11.0947 C   0  0  0  0  0  0  0  0  0  0  0  0
  -12.1237  -40.7284  -12.4574 C   0  0  0  0  0  0  0  0  0  0  0  0
  -11.8448  -42.0316  -12.8176 O   0  0  0  0  0  0  0  0  0  0  0  0
  -11.9356  -42.5762  -14.1280 C   0  0  0  0  0  0  0  0  0  0  0  0
  -13.0362  -41.8777  -14.8871 C   0  0  0  0  0  0  0  0  0  0  0  0
  -12.5512  -40.6466  -15.5885 C   0  0  0  0  0  0  0  0  0  0  0  0
  -12.1892  -39.6304  -14.6720 O   0  0  0  0  0  0  0  0  0  0  0  0
  -12.2857  -39.6160  -13.2802 C   0  0  0  0  0  0  0  0  0  0  0  0
  -12.5604  -38.3954  -12.7438 C   0  0  0  0  0  0  0  0  0  0  0  0
  -12.6793  -38.2572  -11.3790 C   0  0  0  0  0  0  0  0  0  0  0  0
  1  2  1  0
  2  3  1  0
  3  4  1  0
  4  5  2  0
  5  6  1  0
  6  7  2  0
  7  8  1  0
  8  9  2  0
  8 10  1  0
 10 11  2  0
 10 12  1  0
 12 13  1  0
 13 14  1  1
 14 15  1  0
 15 16  1  1
 15 17  1  0
 17 18  1  0
 18 19  1  0
 19 20  1  0
 20 21  1  0
 21 22  1  0
 22 23  1  0
 23 24  1  0
 13 25  1  0
 25 26  1  1
 25 27  1  0
 27 28  1  0
 28 29  1  0
 29 30  1  0
 30 31  2  0
 31 32  1  0
 32 33  1  0
 33 34  1  0
 34 35  1  0
 35 36  1  0
 36 37  1  0
 37 38  1  0
 38 39  1  0
 39 40  2  0
  9  4  1  0
 24  6  1  0
 38 32  2  0
 40 30  1  0
M  END
$$$$
