
     RDKit          3D

 40 43  0  0  0  0  0  0  0  0999 V2000
  -20.2346  -35.3319  -11.7267 C   0  0  0  0  0  0  0  0  0  0  0  0
  -20.6038  -36.3165  -10.8440 O   0  0  0  0  0  0  0  0  0  0  0  0
  -20.6033  -37.5956  -11.3788 C   0  0  0  0  0  0  0  0  0  0  0  0
  -19.1947  -38.0424  -11.5271 C   0  0  0  0  0  0  0  0  0  0  0  0
  -18.3718  -37.5916  -12.5170 C   0  0  0  0  0  0  0  0  0  0  0  0
  -17.0193  -38.0052  -12.6765 C   0  0  0  0  0  0  0  0  0  0  0  0
  -16.4862  -38.9174  -11.7892 C   0  0  0  0  0  0  0  0  0  0  0  0
  -17.2864  -39.3960  -10.7734 C   0  0  0  0  0  0  0  0  0  0  0  0
  -18.6293  -38.9454  -10.6659 C   0  0  0  0  0  0  0  0  0  0  0  0
  -17.0143  -40.3571   -9.6803 C   0  0  0  0  0  0  0  0  0  0  0  0
  -17.9693  -41.2319   -9.3846 O   0  0  0  0  0  0  0  0  0  0  0  0
  -15.9191  -40.5646   -8.8382 N   0  0  0  0  0  0  0  0  0  0  0  0
  -15.1842  -39.6014   -8.0472 C   0  0  1  0  0  0  0  0  0  0  0  0
  -14.0497  -38.9787   -8.7960 C   0  0  0  0  0  0  0  0  0  0  0  0
  -12.8916  -39.9351   -8.9983 C   0  0  2  0  0  0  0  0  0  0  0  0
  -11.8117  -39.5383   -8.0377 C   0  0  0  0  0  0  0  0  0  0  0  0
  -12.4255  -39.9682  -10.4274 C   0  0  0  0  0  0  0  0  0  0  0  0
  -11.7821  -38.6451  -10.8342 C   0  0  0  0  0  0  0  0  0  0  0  0
  -11.5658  -38.6010  -12.3319 C   0  0  0  0  0  0  0  0  0  0  0  0
  -12.8788  -38.3949  -12.9966 C   0  0  0  0  0  0  0  0  0  0  0  0
  -12.8261  -37.5318  -14.2395 C   0  0  0  0  0  0  0  0  0  0  0  0
  -14.2545  -37.5467  -14.8004 C   0  0  0  0  0  0  0  0  0  0  0  0
  -15.1837  -36.6812  -14.0089 C   0  0  0  0  0  0  0  0  0  0  0  0
  -16.4640  -37.3348  -13.8066 N   0  0  0  0  0  0  0  0  0  0  0  0
  -16.0432  -38.5577   -7.4209 C   0  0  2  0  0  0  0  0  0  0  0  0
  -15.4924  -37.9178   -6.3205 O   0  0  0  0  0  0  0  0  0  0  0  0
  -17.4073  -39.0615   -7.0059 C   0  0  0  0  0  0  0  0  0  0  0  0
  -17.7375  -38.8184   -5.6376 N   0  0  0  0  0  0  0  0  0  0  0  0
  -18.5306  -39.8367   -5.0210 C   0  0  0  0  0  0  0  0  0  0  0  0
  -19.8770  -39.9552   -5.6067 C   0  0  0  0  0  0  0  0  0  0  0  0
  -20.6731  -41.0187   -5.2556 C   0  0  0  0  0  0  0  0  0  0  0  0
  -21.9419  -41.1897   -5.7691 C   0  0  0  0  0  0  0  0  0  0  0  0
  -22.5759  -42.3190   -5.2908 O   0  0  0  0  0  0  0  0  0  0  0  0
  -23.9622  -42.6137   -5.4065 C   0  0  0  0  0  0  0  0  0  0  0  0
  -24.7519  -41.3285   -5.3925 C   0  0  0  0  0  0  0  0  0  0  0  0
  -24.9099  -40.7425   -6.7615 C   0  0  0  0  0  0  0  0  0  0  0  0
  -23.6762  -40.2779   -7.2774 O   0  0  0  0  0  0  0  0  0  0  0  0
  -22.4190  -40.2436   -6.6736 C   0  0  0  0  0  0  0  0  0  0  0  0
  -21.6458  -39.1828   -7.0341 C   0  0  0  0  0  0  0  0  0  0  0  0
  -20.3835  -39.0421   -6.5024 C   0  0  0  0  0  0  0  0  0  0  0  0
  1  2  1  0
  2  3  1  0
  3  4  1  0
  4  5  2  0
  5  6  1  0
  6  7  2  0
  7  8  1  0
  8  9  2  0
  8 10  1  0
 10 11  2  0
 10 12  1  0
 12 13  1  0
 13 14  1  6
 14 15  1  0
 15 16  1  1
 15 17  1  0
 17 18  1  0
 18 19  1  0
 19 20  1  0
 20 21  1  0
 21 22  1  0
 22 23  1  0
 23 24  1  0
 13 25  1  0
 25 26  1  1
 25 27  1  0
 27 28  1  0
 28 29  1  0
 29 30  1  0
 30 31  2  0
 31 32  1  0
 32 33  1  0
 33 34  1  0
 34 35  1  0
 35 36  1  0
 36 37  1  0
 37 38  1  0
 38 39  1  0
 39 40  2  0
  9  4  1  0
 24  6  1  0
 38 32  2  0
 40 30  1  0
M  END
$$$$
