
     RDKit          3D

 40 43  0  0  0  0  0  0  0  0999 V2000
  -21.8303  -36.4964   -7.2827 C   0  0  0  0  0  0  0  0  0  0  0  0
  -21.5500  -37.5772   -8.0817 O   0  0  0  0  0  0  0  0  0  0  0  0
  -21.7269  -37.3488   -9.4377 C   0  0  0  0  0  0  0  0  0  0  0  0
  -20.3903  -37.2859  -10.0820 C   0  0  0  0  0  0  0  0  0  0  0  0
  -19.9273  -36.1772  -10.7275 C   0  0  0  0  0  0  0  0  0  0  0  0
  -18.6500  -36.0949  -11.3501 C   0  0  0  0  0  0  0  0  0  0  0  0
  -17.8123  -37.1905  -11.3128 C   0  0  0  0  0  0  0  0  0  0  0  0
  -18.2439  -38.3304  -10.6684 C   0  0  0  0  0  0  0  0  0  0  0  0
  -19.5300  -38.3519  -10.0654 C   0  0  0  0  0  0  0  0  0  0  0  0
  -17.5917  -39.6423  -10.4533 C   0  0  0  0  0  0  0  0  0  0  0  0
  -18.3475  -40.7277  -10.5779 O   0  0  0  0  0  0  0  0  0  0  0  0
  -16.2870  -40.0212  -10.1281 N   0  0  0  0  0  0  0  0  0  0  0  0
  -15.4343  -39.5293   -9.0677 C   0  0  1  0  0  0  0  0  0  0  0  0
  -14.6180  -38.3462   -9.4796 C   0  0  0  0  0  0  0  0  0  0  0  0
  -13.4952  -38.7159  -10.4280 C   0  0  2  0  0  0  0  0  0  0  0  0
  -12.2191  -38.6864   -9.6426 C   0  0  0  0  0  0  0  0  0  0  0  0
  -13.4609  -37.8277  -11.6408 C   0  0  0  0  0  0  0  0  0  0  0  0
  -13.0702  -36.3986  -11.2737 C   0  0  0  0  0  0  0  0  0  0  0  0
  -13.3002  -35.4699  -12.4469 C   0  0  0  0  0  0  0  0  0  0  0  0
  -14.7613  -35.2434  -12.5956 C   0  0  0  0  0  0  0  0  0  0  0  0
  -15.1391  -33.8480  -13.0457 C   0  0  0  0  0  0  0  0  0  0  0  0
  -16.6627  -33.8824  -13.2264 C   0  0  0  0  0  0  0  0  0  0  0  0
  -17.3896  -33.8620  -11.9186 C   0  0  0  0  0  0  0  0  0  0  0  0
  -18.5003  -34.7967  -11.9219 N   0  0  0  0  0  0  0  0  0  0  0  0
  -16.1561  -39.2582   -7.7930 C   0  0  2  0  0  0  0  0  0  0  0  0
  -15.4345  -38.5537   -6.8407 O   0  0  0  0  0  0  0  0  0  0  0  0
  -16.6865  -40.5032   -7.1180 C   0  0  0  0  0  0  0  0  0  0  0  0
  -17.7883  -40.2761   -6.2378 N   0  0  0  0  0  0  0  0  0  0  0  0
  -18.2502  -41.4372   -5.5416 C   0  0  0  0  0  0  0  0  0  0  0  0
  -19.6137  -41.8389   -5.9279 C   0  0  0  0  0  0  0  0  0  0  0  0
  -19.9041  -43.1729   -6.0840 C   0  0  0  0  0  0  0  0  0  0  0  0
  -21.1593  -43.6156   -6.4464 C   0  0  0  0  0  0  0  0  0  0  0  0
  -21.2439  -44.9897   -6.5496 O   0  0  0  0  0  0  0  0  0  0  0  0
  -22.4420  -45.7518   -6.6255 C   0  0  0  0  0  0  0  0  0  0  0  0
  -23.5300  -45.0565   -5.8455 C   0  0  0  0  0  0  0  0  0  0  0  0
  -24.2803  -44.0626   -6.6772 C   0  0  0  0  0  0  0  0  0  0  0  0
  -23.4704  -42.9555   -7.0271 O   0  0  0  0  0  0  0  0  0  0  0  0
  -22.1565  -42.6661   -6.6580 C   0  0  0  0  0  0  0  0  0  0  0  0
  -21.8889  -41.3398   -6.5085 C   0  0  0  0  0  0  0  0  0  0  0  0
  -20.6249  -40.9319   -6.1457 C   0  0  0  0  0  0  0  0  0  0  0  0
  1  2  1  0
  2  3  1  0
  3  4  1  0
  4  5  2  0
  5  6  1  0
  6  7  2  0
  7  8  1  0
  8  9  2  0
  8 10  1  0
 10 11  2  0
 10 12  1  0
 12 13  1  0
 13 14  1  6
 14 15  1  0
 15 16  1  1
 15 17  1  0
 17 18  1  0
 18 19  1  0
 19 20  1  0
 20 21  1  0
 21 22  1  0
 22 23  1  0
 23 24  1  0
 13 25  1  0
 25 26  1  1
 25 27  1  0
 27 28  1  0
 28 29  1  0
 29 30  1  0
 30 31  2  0
 31 32  1  0
 32 33  1  0
 33 34  1  0
 34 35  1  0
 35 36  1  0
 36 37  1  0
 37 38  1  0
 38 39  1  0
 39 40  2  0
  9  4  1  0
 24  6  1  0
 38 32  2  0
 40 30  1  0
M  END
$$$$
