
     RDKit          3D

 40 43  0  0  0  0  0  0  0  0999 V2000
  -22.2116  -40.4096   -4.1835 C   0  0  0  0  0  0  0  0  0  0  0  0
  -21.4648  -41.4471   -4.6844 O   0  0  0  0  0  0  0  0  0  0  0  0
  -21.8926  -41.9190   -5.9158 C   0  0  0  0  0  0  0  0  0  0  0  0
  -21.3210  -41.0504   -6.9763 C   0  0  0  0  0  0  0  0  0  0  0  0
  -21.8622  -39.8479   -7.3245 C   0  0  0  0  0  0  0  0  0  0  0  0
  -21.3302  -38.9996   -8.3360 C   0  0  0  0  0  0  0  0  0  0  0  0
  -20.2000  -39.3967   -9.0205 C   0  0  0  0  0  0  0  0  0  0  0  0
  -19.6225  -40.6061   -8.6965 C   0  0  0  0  0  0  0  0  0  0  0  0
  -20.1999  -41.4093   -7.6770 C   0  0  0  0  0  0  0  0  0  0  0  0
  -18.4264  -41.2964   -9.2308 C   0  0  0  0  0  0  0  0  0  0  0  0
  -18.5087  -42.6102   -9.4100 O   0  0  0  0  0  0  0  0  0  0  0  0
  -17.1560  -40.8559   -9.6098 N   0  0  0  0  0  0  0  0  0  0  0  0
  -16.2298  -40.0157   -8.8820 C   0  0  1  0  0  0  0  0  0  0  0  0
  -16.4343  -38.5586   -9.1481 C   0  0  0  0  0  0  0  0  0  0  0  0
  -15.9683  -38.1488  -10.5308 C   0  0  2  0  0  0  0  0  0  0  0  0
  -14.6692  -37.4196  -10.3663 C   0  0  0  0  0  0  0  0  0  0  0  0
  -17.0058  -37.3452  -11.2647 C   0  0  0  0  0  0  0  0  0  0  0  0
  -17.2160  -35.9804  -10.6142 C   0  0  0  0  0  0  0  0  0  0  0  0
  -18.4381  -35.3010  -11.1945 C   0  0  0  0  0  0  0  0  0  0  0  0
  -19.6531  -35.9659  -10.6560 C   0  0  0  0  0  0  0  0  0  0  0  0
  -20.8197  -35.0346  -10.4020 C   0  0  0  0  0  0  0  0  0  0  0  0
  -21.9716  -35.9452   -9.9561 C   0  0  0  0  0  0  0  0  0  0  0  0
  -21.8034  -36.4250   -8.5488 C   0  0  0  0  0  0  0  0  0  0  0  0
  -22.1433  -37.8313   -8.4304 N   0  0  0  0  0  0  0  0  0  0  0  0
  -16.1945  -40.2880   -7.4178 C   0  0  2  0  0  0  0  0  0  0  0  0
  -14.9766  -40.0479   -6.7988 O   0  0  0  0  0  0  0  0  0  0  0  0
  -16.6105  -41.6948   -7.0508 C   0  0  0  0  0  0  0  0  0  0  0  0
  -15.6610  -42.7033   -7.3997 N   0  0  0  0  0  0  0  0  0  0  0  0
  -16.1302  -43.6688   -8.3451 C   0  0  0  0  0  0  0  0  0  0  0  0
  -16.9108  -44.7533   -7.7252 C   0  0  0  0  0  0  0  0  0  0  0  0
  -18.1083  -45.1268   -8.2861 C   0  0  0  0  0  0  0  0  0  0  0  0
  -18.8886  -46.1324   -7.7542 C   0  0  0  0  0  0  0  0  0  0  0  0
  -20.0513  -46.3539   -8.4649 O   0  0  0  0  0  0  0  0  0  0  0  0
  -20.9064  -47.4831   -8.3410 C   0  0  0  0  0  0  0  0  0  0  0  0
  -20.0874  -48.6959   -7.9750 C   0  0  0  0  0  0  0  0  0  0  0  0
  -19.9182  -48.8427   -6.4943 C   0  0  0  0  0  0  0  0  0  0  0  0
  -19.1069  -47.8153   -5.9558 O   0  0  0  0  0  0  0  0  0  0  0  0
  -18.4339  -46.7825   -6.6091 C   0  0  0  0  0  0  0  0  0  0  0  0
  -17.2501  -46.4273   -6.0384 C   0  0  0  0  0  0  0  0  0  0  0  0
  -16.4957  -45.4190   -6.5951 C   0  0  0  0  0  0  0  0  0  0  0  0
  1  2  1  0
  2  3  1  0
  3  4  1  0
  4  5  2  0
  5  6  1  0
  6  7  2  0
  7  8  1  0
  8  9  2  0
  8 10  1  0
 10 11  2  0
 10 12  1  0
 12 13  1  0
 13 14  1  1
 14 15  1  0
 15 16  1  1
 15 17  1  0
 17 18  1  0
 18 19  1  0
 19 20  1  0
 20 21  1  0
 21 22  1  0
 22 23  1  0
 23 24  1  0
 13 25  1  0
 25 26  1  6
 25 27  1  0
 27 28  1  0
 28 29  1  0
 29 30  1  0
 30 31  2  0
 31 32  1  0
 32 33  1  0
 33 34  1  0
 34 35  1  0
 35 36  1  0
 36 37  1  0
 37 38  1  0
 38 39  1  0
 39 40  2  0
  9  4  1  0
 24  6  1  0
 38 32  2  0
 40 30  1  0
M  END
$$$$
