
     RDKit          3D

 40 43  0  0  0  0  0  0  0  0999 V2000
  -17.0831  -47.4671   -7.4298 C   0  0  0  0  0  0  0  0  0  0  0  0
  -17.2627  -46.1152   -7.2715 O   0  0  0  0  0  0  0  0  0  0  0  0
  -18.0076  -45.7625   -6.1567 C   0  0  0  0  0  0  0  0  0  0  0  0
  -18.7751  -44.5315   -6.4746 C   0  0  0  0  0  0  0  0  0  0  0  0
  -19.9455  -44.2041   -5.8553 C   0  0  0  0  0  0  0  0  0  0  0  0
  -20.6959  -43.0295   -6.1433 C   0  0  0  0  0  0  0  0  0  0  0  0
  -20.2325  -42.1545   -7.1040 C   0  0  0  0  0  0  0  0  0  0  0  0
  -19.0518  -42.4498   -7.7520 C   0  0  0  0  0  0  0  0  0  0  0  0
  -18.3473  -43.6381   -7.4208 C   0  0  0  0  0  0  0  0  0  0  0  0
  -18.3025  -41.7257   -8.8040 C   0  0  0  0  0  0  0  0  0  0  0  0
  -17.7615  -42.4505   -9.7771 O   0  0  0  0  0  0  0  0  0  0  0  0
  -18.0159  -40.3752   -9.0182 N   0  0  0  0  0  0  0  0  0  0  0  0
  -17.4736  -39.4026   -8.0945 C   0  0  1  0  0  0  0  0  0  0  0  0
  -18.5304  -38.6959   -7.3074 C   0  0  0  0  0  0  0  0  0  0  0  0
  -19.3120  -37.7027   -8.1436 C   0  0  2  0  0  0  0  0  0  0  0  0
  -18.8322  -36.3320   -7.7732 C   0  0  0  0  0  0  0  0  0  0  0  0
  -20.7976  -37.8700   -7.9827 C   0  0  0  0  0  0  0  0  0  0  0  0
  -21.2524  -37.4857   -6.5773 C   0  0  0  0  0  0  0  0  0  0  0  0
  -22.6879  -37.9106   -6.3516 C   0  0  0  0  0  0  0  0  0  0  0  0
  -22.7256  -39.3856   -6.1752 C   0  0  0  0  0  0  0  0  0  0  0  0
  -23.7557  -39.8739   -5.1787 C   0  0  0  0  0  0  0  0  0  0  0  0
  -23.6816  -41.4055   -5.2415 C   0  0  0  0  0  0  0  0  0  0  0  0
  -22.4731  -41.9442   -4.5428 C   0  0  0  0  0  0  0  0  0  0  0  0
  -21.8546  -43.0090   -5.3115 N   0  0  0  0  0  0  0  0  0  0  0  0
  -16.4193  -39.9502   -7.1956 C   0  0  2  0  0  0  0  0  0  0  0  0
  -16.3243  -39.3415   -5.9528 O   0  0  0  0  0  0  0  0  0  0  0  0
  -15.0350  -39.9378   -7.8040 C   0  0  0  0  0  0  0  0  0  0  0  0
  -15.0080  -39.6870   -9.2100 N   0  0  0  0  0  0  0  0  0  0  0  0
  -15.7167  -40.6426  -10.0043 C   0  0  0  0  0  0  0  0  0  0  0  0
  -14.8294  -41.6041  -10.6809 C   0  0  0  0  0  0  0  0  0  0  0  0
  -14.3715  -41.3233  -11.9457 C   0  0  0  0  0  0  0  0  0  0  0  0
  -13.5404  -42.1817  -12.6353 C   0  0  0  0  0  0  0  0  0  0  0  0
  -13.1944  -41.7162  -13.8881 O   0  0  0  0  0  0  0  0  0  0  0  0
  -12.1507  -42.2220  -14.7107 C   0  0  0  0  0  0  0  0  0  0  0  0
  -11.0324  -42.7408  -13.8413 C   0  0  0  0  0  0  0  0  0  0  0  0
  -11.2286  -44.1749  -13.4573 C   0  0  0  0  0  0  0  0  0  0  0  0
  -12.3286  -44.3363  -12.5809 O   0  0  0  0  0  0  0  0  0  0  0  0
  -13.1610  -43.3701  -12.0153 C   0  0  0  0  0  0  0  0  0  0  0  0
  -13.6038  -43.6666  -10.7627 C   0  0  0  0  0  0  0  0  0  0  0  0
  -14.4325  -42.7874  -10.1023 C   0  0  0  0  0  0  0  0  0  0  0  0
  1  2  1  0
  2  3  1  0
  3  4  1  0
  4  5  2  0
  5  6  1  0
  6  7  2  0
  7  8  1  0
  8  9  2  0
  8 10  1  0
 10 11  2  0
 10 12  1  0
 12 13  1  0
 13 14  1  1
 14 15  1  0
 15 16  1  1
 15 17  1  0
 17 18  1  0
 18 19  1  0
 19 20  1  0
 20 21  1  0
 21 22  1  0
 22 23  1  0
 23 24  1  0
 13 25  1  0
 25 26  1  1
 25 27  1  0
 27 28  1  0
 28 29  1  0
 29 30  1  0
 30 31  2  0
 31 32  1  0
 32 33  1  0
 33 34  1  0
 34 35  1  0
 35 36  1  0
 36 37  1  0
 37 38  1  0
 38 39  1  0
 39 40  2  0
  9  4  1  0
 24  6  1  0
 38 32  2  0
 40 30  1  0
M  END
$$$$
