
     RDKit          3D

 40 43  0  0  0  0  0  0  0  0999 V2000
  -24.0535  -39.6508   -8.6337 C   0  0  0  0  0  0  0  0  0  0  0  0
  -23.1234  -39.0829   -9.4689 O   0  0  0  0  0  0  0  0  0  0  0  0
  -22.1643  -38.3181   -8.8230 C   0  0  0  0  0  0  0  0  0  0  0  0
  -20.9092  -38.3712   -9.6152 C   0  0  0  0  0  0  0  0  0  0  0  0
  -20.6454  -37.5209  -10.6485 C   0  0  0  0  0  0  0  0  0  0  0  0
  -19.4494  -37.5534  -11.4194 C   0  0  0  0  0  0  0  0  0  0  0  0
  -18.4842  -38.4936  -11.1233 C   0  0  0  0  0  0  0  0  0  0  0  0
  -18.7132  -39.3708  -10.0845 C   0  0  0  0  0  0  0  0  0  0  0  0
  -19.9271  -39.2891   -9.3512 C   0  0  0  0  0  0  0  0  0  0  0  0
  -17.8889  -40.4669   -9.5263 C   0  0  0  0  0  0  0  0  0  0  0  0
  -18.5145  -41.5873   -9.1824 O   0  0  0  0  0  0  0  0  0  0  0  0
  -16.5236  -40.5988   -9.2612 N   0  0  0  0  0  0  0  0  0  0  0  0
  -15.6449  -39.6998   -8.5447 C   0  0  1  0  0  0  0  0  0  0  0  0
  -15.0199  -38.6694   -9.4298 C   0  0  0  0  0  0  0  0  0  0  0  0
  -13.9509  -39.2501  -10.3336 C   0  0  2  0  0  0  0  0  0  0  0  0
  -12.6222  -38.8431   -9.7723 C   0  0  0  0  0  0  0  0  0  0  0  0
  -14.1352  -38.8387  -11.7681 C   0  0  0  0  0  0  0  0  0  0  0  0
  -13.8905  -37.3436  -11.9545 C   0  0  0  0  0  0  0  0  0  0  0  0
  -14.3374  -36.9027  -13.3321 C   0  0  0  0  0  0  0  0  0  0  0  0
  -15.8227  -36.8650  -13.3614 C   0  0  0  0  0  0  0  0  0  0  0  0
  -16.4073  -35.7496  -14.2019 C   0  0  0  0  0  0  0  0  0  0  0  0
  -17.9253  -35.9718  -14.1655 C   0  0  0  0  0  0  0  0  0  0  0  0
  -18.5279  -35.5596  -12.8594 C   0  0  0  0  0  0  0  0  0  0  0  0
  -19.5118  -36.5267  -12.4078 N   0  0  0  0  0  0  0  0  0  0  0  0
  -16.2761  -39.0645   -7.3542 C   0  0  2  0  0  0  0  0  0  0  0  0
  -15.5281  -39.1165   -6.1873 O   0  0  0  0  0  0  0  0  0  0  0  0
  -17.6475  -39.6119   -7.0283 C   0  0  0  0  0  0  0  0  0  0  0  0
  -18.5766  -38.6372   -6.5517 N   0  0  0  0  0  0  0  0  0  0  0  0
  -19.4764  -39.1074   -5.5440 C   0  0  0  0  0  0  0  0  0  0  0  0
  -20.2732  -40.2684   -5.9761 C   0  0  0  0  0  0  0  0  0  0  0  0
  -20.3069  -41.3933   -5.1877 C   0  0  0  0  0  0  0  0  0  0  0  0
  -21.0309  -42.5148   -5.5356 C   0  0  0  0  0  0  0  0  0  0  0  0
  -20.9336  -43.5350   -4.6105 O   0  0  0  0  0  0  0  0  0  0  0  0
  -21.7675  -44.6847   -4.5407 C   0  0  0  0  0  0  0  0  0  0  0  0
  -23.1514  -44.3317   -5.0262 C   0  0  0  0  0  0  0  0  0  0  0  0
  -23.2940  -44.4964   -6.5079 C   0  0  0  0  0  0  0  0  0  0  0  0
  -22.5243  -43.5430   -7.2168 O   0  0  0  0  0  0  0  0  0  0  0  0
  -21.7475  -42.4913   -6.7300 C   0  0  0  0  0  0  0  0  0  0  0  0
  -21.7271  -41.3865   -7.5250 C   0  0  0  0  0  0  0  0  0  0  0  0
  -20.9939  -40.2838   -7.1479 C   0  0  0  0  0  0  0  0  0  0  0  0
  1  2  1  0
  2  3  1  0
  3  4  1  0
  4  5  2  0
  5  6  1  0
  6  7  2  0
  7  8  1  0
  8  9  2  0
  8 10  1  0
 10 11  2  0
 10 12  1  0
 12 13  1  0
 13 14  1  6
 14 15  1  0
 15 16  1  1
 15 17  1  0
 17 18  1  0
 18 19  1  0
 19 20  1  0
 20 21  1  0
 21 22  1  0
 22 23  1  0
 23 24  1  0
 13 25  1  0
 25 26  1  1
 25 27  1  0
 27 28  1  0
 28 29  1  0
 29 30  1  0
 30 31  2  0
 31 32  1  0
 32 33  1  0
 33 34  1  0
 34 35  1  0
 35 36  1  0
 36 37  1  0
 37 38  1  0
 38 39  1  0
 39 40  2  0
  9  4  1  0
 24  6  1  0
 38 32  2  0
 40 30  1  0
M  END
$$$$
