
     RDKit          3D

 38 40  0  0  0  0  0  0  0  0999 V2000
  -12.4712  -34.1133  -12.1567 C   0  0  0  0  0  0  0  0  0  0  0  0
  -11.4590  -35.2330  -12.3337 C   0  0  0  0  0  0  0  0  0  0  0  0
  -11.7151  -36.2061  -11.1864 C   0  0  0  0  0  0  0  0  0  0  0  0
  -12.6755  -37.2960  -11.6185 C   0  0  0  0  0  0  0  0  0  0  0  0
  -12.8859  -38.2240  -10.5543 N   0  0  0  0  0  0  0  0  0  0  0  0
  -13.7199  -39.3883  -10.7461 C   0  0  0  0  0  0  0  0  0  0  0  0
  -14.0844  -39.5928  -11.9139 O   0  0  0  0  0  0  0  0  0  0  0  0
  -14.0144  -40.1589   -9.5368 C   0  0  2  0  0  0  0  0  0  0  0  0
  -12.9773  -41.2664   -9.3210 C   0  0  0  0  0  0  0  0  0  0  0  0
  -15.3963  -40.6682   -9.3713 C   0  0  0  0  0  0  0  0  0  0  0  0
  -16.5130  -39.7581   -9.7144 C   0  0  2  0  0  0  0  0  0  0  0  0
  -16.2190  -38.4410   -9.8700 O   0  0  0  0  0  0  0  0  0  0  0  0
  -17.6600  -39.9849   -8.7174 C   0  0  2  0  0  0  0  0  0  0  0  0
  -18.3835  -38.6562   -8.4775 C   0  0  0  0  0  0  0  0  0  0  0  0
  -19.8789  -38.8700   -8.5163 C   0  0  0  0  0  0  0  0  0  0  0  0
  -20.7227  -39.3135   -7.5343 C   0  0  0  0  0  0  0  0  0  0  0  0
  -22.0519  -39.5492   -7.8644 C   0  0  0  0  0  0  0  0  0  0  0  0
  -23.1831  -40.1064   -7.1000 C   0  0  0  0  0  0  0  0  0  0  0  0
  -22.9891  -40.8791   -5.8684 C   0  0  0  0  0  0  0  0  0  0  0  0
  -23.0336  -40.1781   -4.6782 C   0  0  0  0  0  0  0  0  0  0  0  0
  -22.8897  -40.7177   -3.4270 C   0  0  0  0  0  0  0  0  0  0  0  0
  -22.6834  -42.0688   -3.3287 C   0  0  0  0  0  0  0  0  0  0  0  0
  -22.6338  -42.7959   -4.4969 C   0  0  0  0  0  0  0  0  0  0  0  0
  -22.7767  -42.2677   -5.7877 C   0  0  0  0  0  0  0  0  0  0  0  0
  -22.7103  -43.0737   -6.8628 O   0  0  0  0  0  0  0  0  0  0  0  0
  -21.8264  -43.4812   -7.8514 C   0  0  0  0  0  0  0  0  0  0  0  0
  -20.6325  -42.6443   -8.0992 C   0  0  0  0  0  0  0  0  0  0  0  0
  -20.7466  -42.0182   -9.2383 O   0  0  0  0  0  0  0  0  0  0  0  0
  -19.4889  -42.4317   -7.3661 N   0  0  0  0  0  0  0  0  0  0  0  0
  -18.1909  -43.0605   -7.2788 C   0  0  1  0  0  0  0  0  0  0  0  0
  -17.9082  -44.1988   -8.1698 C   0  0  0  0  0  0  0  0  0  0  0  0
  -17.1056  -42.0112   -7.2522 C   0  0  0  0  0  0  0  0  0  0  0  0
  -15.9351  -42.4261   -6.9157 O   0  0  0  0  0  0  0  0  0  0  0  0
  -17.2208  -40.6595   -7.5449 N   0  0  0  0  0  0  0  0  0  0  0  0
  -22.4757  -39.3074   -9.2067 C   0  0  0  0  0  0  0  0  0  0  0  0
  -23.8210  -39.5295   -9.5785 O   0  0  0  0  0  0  0  0  0  0  0  0
  -21.6514  -38.8609  -10.1929 C   0  0  0  0  0  0  0  0  0  0  0  0
  -20.3527  -38.6467   -9.8350 C   0  0  0  0  0  0  0  0  0  0  0  0
  1  2  1  0
  2  3  1  0
  3  4  1  0
  4  5  1  0
  5  6  1  0
  6  7  2  0
  6  8  1  0
  8  9  1  6
  8 10  1  0
 10 11  1  0
 11 12  1  1
 11 13  1  0
 13 14  1  1
 14 15  1  0
 15 16  2  0
 16 17  1  0
 17 18  1  0
 18 19  1  0
 19 20  2  0
 20 21  1  0
 21 22  2  0
 22 23  1  0
 23 24  2  0
 24 25  1  0
 25 26  1  0
 26 27  1  0
 27 28  2  0
 27 29  1  0
 29 30  1  0
 30 31  1  6
 30 32  1  0
 32 33  2  0
 32 34  1  0
 17 35  2  0
 35 36  1  0
 35 37  1  0
 37 38  2  0
 24 19  1  0
 34 13  1  0
 38 15  1  0
M  END
$$$$
