
     RDKit          3D

 38 40  0  0  0  0  0  0  0  0999 V2000
  -11.3303  -35.3588  -13.6671 C   0  0  0  0  0  0  0  0  0  0  0  0
  -11.0909  -35.4135  -12.1673 C   0  0  0  0  0  0  0  0  0  0  0  0
  -12.4766  -35.4232  -11.5282 C   0  0  0  0  0  0  0  0  0  0  0  0
  -13.1072  -36.7961  -11.6477 C   0  0  0  0  0  0  0  0  0  0  0  0
  -13.3111  -37.3640  -10.3539 N   0  0  0  0  0  0  0  0  0  0  0  0
  -13.8282  -38.7057  -10.2113 C   0  0  0  0  0  0  0  0  0  0  0  0
  -14.2480  -39.2259  -11.2561 O   0  0  0  0  0  0  0  0  0  0  0  0
  -13.7824  -39.2583   -8.8565 C   0  0  2  0  0  0  0  0  0  0  0  0
  -12.7822  -40.4159   -8.7654 C   0  0  0  0  0  0  0  0  0  0  0  0
  -15.0734  -39.6034   -8.2158 C   0  0  0  0  0  0  0  0  0  0  0  0
  -16.3135  -39.0911   -8.8422 C   0  0  2  0  0  0  0  0  0  0  0  0
  -16.3466  -37.7743   -9.1744 O   0  0  0  0  0  0  0  0  0  0  0  0
  -17.5128  -39.5030   -7.9743 C   0  0  2  0  0  0  0  0  0  0  0  0
  -18.2642  -38.2442   -7.5305 C   0  0  0  0  0  0  0  0  0  0  0  0
  -19.7523  -38.4479   -7.6958 C   0  0  0  0  0  0  0  0  0  0  0  0
  -20.6454  -39.0697   -6.8658 C   0  0  0  0  0  0  0  0  0  0  0  0
  -21.9509  -39.2397   -7.3111 C   0  0  0  0  0  0  0  0  0  0  0  0
  -23.1172  -39.9322   -6.7326 C   0  0  0  0  0  0  0  0  0  0  0  0
  -22.9845  -40.9235   -5.6597 C   0  0  0  0  0  0  0  0  0  0  0  0
  -23.1049  -40.4602   -4.3633 C   0  0  0  0  0  0  0  0  0  0  0  0
  -23.0262  -41.2265   -3.2301 C   0  0  0  0  0  0  0  0  0  0  0  0
  -22.8100  -42.5716   -3.3766 C   0  0  0  0  0  0  0  0  0  0  0  0
  -22.6855  -43.0648   -4.6561 C   0  0  0  0  0  0  0  0  0  0  0  0
  -22.7608  -42.3022   -5.8301 C   0  0  0  0  0  0  0  0  0  0  0  0
  -22.6239  -42.8904   -7.0323 O   0  0  0  0  0  0  0  0  0  0  0  0
  -21.6805  -43.1031   -8.0270 C   0  0  0  0  0  0  0  0  0  0  0  0
  -20.4843  -42.2336   -8.0427 C   0  0  0  0  0  0  0  0  0  0  0  0
  -20.5407  -41.4036   -9.0479 O   0  0  0  0  0  0  0  0  0  0  0  0
  -19.3868  -42.1625   -7.2174 N   0  0  0  0  0  0  0  0  0  0  0  0
  -18.0887  -42.7955   -7.1750 C   0  0  1  0  0  0  0  0  0  0  0  0
  -17.7423  -43.7447   -8.2468 C   0  0  0  0  0  0  0  0  0  0  0  0
  -17.0189  -41.7693   -6.8880 C   0  0  0  0  0  0  0  0  0  0  0  0
  -15.8648  -42.2395   -6.5683 O   0  0  0  0  0  0  0  0  0  0  0  0
  -17.1332  -40.3868   -6.9266 N   0  0  0  0  0  0  0  0  0  0  0  0
  -22.3004  -38.7488   -8.6060 C   0  0  0  0  0  0  0  0  0  0  0  0
  -23.6196  -38.8977   -9.0906 O   0  0  0  0  0  0  0  0  0  0  0  0
  -21.4265  -38.1234   -9.4406 C   0  0  0  0  0  0  0  0  0  0  0  0
  -20.1529  -37.9798   -8.9739 C   0  0  0  0  0  0  0  0  0  0  0  0
  1  2  1  0
  2  3  1  0
  3  4  1  0
  4  5  1  0
  5  6  1  0
  6  7  2  0
  6  8  1  0
  8  9  1  6
  8 10  1  0
 10 11  1  0
 11 12  1  1
 11 13  1  0
 13 14  1  1
 14 15  1  0
 15 16  2  0
 16 17  1  0
 17 18  1  0
 18 19  1  0
 19 20  2  0
 20 21  1  0
 21 22  2  0
 22 23  1  0
 23 24  2  0
 24 25  1  0
 25 26  1  0
 26 27  1  0
 27 28  2  0
 27 29  1  0
 29 30  1  0
 30 31  1  6
 30 32  1  0
 32 33  2  0
 32 34  1  0
 17 35  2  0
 35 36  1  0
 35 37  1  0
 37 38  2  0
 24 19  1  0
 34 13  1  0
 38 15  1  0
M  END
$$$$
