
     RDKit          3D

 38 40  0  0  0  0  0  0  0  0999 V2000
  -10.2910  -36.6399  -13.5356 C   0  0  0  0  0  0  0  0  0  0  0  0
  -11.2571  -36.4149  -12.3842 C   0  0  0  0  0  0  0  0  0  0  0  0
  -12.0708  -37.7009  -12.2709 C   0  0  0  0  0  0  0  0  0  0  0  0
  -13.5190  -37.3870  -11.9532 C   0  0  0  0  0  0  0  0  0  0  0  0
  -13.9059  -38.0101  -10.7285 N   0  0  0  0  0  0  0  0  0  0  0  0
  -14.2470  -39.4137  -10.6915 C   0  0  0  0  0  0  0  0  0  0  0  0
  -14.7217  -39.8718  -11.7419 O   0  0  0  0  0  0  0  0  0  0  0  0
  -13.9837  -40.0933   -9.4220 C   0  0  2  0  0  0  0  0  0  0  0  0
  -13.5098  -41.5323   -9.6532 C   0  0  0  0  0  0  0  0  0  0  0  0
  -15.0368  -40.0283   -8.3813 C   0  0  0  0  0  0  0  0  0  0  0  0
  -16.1043  -39.0146   -8.5422 C   0  0  2  0  0  0  0  0  0  0  0  0
  -15.7813  -37.7215   -8.2798 O   0  0  0  0  0  0  0  0  0  0  0  0
  -17.3452  -39.4749   -7.7613 C   0  0  2  0  0  0  0  0  0  0  0  0
  -18.1196  -38.2431   -7.2827 C   0  0  0  0  0  0  0  0  0  0  0  0
  -19.5973  -38.4343   -7.5342 C   0  0  0  0  0  0  0  0  0  0  0  0
  -20.5302  -39.1022   -6.7881 C   0  0  0  0  0  0  0  0  0  0  0  0
  -21.8114  -39.2437   -7.3077 C   0  0  0  0  0  0  0  0  0  0  0  0
  -23.0043  -39.9670   -6.8303 C   0  0  0  0  0  0  0  0  0  0  0  0
  -22.9245  -41.0199   -5.8122 C   0  0  0  0  0  0  0  0  0  0  0  0
  -23.1106  -40.6333   -4.4985 C   0  0  0  0  0  0  0  0  0  0  0  0
  -23.0878  -41.4650   -3.4097 C   0  0  0  0  0  0  0  0  0  0  0  0
  -22.8629  -42.7995   -3.6241 C   0  0  0  0  0  0  0  0  0  0  0  0
  -22.6735  -43.2169   -4.9224 C   0  0  0  0  0  0  0  0  0  0  0  0
  -22.6907  -42.3865   -6.0519 C   0  0  0  0  0  0  0  0  0  0  0  0
  -22.4927  -42.9033   -7.2781 O   0  0  0  0  0  0  0  0  0  0  0  0
  -21.5002  -43.0587   -8.2349 C   0  0  0  0  0  0  0  0  0  0  0  0
  -20.3059  -42.1918   -8.1394 C   0  0  0  0  0  0  0  0  0  0  0  0
  -20.3128  -41.3040   -9.0956 O   0  0  0  0  0  0  0  0  0  0  0  0
  -19.2514  -42.1711   -7.2572 N   0  0  0  0  0  0  0  0  0  0  0  0
  -17.9562  -42.8077   -7.1869 C   0  0  1  0  0  0  0  0  0  0  0  0
  -17.5552  -43.6928   -8.2939 C   0  0  0  0  0  0  0  0  0  0  0  0
  -16.9036  -41.8019   -6.7866 C   0  0  0  0  0  0  0  0  0  0  0  0
  -15.7664  -42.2920   -6.4375 O   0  0  0  0  0  0  0  0  0  0  0  0
  -17.0176  -40.4193   -6.7496 N   0  0  0  0  0  0  0  0  0  0  0  0
  -22.0959  -38.6770   -8.5875 C   0  0  0  0  0  0  0  0  0  0  0  0
  -23.3890  -38.7949   -9.1457 O   0  0  0  0  0  0  0  0  0  0  0  0
  -21.1820  -38.0050   -9.3389 C   0  0  0  0  0  0  0  0  0  0  0  0
  -19.9337  -37.8912   -8.8011 C   0  0  0  0  0  0  0  0  0  0  0  0
  1  2  1  0
  2  3  1  0
  3  4  1  0
  4  5  1  0
  5  6  1  0
  6  7  2  0
  6  8  1  0
  8  9  1  6
  8 10  1  0
 10 11  1  0
 11 12  1  1
 11 13  1  0
 13 14  1  1
 14 15  1  0
 15 16  2  0
 16 17  1  0
 17 18  1  0
 18 19  1  0
 19 20  2  0
 20 21  1  0
 21 22  2  0
 22 23  1  0
 23 24  2  0
 24 25  1  0
 25 26  1  0
 26 27  1  0
 27 28  2  0
 27 29  1  0
 29 30  1  0
 30 31  1  6
 30 32  1  0
 32 33  2  0
 32 34  1  0
 17 35  2  0
 35 36  1  0
 35 37  1  0
 37 38  2  0
 24 19  1  0
 34 13  1  0
 38 15  1  0
M  END
$$$$
