
     RDKit          3D

 38 40  0  0  0  0  0  0  0  0999 V2000
  -12.7637  -35.7775  -14.4316 C   0  0  0  0  0  0  0  0  0  0  0  0
  -13.1153  -36.7040  -13.2793 C   0  0  0  0  0  0  0  0  0  0  0  0
  -11.9612  -36.5861  -12.2880 C   0  0  0  0  0  0  0  0  0  0  0  0
  -12.4420  -36.8631  -10.8776 C   0  0  0  0  0  0  0  0  0  0  0  0
  -12.4724  -38.2686  -10.6296 N   0  0  0  0  0  0  0  0  0  0  0  0
  -13.7076  -38.9268  -10.2703 C   0  0  0  0  0  0  0  0  0  0  0  0
  -14.6331  -38.7992  -11.0861 O   0  0  0  0  0  0  0  0  0  0  0  0
  -13.6898  -39.6491   -8.9971 C   0  0  2  0  0  0  0  0  0  0  0  0
  -12.9129  -40.9645   -9.1188 C   0  0  0  0  0  0  0  0  0  0  0  0
  -14.9855  -39.8449   -8.3049 C   0  0  0  0  0  0  0  0  0  0  0  0
  -16.1834  -39.1968   -8.8863 C   0  0  2  0  0  0  0  0  0  0  0  0
  -16.0931  -37.8754   -9.1881 O   0  0  0  0  0  0  0  0  0  0  0  0
  -17.3960  -39.5092   -7.9958 C   0  0  2  0  0  0  0  0  0  0  0  0
  -18.1482  -38.2078   -7.7013 C   0  0  0  0  0  0  0  0  0  0  0  0
  -19.6348  -38.4242   -7.8644 C   0  0  0  0  0  0  0  0  0  0  0  0
  -20.5417  -38.9501   -6.9846 C   0  0  0  0  0  0  0  0  0  0  0  0
  -21.8417  -39.1639   -7.4272 C   0  0  0  0  0  0  0  0  0  0  0  0
  -23.0186  -39.7866   -6.7936 C   0  0  0  0  0  0  0  0  0  0  0  0
  -22.9047  -40.6564   -5.6181 C   0  0  0  0  0  0  0  0  0  0  0  0
  -23.0409  -40.0552   -4.3812 C   0  0  0  0  0  0  0  0  0  0  0  0
  -22.9808  -40.6946   -3.1708 C   0  0  0  0  0  0  0  0  0  0  0  0
  -22.7683  -42.0482   -3.1680 C   0  0  0  0  0  0  0  0  0  0  0  0
  -22.6284  -42.6773   -4.3847 C   0  0  0  0  0  0  0  0  0  0  0  0
  -22.6845  -42.0460   -5.6353 C   0  0  0  0  0  0  0  0  0  0  0  0
  -22.5336  -42.7612   -6.7648 O   0  0  0  0  0  0  0  0  0  0  0  0
  -21.5776  -43.0827   -7.7173 C   0  0  0  0  0  0  0  0  0  0  0  0
  -20.3777  -42.2232   -7.8102 C   0  0  0  0  0  0  0  0  0  0  0  0
  -20.4169  -41.5066   -8.8999 O   0  0  0  0  0  0  0  0  0  0  0  0
  -19.2914  -42.0662   -6.9821 N   0  0  0  0  0  0  0  0  0  0  0  0
  -17.9965  -42.6944   -6.8534 C   0  0  1  0  0  0  0  0  0  0  0  0
  -17.6396  -43.7548   -7.8113 C   0  0  0  0  0  0  0  0  0  0  0  0
  -16.9266  -41.6460   -6.6640 C   0  0  0  0  0  0  0  0  0  0  0  0
  -15.7788  -42.0819   -6.2792 O   0  0  0  0  0  0  0  0  0  0  0  0
  -17.0345  -40.2755   -6.8534 N   0  0  0  0  0  0  0  0  0  0  0  0
  -22.1714  -38.8150   -8.7724 C   0  0  0  0  0  0  0  0  0  0  0  0
  -23.4845  -39.0119   -9.2565 O   0  0  0  0  0  0  0  0  0  0  0  0
  -21.2836  -38.2859   -9.6574 C   0  0  0  0  0  0  0  0  0  0  0  0
  -20.0160  -38.0960   -9.1911 C   0  0  0  0  0  0  0  0  0  0  0  0
  1  2  1  0
  2  3  1  0
  3  4  1  0
  4  5  1  0
  5  6  1  0
  6  7  2  0
  6  8  1  0
  8  9  1  6
  8 10  1  0
 10 11  1  0
 11 12  1  1
 11 13  1  0
 13 14  1  1
 14 15  1  0
 15 16  2  0
 16 17  1  0
 17 18  1  0
 18 19  1  0
 19 20  2  0
 20 21  1  0
 21 22  2  0
 22 23  1  0
 23 24  2  0
 24 25  1  0
 25 26  1  0
 26 27  1  0
 27 28  2  0
 27 29  1  0
 29 30  1  0
 30 31  1  6
 30 32  1  0
 32 33  2  0
 32 34  1  0
 17 35  2  0
 35 36  1  0
 35 37  1  0
 37 38  2  0
 24 19  1  0
 34 13  1  0
 38 15  1  0
M  END
$$$$
