
     RDKit          3D

 38 40  0  0  0  0  0  0  0  0999 V2000
  -14.0886  -34.2744  -11.6881 C   0  0  0  0  0  0  0  0  0  0  0  0
  -12.6461  -34.4878  -11.2598 C   0  0  0  0  0  0  0  0  0  0  0  0
  -12.6273  -35.8251  -10.5249 C   0  0  0  0  0  0  0  0  0  0  0  0
  -12.5128  -36.9711  -11.5100 C   0  0  0  0  0  0  0  0  0  0  0  0
  -12.6084  -38.2227  -10.8302 N   0  0  0  0  0  0  0  0  0  0  0  0
  -13.8861  -38.7145  -10.3681 C   0  0  0  0  0  0  0  0  0  0  0  0
  -14.7518  -38.8480  -11.2462 O   0  0  0  0  0  0  0  0  0  0  0  0
  -13.9757  -38.9847   -8.9322 C   0  0  2  0  0  0  0  0  0  0  0  0
  -12.7663  -39.7901   -8.4448 C   0  0  0  0  0  0  0  0  0  0  0  0
  -15.2470  -39.5500   -8.4217 C   0  0  0  0  0  0  0  0  0  0  0  0
  -16.5068  -39.0984   -9.0555 C   0  0  2  0  0  0  0  0  0  0  0  0
  -16.5873  -37.7931   -9.4228 O   0  0  0  0  0  0  0  0  0  0  0  0
  -17.6874  -39.5282   -8.1707 C   0  0  2  0  0  0  0  0  0  0  0  0
  -18.4600  -38.2818   -7.7284 C   0  0  0  0  0  0  0  0  0  0  0  0
  -19.9453  -38.5179   -7.8751 C   0  0  0  0  0  0  0  0  0  0  0  0
  -20.8158  -39.1514   -7.0301 C   0  0  0  0  0  0  0  0  0  0  0  0
  -22.1223  -39.3523   -7.4591 C   0  0  0  0  0  0  0  0  0  0  0  0
  -23.2672  -40.0642   -6.8620 C   0  0  0  0  0  0  0  0  0  0  0  0
  -23.1018  -41.0438   -5.7829 C   0  0  0  0  0  0  0  0  0  0  0  0
  -23.2174  -40.5726   -4.4889 C   0  0  0  0  0  0  0  0  0  0  0  0
  -23.1098  -41.3278   -3.3506 C   0  0  0  0  0  0  0  0  0  0  0  0
  -22.8672  -42.6692   -3.4890 C   0  0  0  0  0  0  0  0  0  0  0  0
  -22.7467  -43.1701   -4.7659 C   0  0  0  0  0  0  0  0  0  0  0  0
  -22.8511  -42.4189   -5.9450 C   0  0  0  0  0  0  0  0  0  0  0  0
  -22.7154  -43.0138   -7.1439 O   0  0  0  0  0  0  0  0  0  0  0  0
  -21.7790  -43.2149   -8.1476 C   0  0  0  0  0  0  0  0  0  0  0  0
  -20.6015  -42.3207   -8.1838 C   0  0  0  0  0  0  0  0  0  0  0  0
  -20.6866  -41.5003   -9.1948 O   0  0  0  0  0  0  0  0  0  0  0  0
  -19.4966  -42.2200   -7.3716 N   0  0  0  0  0  0  0  0  0  0  0  0
  -18.1851  -42.8254   -7.3390 C   0  0  1  0  0  0  0  0  0  0  0  0
  -17.8310  -43.7758   -8.4072 C   0  0  0  0  0  0  0  0  0  0  0  0
  -17.1340  -41.7748   -7.0723 C   0  0  0  0  0  0  0  0  0  0  0  0
  -15.9667  -42.2182   -6.7620 O   0  0  0  0  0  0  0  0  0  0  0  0
  -17.2776  -40.3953   -7.1205 N   0  0  0  0  0  0  0  0  0  0  0  0
  -22.4965  -38.8794   -8.7539 C   0  0  0  0  0  0  0  0  0  0  0  0
  -23.8177  -39.0597   -9.2222 O   0  0  0  0  0  0  0  0  0  0  0  0
  -21.6454  -38.2426   -9.6032 C   0  0  0  0  0  0  0  0  0  0  0  0
  -20.3699  -38.0686   -9.1522 C   0  0  0  0  0  0  0  0  0  0  0  0
  1  2  1  0
  2  3  1  0
  3  4  1  0
  4  5  1  0
  5  6  1  0
  6  7  2  0
  6  8  1  0
  8  9  1  6
  8 10  1  0
 10 11  1  0
 11 12  1  1
 11 13  1  0
 13 14  1  1
 14 15  1  0
 15 16  2  0
 16 17  1  0
 17 18  1  0
 18 19  1  0
 19 20  2  0
 20 21  1  0
 21 22  2  0
 22 23  1  0
 23 24  2  0
 24 25  1  0
 25 26  1  0
 26 27  1  0
 27 28  2  0
 27 29  1  0
 29 30  1  0
 30 31  1  6
 30 32  1  0
 32 33  2  0
 32 34  1  0
 17 35  2  0
 35 36  1  0
 35 37  1  0
 37 38  2  0
 24 19  1  0
 34 13  1  0
 38 15  1  0
M  END
$$$$
