
     RDKit          3D

 38 40  0  0  0  0  0  0  0  0999 V2000
  -12.5694  -34.4679  -11.9203 C   0  0  0  0  0  0  0  0  0  0  0  0
  -12.0903  -35.9083  -11.9944 C   0  0  0  0  0  0  0  0  0  0  0  0
  -12.1731  -36.4447  -10.5682 C   0  0  0  0  0  0  0  0  0  0  0  0
  -11.6947  -37.8817  -10.5124 C   0  0  0  0  0  0  0  0  0  0  0  0
  -12.5543  -38.7222  -11.2822 N   0  0  0  0  0  0  0  0  0  0  0  0
  -13.8537  -39.1052  -10.7796 C   0  0  0  0  0  0  0  0  0  0  0  0
  -14.7933  -38.9639  -11.5768 O   0  0  0  0  0  0  0  0  0  0  0  0
  -13.8753  -39.6046   -9.4037 C   0  0  2  0  0  0  0  0  0  0  0  0
  -12.7948  -40.6693   -9.1852 C   0  0  0  0  0  0  0  0  0  0  0  0
  -15.1823  -40.0356   -8.8541 C   0  0  0  0  0  0  0  0  0  0  0  0
  -16.3396  -39.1295   -9.0347 C   0  0  2  0  0  0  0  0  0  0  0  0
  -16.1051  -37.7941   -8.9519 O   0  0  0  0  0  0  0  0  0  0  0  0
  -17.4720  -39.5810   -8.0994 C   0  0  2  0  0  0  0  0  0  0  0  0
  -18.1711  -38.3438   -7.5278 C   0  0  0  0  0  0  0  0  0  0  0  0
  -19.6700  -38.5265   -7.5862 C   0  0  0  0  0  0  0  0  0  0  0  0
  -20.5028  -39.1876   -6.7245 C   0  0  0  0  0  0  0  0  0  0  0  0
  -21.8411  -39.3221   -7.0743 C   0  0  0  0  0  0  0  0  0  0  0  0
  -22.9667  -40.0375   -6.4453 C   0  0  0  0  0  0  0  0  0  0  0  0
  -22.7624  -41.0892   -5.4436 C   0  0  0  0  0  0  0  0  0  0  0  0
  -22.7753  -40.6994   -4.1178 C   0  0  0  0  0  0  0  0  0  0  0  0
  -22.6172  -41.5294   -3.0391 C   0  0  0  0  0  0  0  0  0  0  0  0
  -22.4295  -42.8656   -3.2774 C   0  0  0  0  0  0  0  0  0  0  0  0
  -22.4115  -43.2862   -4.5884 C   0  0  0  0  0  0  0  0  0  0  0  0
  -22.5693  -42.4576   -5.7082 C   0  0  0  0  0  0  0  0  0  0  0  0
  -22.5341  -42.9775   -6.9485 O   0  0  0  0  0  0  0  0  0  0  0  0
  -21.6742  -43.1405   -8.0249 C   0  0  0  0  0  0  0  0  0  0  0  0
  -20.4725  -42.2806   -8.0861 C   0  0  0  0  0  0  0  0  0  0  0  0
  -20.5975  -41.3944   -9.0356 O   0  0  0  0  0  0  0  0  0  0  0  0
  -19.3130  -42.2649   -7.3473 N   0  0  0  0  0  0  0  0  0  0  0  0
  -18.0232  -42.9092   -7.4431 C   0  0  1  0  0  0  0  0  0  0  0  0
  -17.7734  -43.7985   -8.5904 C   0  0  0  0  0  0  0  0  0  0  0  0
  -16.9220  -41.9091   -7.1842 C   0  0  0  0  0  0  0  0  0  0  0  0
  -15.7521  -42.4055   -6.9834 O   0  0  0  0  0  0  0  0  0  0  0  0
  -17.0222  -40.5258   -7.1361 N   0  0  0  0  0  0  0  0  0  0  0  0
  -22.2850  -38.7557   -8.3081 C   0  0  0  0  0  0  0  0  0  0  0  0
  -23.6398  -38.8668   -8.6946 O   0  0  0  0  0  0  0  0  0  0  0  0
  -21.4717  -38.0905   -9.1726 C   0  0  0  0  0  0  0  0  0  0  0  0
  -20.1639  -37.9834   -8.8005 C   0  0  0  0  0  0  0  0  0  0  0  0
  1  2  1  0
  2  3  1  0
  3  4  1  0
  4  5  1  0
  5  6  1  0
  6  7  2  0
  6  8  1  0
  8  9  1  6
  8 10  1  0
 10 11  1  0
 11 12  1  1
 11 13  1  0
 13 14  1  1
 14 15  1  0
 15 16  2  0
 16 17  1  0
 17 18  1  0
 18 19  1  0
 19 20  2  0
 20 21  1  0
 21 22  2  0
 22 23  1  0
 23 24  2  0
 24 25  1  0
 25 26  1  0
 26 27  1  0
 27 28  2  0
 27 29  1  0
 29 30  1  0
 30 31  1  6
 30 32  1  0
 32 33  2  0
 32 34  1  0
 17 35  2  0
 35 36  1  0
 35 37  1  0
 37 38  2  0
 24 19  1  0
 34 13  1  0
 38 15  1  0
M  END
$$$$
