
     RDKit          3D

 38 40  0  0  0  0  0  0  0  0999 V2000
   -9.2852  -41.4684   -9.6292 C   0  0  0  0  0  0  0  0  0  0  0  0
  -10.1801  -40.3770  -10.1928 C   0  0  0  0  0  0  0  0  0  0  0  0
  -11.1356  -41.0811  -11.1519 C   0  0  0  0  0  0  0  0  0  0  0  0
  -12.0956  -40.0854  -11.7716 C   0  0  0  0  0  0  0  0  0  0  0  0
  -13.4370  -40.5657  -11.6815 N   0  0  0  0  0  0  0  0  0  0  0  0
  -14.2149  -40.3582  -10.4817 C   0  0  0  0  0  0  0  0  0  0  0  0
  -14.6573  -41.3887   -9.9518 O   0  0  0  0  0  0  0  0  0  0  0  0
  -14.3690  -38.9638  -10.0636 C   0  0  2  0  0  0  0  0  0  0  0  0
  -13.0057  -38.2932   -9.8624 C   0  0  0  0  0  0  0  0  0  0  0  0
  -15.2833  -38.6877   -8.9304 C   0  0  0  0  0  0  0  0  0  0  0  0
  -16.6143  -38.1176   -9.2406 C   0  0  2  0  0  0  0  0  0  0  0  0
  -16.7261  -36.7638   -9.2508 O   0  0  0  0  0  0  0  0  0  0  0  0
  -17.6607  -38.7815   -8.3319 C   0  0  2  0  0  0  0  0  0  0  0  0
  -18.5868  -37.7014   -7.7644 C   0  0  0  0  0  0  0  0  0  0  0  0
  -20.0247  -38.1570   -7.8545 C   0  0  0  0  0  0  0  0  0  0  0  0
  -20.7365  -38.9706   -7.0152 C   0  0  0  0  0  0  0  0  0  0  0  0
  -22.0203  -39.3459   -7.3929 C   0  0  0  0  0  0  0  0  0  0  0  0
  -23.0056  -40.2641   -6.7926 C   0  0  0  0  0  0  0  0  0  0  0  0
  -22.6287  -41.2718   -5.7956 C   0  0  0  0  0  0  0  0  0  0  0  0
  -22.7376  -40.9067   -4.4672 C   0  0  0  0  0  0  0  0  0  0  0  0
  -22.4486  -41.7060   -3.3924 C   0  0  0  0  0  0  0  0  0  0  0  0
  -22.0127  -42.9816   -3.6379 C   0  0  0  0  0  0  0  0  0  0  0  0
  -21.8934  -43.3762   -4.9516 C   0  0  0  0  0  0  0  0  0  0  0  0
  -22.1812  -42.5778   -6.0675 C   0  0  0  0  0  0  0  0  0  0  0  0
  -22.0279  -43.0676   -7.3111 O   0  0  0  0  0  0  0  0  0  0  0  0
  -21.1331  -43.0563   -8.3713 C   0  0  0  0  0  0  0  0  0  0  0  0
  -20.1101  -41.9886   -8.4012 C   0  0  0  0  0  0  0  0  0  0  0  0
  -20.3794  -41.1296   -9.3457 O   0  0  0  0  0  0  0  0  0  0  0  0
  -18.9872  -41.7678   -7.6391 N   0  0  0  0  0  0  0  0  0  0  0  0
  -17.5990  -42.1616   -7.7142 C   0  0  1  0  0  0  0  0  0  0  0  0
  -17.1682  -42.9759   -8.8635 C   0  0  0  0  0  0  0  0  0  0  0  0
  -16.7066  -40.9786   -7.4250 C   0  0  0  0  0  0  0  0  0  0  0  0
  -15.4689  -41.2527   -7.2048 O   0  0  0  0  0  0  0  0  0  0  0  0
  -17.0616  -39.6382   -7.3676 N   0  0  0  0  0  0  0  0  0  0  0  0
  -22.5386  -38.8567   -8.6307 C   0  0  0  0  0  0  0  0  0  0  0  0
  -23.8423  -39.2114   -9.0453 O   0  0  0  0  0  0  0  0  0  0  0  0
  -21.8467  -38.0426   -9.4732 C   0  0  0  0  0  0  0  0  0  0  0  0
  -20.5882  -37.7002   -9.0740 C   0  0  0  0  0  0  0  0  0  0  0  0
  1  2  1  0
  2  3  1  0
  3  4  1  0
  4  5  1  0
  5  6  1  0
  6  7  2  0
  6  8  1  0
  8  9  1  1
  8 10  1  0
 10 11  1  0
 11 12  1  1
 11 13  1  0
 13 14  1  1
 14 15  1  0
 15 16  2  0
 16 17  1  0
 17 18  1  0
 18 19  1  0
 19 20  2  0
 20 21  1  0
 21 22  2  0
 22 23  1  0
 23 24  2  0
 24 25  1  0
 25 26  1  0
 26 27  1  0
 27 28  2  0
 27 29  1  0
 29 30  1  0
 30 31  1  6
 30 32  1  0
 32 33  2  0
 32 34  1  0
 17 35  2  0
 35 36  1  0
 35 37  1  0
 37 38  2  0
 24 19  1  0
 34 13  1  0
 38 15  1  0
M  END
$$$$
