
     RDKit          3D

 38 40  0  0  0  0  0  0  0  0999 V2000
  -11.3850  -34.2004  -13.0299 C   0  0  0  0  0  0  0  0  0  0  0  0
  -11.7434  -35.5675  -13.5886 C   0  0  0  0  0  0  0  0  0  0  0  0
  -11.7886  -36.5059  -12.3861 C   0  0  0  0  0  0  0  0  0  0  0  0
  -13.1186  -37.2301  -12.3269 C   0  0  0  0  0  0  0  0  0  0  0  0
  -13.0771  -38.2670  -11.3466 N   0  0  0  0  0  0  0  0  0  0  0  0
  -14.2272  -39.1114  -11.1181 C   0  0  0  0  0  0  0  0  0  0  0  0
  -14.9870  -39.2466  -12.0892 O   0  0  0  0  0  0  0  0  0  0  0  0
  -14.3307  -39.6859   -9.7757 C   0  0  2  0  0  0  0  0  0  0  0  0
  -13.4047  -40.8971   -9.6199 C   0  0  0  0  0  0  0  0  0  0  0  0
  -15.6897  -39.9703   -9.2576 C   0  0  0  0  0  0  0  0  0  0  0  0
  -16.5080  -38.8238   -8.8006 C   0  0  2  0  0  0  0  0  0  0  0  0
  -15.8582  -37.7951   -8.1966 O   0  0  0  0  0  0  0  0  0  0  0  0
  -17.6734  -39.3551   -7.9515 C   0  0  2  0  0  0  0  0  0  0  0  0
  -18.5595  -38.1797   -7.5280 C   0  0  0  0  0  0  0  0  0  0  0  0
  -20.0152  -38.5377   -7.7182 C   0  0  0  0  0  0  0  0  0  0  0  0
  -20.8536  -39.2460   -6.9005 C   0  0  0  0  0  0  0  0  0  0  0  0
  -22.1261  -39.5526   -7.3677 C   0  0  0  0  0  0  0  0  0  0  0  0
  -23.2242  -40.3605   -6.8059 C   0  0  0  0  0  0  0  0  0  0  0  0
  -23.0086  -41.3287   -5.7254 C   0  0  0  0  0  0  0  0  0  0  0  0
  -23.1999  -40.8756   -4.4339 C   0  0  0  0  0  0  0  0  0  0  0  0
  -23.0623  -41.6253   -3.2952 C   0  0  0  0  0  0  0  0  0  0  0  0
  -22.7048  -42.9411   -3.4305 C   0  0  0  0  0  0  0  0  0  0  0  0
  -22.5067  -43.4234   -4.7048 C   0  0  0  0  0  0  0  0  0  0  0  0
  -22.6397  -42.6772   -5.8842 C   0  0  0  0  0  0  0  0  0  0  0  0
  -22.4207  -43.2525   -7.0804 O   0  0  0  0  0  0  0  0  0  0  0  0
  -21.4425  -43.3695   -8.0573 C   0  0  0  0  0  0  0  0  0  0  0  0
  -20.3431  -42.3803   -8.0568 C   0  0  0  0  0  0  0  0  0  0  0  0
  -20.4674  -41.5644   -9.0675 O   0  0  0  0  0  0  0  0  0  0  0  0
  -19.2741  -42.1923   -7.2128 N   0  0  0  0  0  0  0  0  0  0  0  0
  -17.9181  -42.6866   -7.1442 C   0  0  1  0  0  0  0  0  0  0  0  0
  -17.4557  -43.5986   -8.2044 C   0  0  0  0  0  0  0  0  0  0  0  0
  -16.9662  -41.5536   -6.8441 C   0  0  0  0  0  0  0  0  0  0  0  0
  -15.7754  -41.9000   -6.5016 O   0  0  0  0  0  0  0  0  0  0  0  0
  -17.2229  -40.1906   -6.8924 N   0  0  0  0  0  0  0  0  0  0  0  0
  -22.5013  -39.1056   -8.6713 C   0  0  0  0  0  0  0  0  0  0  0  0
  -23.7889  -39.3927   -9.1781 O   0  0  0  0  0  0  0  0  0  0  0  0
  -21.6823  -38.3957   -9.4939 C   0  0  0  0  0  0  0  0  0  0  0  0
  -20.4392  -38.1186   -9.0057 C   0  0  0  0  0  0  0  0  0  0  0  0
  1  2  1  0
  2  3  1  0
  3  4  1  0
  4  5  1  0
  5  6  1  0
  6  7  2  0
  6  8  1  0
  8  9  1  6
  8 10  1  0
 10 11  1  0
 11 12  1  1
 11 13  1  0
 13 14  1  1
 14 15  1  0
 15 16  2  0
 16 17  1  0
 17 18  1  0
 18 19  1  0
 19 20  2  0
 20 21  1  0
 21 22  2  0
 22 23  1  0
 23 24  2  0
 24 25  1  0
 25 26  1  0
 26 27  1  0
 27 28  2  0
 27 29  1  0
 29 30  1  0
 30 31  1  6
 30 32  1  0
 32 33  2  0
 32 34  1  0
 17 35  2  0
 35 36  1  0
 35 37  1  0
 37 38  2  0
 24 19  1  0
 34 13  1  0
 38 15  1  0
M  END
$$$$
