
     RDKit          3D

 38 40  0  0  0  0  0  0  0  0999 V2000
  -15.9816  -33.8673   -9.8727 C   0  0  0  0  0  0  0  0  0  0  0  0
  -16.3056  -34.7648  -11.0556 C   0  0  0  0  0  0  0  0  0  0  0  0
  -16.9766  -36.0011  -10.4642 C   0  0  0  0  0  0  0  0  0  0  0  0
  -16.0784  -36.6496   -9.4299 C   0  0  0  0  0  0  0  0  0  0  0  0
  -14.9414  -37.2405  -10.0591 N   0  0  0  0  0  0  0  0  0  0  0  0
  -15.0039  -38.5872  -10.5791 C   0  0  0  0  0  0  0  0  0  0  0  0
  -15.1715  -38.6749  -11.8049 O   0  0  0  0  0  0  0  0  0  0  0  0
  -14.8604  -39.6535   -9.5865 C   0  0  2  0  0  0  0  0  0  0  0  0
  -13.5164  -39.5522   -8.8569 C   0  0  0  0  0  0  0  0  0  0  0  0
  -15.1351  -41.0406  -10.0298 C   0  0  0  0  0  0  0  0  0  0  0  0
  -16.4331  -41.3099  -10.6899 C   0  0  2  0  0  0  0  0  0  0  0  0
  -16.6206  -40.7920  -11.9317 O   0  0  0  0  0  0  0  0  0  0  0  0
  -17.5670  -40.9321   -9.7242 C   0  0  2  0  0  0  0  0  0  0  0  0
  -18.4326  -39.8461  -10.3703 C   0  0  0  0  0  0  0  0  0  0  0  0
  -19.8956  -40.1700  -10.1750 C   0  0  0  0  0  0  0  0  0  0  0  0
  -20.7046  -39.9364   -9.0960 C   0  0  0  0  0  0  0  0  0  0  0  0
  -21.9948  -40.4524   -9.1157 C   0  0  0  0  0  0  0  0  0  0  0  0
  -23.0734  -40.4733   -8.1105 C   0  0  0  0  0  0  0  0  0  0  0  0
  -22.8199  -40.2268   -6.6870 C   0  0  0  0  0  0  0  0  0  0  0  0
  -22.9605  -38.9253   -6.2442 C   0  0  0  0  0  0  0  0  0  0  0  0
  -22.7821  -38.4959   -4.9552 C   0  0  0  0  0  0  0  0  0  0  0  0
  -22.4343  -39.4248   -4.0099 C   0  0  0  0  0  0  0  0  0  0  0  0
  -22.2863  -40.7310   -4.4193 C   0  0  0  0  0  0  0  0  0  0  0  0
  -22.4616  -41.1948   -5.7307 C   0  0  0  0  0  0  0  0  0  0  0  0
  -22.2901  -42.4975   -6.0192 O   0  0  0  0  0  0  0  0  0  0  0  0
  -21.3502  -43.3694   -6.5493 C   0  0  0  0  0  0  0  0  0  0  0  0
  -20.2484  -42.7945   -7.3510 C   0  0  0  0  0  0  0  0  0  0  0  0
  -20.4085  -43.0827   -8.6134 O   0  0  0  0  0  0  0  0  0  0  0  0
  -19.1475  -42.0486   -7.0014 N   0  0  0  0  0  0  0  0  0  0  0  0
  -17.7915  -42.3426   -6.5983 C   0  0  1  0  0  0  0  0  0  0  0  0
  -17.3726  -43.7537   -6.5430 C   0  0  0  0  0  0  0  0  0  0  0  0
  -16.8253  -41.4386   -7.3255 C   0  0  0  0  0  0  0  0  0  0  0  0
  -15.6234  -41.4206   -6.8667 O   0  0  0  0  0  0  0  0  0  0  0  0
  -17.0792  -40.6282   -8.4232 N   0  0  0  0  0  0  0  0  0  0  0  0
  -22.4180  -41.1906  -10.2630 C   0  0  0  0  0  0  0  0  0  0  0  0
  -23.7249  -41.7252  -10.3221 O   0  0  0  0  0  0  0  0  0  0  0  0
  -21.6286  -41.4264  -11.3458 C   0  0  0  0  0  0  0  0  0  0  0  0
  -20.3669  -40.9112  -11.2894 C   0  0  0  0  0  0  0  0  0  0  0  0
  1  2  1  0
  2  3  1  0
  3  4  1  0
  4  5  1  0
  5  6  1  0
  6  7  2  0
  6  8  1  0
  8  9  1  6
  8 10  1  0
 10 11  1  0
 11 12  1  6
 11 13  1  0
 13 14  1  6
 14 15  1  0
 15 16  2  0
 16 17  1  0
 17 18  1  0
 18 19  1  0
 19 20  2  0
 20 21  1  0
 21 22  2  0
 22 23  1  0
 23 24  2  0
 24 25  1  0
 25 26  1  0
 26 27  1  0
 27 28  2  0
 27 29  1  0
 29 30  1  0
 30 31  1  6
 30 32  1  0
 32 33  2  0
 32 34  1  0
 17 35  2  0
 35 36  1  0
 35 37  1  0
 37 38  2  0
 24 19  1  0
 34 13  1  0
 38 15  1  0
M  END
$$$$
