
     RDKit          3D

 38 40  0  0  0  0  0  0  0  0999 V2000
  -12.4661  -34.3256  -11.5242 C   0  0  0  0  0  0  0  0  0  0  0  0
  -12.7659  -35.5400  -12.3873 C   0  0  0  0  0  0  0  0  0  0  0  0
  -12.5316  -36.7520  -11.4902 C   0  0  0  0  0  0  0  0  0  0  0  0
  -12.7991  -38.0355  -12.2505 C   0  0  0  0  0  0  0  0  0  0  0  0
  -12.5863  -39.1670  -11.4065 N   0  0  0  0  0  0  0  0  0  0  0  0
  -13.6781  -40.0522  -11.0717 C   0  0  0  0  0  0  0  0  0  0  0  0
  -14.1678  -40.6747  -12.0263 O   0  0  0  0  0  0  0  0  0  0  0  0
  -14.0494  -40.0879   -9.6562 C   0  0  2  0  0  0  0  0  0  0  0  0
  -13.1230  -41.0178   -8.8651 C   0  0  0  0  0  0  0  0  0  0  0  0
  -15.4740  -40.3335   -9.3299 C   0  0  0  0  0  0  0  0  0  0  0  0
  -16.3239  -39.1603   -9.0229 C   0  0  2  0  0  0  0  0  0  0  0  0
  -15.7046  -38.0489   -8.5469 O   0  0  0  0  0  0  0  0  0  0  0  0
  -17.4835  -39.6118   -8.1215 C   0  0  2  0  0  0  0  0  0  0  0  0
  -18.1942  -38.3747   -7.5642 C   0  0  0  0  0  0  0  0  0  0  0  0
  -19.6915  -38.5518   -7.6653 C   0  0  0  0  0  0  0  0  0  0  0  0
  -20.5502  -39.2137   -6.8301 C   0  0  0  0  0  0  0  0  0  0  0  0
  -21.8786  -39.3421   -7.2177 C   0  0  0  0  0  0  0  0  0  0  0  0
  -23.0238  -40.0562   -6.6236 C   0  0  0  0  0  0  0  0  0  0  0  0
  -22.8510  -41.1129   -5.6211 C   0  0  0  0  0  0  0  0  0  0  0  0
  -22.8997  -40.7288   -4.2945 C   0  0  0  0  0  0  0  0  0  0  0  0
  -22.7746  -41.5640   -3.2154 C   0  0  0  0  0  0  0  0  0  0  0  0
  -22.5848  -42.8998   -3.4544 C   0  0  0  0  0  0  0  0  0  0  0  0
  -22.5316  -43.3148   -4.7661 C   0  0  0  0  0  0  0  0  0  0  0  0
  -22.6553  -42.4808   -5.8863 C   0  0  0  0  0  0  0  0  0  0  0  0
  -22.5872  -42.9955   -7.1273 O   0  0  0  0  0  0  0  0  0  0  0  0
  -21.6981  -43.1569   -8.1800 C   0  0  0  0  0  0  0  0  0  0  0  0
  -20.4922  -42.3009   -8.2039 C   0  0  0  0  0  0  0  0  0  0  0  0
  -20.5877  -41.4102   -9.1526 O   0  0  0  0  0  0  0  0  0  0  0  0
  -19.3538  -42.2924   -7.4329 N   0  0  0  0  0  0  0  0  0  0  0  0
  -18.0640  -42.9408   -7.4955 C   0  0  1  0  0  0  0  0  0  0  0  0
  -17.7853  -43.8260   -8.6393 C   0  0  0  0  0  0  0  0  0  0  0  0
  -16.9671  -41.9457   -7.2016 C   0  0  0  0  0  0  0  0  0  0  0  0
  -15.8050  -42.4470   -6.9704 O   0  0  0  0  0  0  0  0  0  0  0  0
  -17.0640  -40.5623   -7.1502 N   0  0  0  0  0  0  0  0  0  0  0  0
  -22.2860  -38.7689   -8.4609 C   0  0  0  0  0  0  0  0  0  0  0  0
  -23.6298  -38.8735   -8.8856 O   0  0  0  0  0  0  0  0  0  0  0  0
  -21.4466  -38.1028   -9.2994 C   0  0  0  0  0  0  0  0  0  0  0  0
  -20.1493  -38.0018   -8.8905 C   0  0  0  0  0  0  0  0  0  0  0  0
  1  2  1  0
  2  3  1  0
  3  4  1  0
  4  5  1  0
  5  6  1  0
  6  7  2  0
  6  8  1  0
  8  9  1  1
  8 10  1  0
 10 11  1  0
 11 12  1  1
 11 13  1  0
 13 14  1  1
 14 15  1  0
 15 16  2  0
 16 17  1  0
 17 18  1  0
 18 19  1  0
 19 20  2  0
 20 21  1  0
 21 22  2  0
 22 23  1  0
 23 24  2  0
 24 25  1  0
 25 26  1  0
 26 27  1  0
 27 28  2  0
 27 29  1  0
 29 30  1  0
 30 31  1  6
 30 32  1  0
 32 33  2  0
 32 34  1  0
 17 35  2  0
 35 36  1  0
 35 37  1  0
 37 38  2  0
 24 19  1  0
 34 13  1  0
 38 15  1  0
M  END
$$$$
