
     RDKit          3D

 38 40  0  0  0  0  0  0  0  0999 V2000
  -14.6094  -34.3368  -11.6681 C   0  0  0  0  0  0  0  0  0  0  0  0
  -13.5438  -34.8527  -12.6211 C   0  0  0  0  0  0  0  0  0  0  0  0
  -12.5953  -35.6884  -11.7664 C   0  0  0  0  0  0  0  0  0  0  0  0
  -12.5795  -37.1273  -12.2421 C   0  0  0  0  0  0  0  0  0  0  0  0
  -12.7140  -38.0185  -11.1351 N   0  0  0  0  0  0  0  0  0  0  0  0
  -14.0049  -38.5607  -10.7782 C   0  0  0  0  0  0  0  0  0  0  0  0
  -14.9117  -38.3550  -11.5992 O   0  0  0  0  0  0  0  0  0  0  0  0
  -14.0578  -39.2744   -9.5012 C   0  0  2  0  0  0  0  0  0  0  0  0
  -12.8748  -40.2381   -9.3573 C   0  0  0  0  0  0  0  0  0  0  0  0
  -15.3376  -39.9262   -9.1357 C   0  0  0  0  0  0  0  0  0  0  0  0
  -16.5894  -39.1724   -9.3762 C   0  0  2  0  0  0  0  0  0  0  0  0
  -16.4925  -37.8222   -9.4890 O   0  0  0  0  0  0  0  0  0  0  0  0
  -17.6308  -39.5960   -8.3288 C   0  0  2  0  0  0  0  0  0  0  0  0
  -18.4177  -38.3613   -7.8788 C   0  0  0  0  0  0  0  0  0  0  0  0
  -19.8936  -38.6815   -7.8288 C   0  0  0  0  0  0  0  0  0  0  0  0
  -20.6205  -39.2953   -6.8450 C   0  0  0  0  0  0  0  0  0  0  0  0
  -21.9544  -39.5919   -7.0986 C   0  0  0  0  0  0  0  0  0  0  0  0
  -22.9778  -40.3155   -6.3219 C   0  0  0  0  0  0  0  0  0  0  0  0
  -22.6300  -41.2052   -5.2089 C   0  0  0  0  0  0  0  0  0  0  0  0
  -22.6204  -40.6484   -3.9441 C   0  0  0  0  0  0  0  0  0  0  0  0
  -22.3362  -41.3132   -2.7802 C   0  0  0  0  0  0  0  0  0  0  0  0
  -22.0335  -42.6473   -2.8587 C   0  0  0  0  0  0  0  0  0  0  0  0
  -22.0346  -43.2322   -4.1052 C   0  0  0  0  0  0  0  0  0  0  0  0
  -22.3203  -42.5741   -5.3097 C   0  0  0  0  0  0  0  0  0  0  0  0
  -22.2916  -43.2463   -6.4746 O   0  0  0  0  0  0  0  0  0  0  0  0
  -21.4692  -43.4719   -7.5689 C   0  0  0  0  0  0  0  0  0  0  0  0
  -20.3583  -42.5248   -7.8059 C   0  0  0  0  0  0  0  0  0  0  0  0
  -20.6092  -41.7846   -8.8507 O   0  0  0  0  0  0  0  0  0  0  0  0
  -19.1736  -42.3105   -7.1418 N   0  0  0  0  0  0  0  0  0  0  0  0
  -17.8342  -42.8455   -7.2286 C   0  0  1  0  0  0  0  0  0  0  0  0
  -17.5529  -43.8515   -8.2671 C   0  0  0  0  0  0  0  0  0  0  0  0
  -16.8222  -41.7270   -7.1605 C   0  0  0  0  0  0  0  0  0  0  0  0
  -15.6027  -42.0878   -6.9654 O   0  0  0  0  0  0  0  0  0  0  0  0
  -17.0508  -40.3636   -7.2813 N   0  0  0  0  0  0  0  0  0  0  0  0
  -22.5048  -39.2328   -8.3668 C   0  0  0  0  0  0  0  0  0  0  0  0
  -23.8590  -39.5124   -8.6589 O   0  0  0  0  0  0  0  0  0  0  0  0
  -21.7978  -38.6171   -9.3528 C   0  0  0  0  0  0  0  0  0  0  0  0
  -20.4906  -38.3473   -9.0719 C   0  0  0  0  0  0  0  0  0  0  0  0
  1  2  1  0
  2  3  1  0
  3  4  1  0
  4  5  1  0
  5  6  1  0
  6  7  2  0
  6  8  1  0
  8  9  1  6
  8 10  1  0
 10 11  1  0
 11 12  1  1
 11 13  1  0
 13 14  1  1
 14 15  1  0
 15 16  2  0
 16 17  1  0
 17 18  1  0
 18 19  1  0
 19 20  2  0
 20 21  1  0
 21 22  2  0
 22 23  1  0
 23 24  2  0
 24 25  1  0
 25 26  1  0
 26 27  1  0
 27 28  2  0
 27 29  1  0
 29 30  1  0
 30 31  1  6
 30 32  1  0
 32 33  2  0
 32 34  1  0
 17 35  2  0
 35 36  1  0
 35 37  1  0
 37 38  2  0
 24 19  1  0
 34 13  1  0
 38 15  1  0
M  END
$$$$
