
     RDKit          3D

 38 40  0  0  0  0  0  0  0  0999 V2000
  -10.6285  -34.3324  -11.6912 C   0  0  0  0  0  0  0  0  0  0  0  0
  -11.8661  -35.0393  -11.1637 C   0  0  0  0  0  0  0  0  0  0  0  0
  -12.8536  -35.0658  -12.3268 C   0  0  0  0  0  0  0  0  0  0  0  0
  -14.1269  -35.7837  -11.9264 C   0  0  0  0  0  0  0  0  0  0  0  0
  -13.8198  -37.0309  -11.3035 N   0  0  0  0  0  0  0  0  0  0  0  0
  -14.8421  -38.0362  -11.1238 C   0  0  0  0  0  0  0  0  0  0  0  0
  -15.6346  -38.1614  -12.0697 O   0  0  0  0  0  0  0  0  0  0  0  0
  -14.7961  -38.7620   -9.8534 C   0  0  2  0  0  0  0  0  0  0  0  0
  -13.4090  -39.3675   -9.6127 C   0  0  0  0  0  0  0  0  0  0  0  0
  -15.8722  -39.7463   -9.5899 C   0  0  0  0  0  0  0  0  0  0  0  0
  -17.2651  -39.3431   -9.8905 C   0  0  2  0  0  0  0  0  0  0  0  0
  -17.4646  -38.0771  -10.3409 O   0  0  0  0  0  0  0  0  0  0  0  0
  -18.1489  -39.6761   -8.6785 C   0  0  2  0  0  0  0  0  0  0  0  0
  -19.0174  -38.4595   -8.3442 C   0  0  0  0  0  0  0  0  0  0  0  0
  -20.4385  -38.8990   -8.0779 C   0  0  0  0  0  0  0  0  0  0  0  0
  -20.9967  -39.4009   -6.9335 C   0  0  0  0  0  0  0  0  0  0  0  0
  -22.3089  -39.8557   -6.9848 C   0  0  0  0  0  0  0  0  0  0  0  0
  -23.1686  -40.5272   -5.9927 C   0  0  0  0  0  0  0  0  0  0  0  0
  -22.6212  -41.1807   -4.7991 C   0  0  0  0  0  0  0  0  0  0  0  0
  -22.5499  -40.4195   -3.6479 C   0  0  0  0  0  0  0  0  0  0  0  0
  -22.0848  -40.8494   -2.4328 C   0  0  0  0  0  0  0  0  0  0  0  0
  -21.6489  -42.1446   -2.3325 C   0  0  0  0  0  0  0  0  0  0  0  0
  -21.7069  -42.9295   -3.4622 C   0  0  0  0  0  0  0  0  0  0  0  0
  -22.1767  -42.5131   -4.7158 C   0  0  0  0  0  0  0  0  0  0  0  0
  -22.1880  -43.3673   -5.7551 O   0  0  0  0  0  0  0  0  0  0  0  0
  -21.4553  -43.6992   -6.8855 C   0  0  0  0  0  0  0  0  0  0  0  0
  -20.4812  -42.7091   -7.3934 C   0  0  0  0  0  0  0  0  0  0  0  0
  -20.9100  -42.1821   -8.5074 O   0  0  0  0  0  0  0  0  0  0  0  0
  -19.2681  -42.2792   -6.9097 N   0  0  0  0  0  0  0  0  0  0  0  0
  -17.8934  -42.6976   -7.0611 C   0  0  1  0  0  0  0  0  0  0  0  0
  -17.6066  -43.8350   -7.9520 C   0  0  0  0  0  0  0  0  0  0  0  0
  -17.0062  -41.4967   -7.2858 C   0  0  0  0  0  0  0  0  0  0  0  0
  -15.7418  -41.7073   -7.1748 O   0  0  0  0  0  0  0  0  0  0  0  0
  -17.3912  -40.1997   -7.5947 N   0  0  0  0  0  0  0  0  0  0  0  0
  -23.0145  -39.7676   -8.2235 C   0  0  0  0  0  0  0  0  0  0  0  0
  -24.3524  -40.2141   -8.3129 O   0  0  0  0  0  0  0  0  0  0  0  0
  -22.4764  -39.2659   -9.3681 C   0  0  0  0  0  0  0  0  0  0  0  0
  -21.1850  -38.8353   -9.2828 C   0  0  0  0  0  0  0  0  0  0  0  0
  1  2  1  0
  2  3  1  0
  3  4  1  0
  4  5  1  0
  5  6  1  0
  6  7  2  0
  6  8  1  0
  8  9  1  6
  8 10  1  0
 10 11  1  0
 11 12  1  1
 11 13  1  0
 13 14  1  1
 14 15  1  0
 15 16  2  0
 16 17  1  0
 17 18  1  0
 18 19  1  0
 19 20  2  0
 20 21  1  0
 21 22  2  0
 22 23  1  0
 23 24  2  0
 24 25  1  0
 25 26  1  0
 26 27  1  0
 27 28  2  0
 27 29  1  0
 29 30  1  0
 30 31  1  6
 30 32  1  0
 32 33  2  0
 32 34  1  0
 17 35  2  0
 35 36  1  0
 35 37  1  0
 37 38  2  0
 24 19  1  0
 34 13  1  0
 38 15  1  0
M  END
$$$$
