
     RDKit          3D

 38 40  0  0  0  0  0  0  0  0999 V2000
  -10.3393  -39.0424  -13.8566 C   0  0  0  0  0  0  0  0  0  0  0  0
  -11.6127  -38.3838  -14.3611 C   0  0  0  0  0  0  0  0  0  0  0  0
  -12.6245  -38.5186  -13.2268 C   0  0  0  0  0  0  0  0  0  0  0  0
  -12.0201  -38.0524  -11.9175 C   0  0  0  0  0  0  0  0  0  0  0  0
  -13.0370  -37.5473  -11.0522 N   0  0  0  0  0  0  0  0  0  0  0  0
  -14.1105  -38.4020  -10.5994 C   0  0  0  0  0  0  0  0  0  0  0  0
  -13.7835  -39.5687  -10.3344 O   0  0  0  0  0  0  0  0  0  0  0  0
  -15.4282  -37.7695  -10.5180 C   0  0  2  0  0  0  0  0  0  0  0  0
  -15.3039  -36.2660  -10.2482 C   0  0  0  0  0  0  0  0  0  0  0  0
  -16.4345  -38.3997   -9.6311 C   0  0  0  0  0  0  0  0  0  0  0  0
  -16.3096  -38.1706   -8.1734 C   0  0  2  0  0  0  0  0  0  0  0  0
  -15.1320  -38.5098   -7.5873 O   0  0  0  0  0  0  0  0  0  0  0  0
  -17.5164  -38.8081   -7.4674 C   0  0  2  0  0  0  0  0  0  0  0  0
  -18.4437  -37.6982   -6.9630 C   0  0  0  0  0  0  0  0  0  0  0  0
  -19.8798  -38.0416   -7.2842 C   0  0  0  0  0  0  0  0  0  0  0  0
  -20.7558  -38.8486   -6.6100 C   0  0  0  0  0  0  0  0  0  0  0  0
  -21.9929  -39.1066   -7.1883 C   0  0  0  0  0  0  0  0  0  0  0  0
  -23.1112  -39.9839   -6.7956 C   0  0  0  0  0  0  0  0  0  0  0  0
  -22.9473  -41.0726   -5.8265 C   0  0  0  0  0  0  0  0  0  0  0  0
  -23.2232  -40.7785   -4.5046 C   0  0  0  0  0  0  0  0  0  0  0  0
  -23.1439  -41.6578   -3.4567 C   0  0  0  0  0  0  0  0  0  0  0  0
  -22.7597  -42.9454   -3.7250 C   0  0  0  0  0  0  0  0  0  0  0  0
  -22.4775  -43.2705   -5.0328 C   0  0  0  0  0  0  0  0  0  0  0  0
  -22.5497  -42.3897   -6.1212 C   0  0  0  0  0  0  0  0  0  0  0  0
  -22.2501  -42.8163   -7.3614 O   0  0  0  0  0  0  0  0  0  0  0  0
  -21.2129  -42.8086   -8.2827 C   0  0  0  0  0  0  0  0  0  0  0  0
  -20.1301  -41.8185   -8.0966 C   0  0  0  0  0  0  0  0  0  0  0  0
  -20.2049  -40.8886   -9.0089 O   0  0  0  0  0  0  0  0  0  0  0  0
  -19.1172  -41.7249   -7.1716 N   0  0  0  0  0  0  0  0  0  0  0  0
  -17.7607  -42.2139   -7.0783 C   0  0  1  0  0  0  0  0  0  0  0  0
  -17.2215  -42.9892   -8.2087 C   0  0  0  0  0  0  0  0  0  0  0  0
  -16.8456  -41.1179   -6.5873 C   0  0  0  0  0  0  0  0  0  0  0  0
  -15.6727  -41.4940   -6.2153 O   0  0  0  0  0  0  0  0  0  0  0  0
  -17.1188  -39.7608   -6.4892 N   0  0  0  0  0  0  0  0  0  0  0  0
  -22.2949  -38.5097   -8.4503 C   0  0  0  0  0  0  0  0  0  0  0  0
  -23.5451  -38.7437   -9.0664 O   0  0  0  0  0  0  0  0  0  0  0  0
  -21.4380  -37.7007   -9.1303 C   0  0  0  0  0  0  0  0  0  0  0  0
  -20.2310  -37.4748   -8.5366 C   0  0  0  0  0  0  0  0  0  0  0  0
  1  2  1  0
  2  3  1  0
  3  4  1  0
  4  5  1  0
  5  6  1  0
  6  7  2  0
  6  8  1  0
  8  9  1  1
  8 10  1  0
 10 11  1  0
 11 12  1  1
 11 13  1  0
 13 14  1  1
 14 15  1  0
 15 16  2  0
 16 17  1  0
 17 18  1  0
 18 19  1  0
 19 20  2  0
 20 21  1  0
 21 22  2  0
 22 23  1  0
 23 24  2  0
 24 25  1  0
 25 26  1  0
 26 27  1  0
 27 28  2  0
 27 29  1  0
 29 30  1  0
 30 31  1  6
 30 32  1  0
 32 33  2  0
 32 34  1  0
 17 35  2  0
 35 36  1  0
 35 37  1  0
 37 38  2  0
 24 19  1  0
 34 13  1  0
 38 15  1  0
M  END
$$$$
