
     RDKit          3D

 38 40  0  0  0  0  0  0  0  0999 V2000
  -12.7618  -34.7638  -13.1734 C   0  0  0  0  0  0  0  0  0  0  0  0
  -11.4245  -35.0257  -12.5003 C   0  0  0  0  0  0  0  0  0  0  0  0
  -11.7474  -35.8106  -11.2321 C   0  0  0  0  0  0  0  0  0  0  0  0
  -12.9215  -36.7397  -11.4668 C   0  0  0  0  0  0  0  0  0  0  0  0
  -13.1793  -37.5199  -10.2994 N   0  0  0  0  0  0  0  0  0  0  0  0
  -13.9105  -38.7629  -10.3906 C   0  0  0  0  0  0  0  0  0  0  0  0
  -14.4678  -38.9716  -11.4789 O   0  0  0  0  0  0  0  0  0  0  0  0
  -13.8887  -39.5968   -9.1877 C   0  0  2  0  0  0  0  0  0  0  0  0
  -13.0112  -40.8367   -9.3906 C   0  0  0  0  0  0  0  0  0  0  0  0
  -15.1923  -39.9475   -8.5762 C   0  0  0  0  0  0  0  0  0  0  0  0
  -16.0724  -38.8379   -8.1433 C   0  0  2  0  0  0  0  0  0  0  0  0
  -15.4986  -37.8213   -7.4487 O   0  0  0  0  0  0  0  0  0  0  0  0
  -17.2894  -39.4277   -7.4138 C   0  0  2  0  0  0  0  0  0  0  0  0
  -18.1920  -38.2835   -6.9423 C   0  0  0  0  0  0  0  0  0  0  0  0
  -19.6360  -38.6074   -7.2482 C   0  0  0  0  0  0  0  0  0  0  0  0
  -20.5258  -39.3744   -6.5460 C   0  0  0  0  0  0  0  0  0  0  0  0
  -21.7701  -39.6252   -7.1121 C   0  0  0  0  0  0  0  0  0  0  0  0
  -22.9046  -40.4663   -6.6883 C   0  0  0  0  0  0  0  0  0  0  0  0
  -22.7595  -41.5267   -5.6854 C   0  0  0  0  0  0  0  0  0  0  0  0
  -23.0246  -41.1851   -4.3729 C   0  0  0  0  0  0  0  0  0  0  0  0
  -22.9596  -42.0320   -3.2976 C   0  0  0  0  0  0  0  0  0  0  0  0
  -22.6027  -43.3351   -3.5258 C   0  0  0  0  0  0  0  0  0  0  0  0
  -22.3319  -43.7075   -4.8233 C   0  0  0  0  0  0  0  0  0  0  0  0
  -22.3899  -42.8605   -5.9391 C   0  0  0  0  0  0  0  0  0  0  0  0
  -22.1036  -43.3324   -7.1659 O   0  0  0  0  0  0  0  0  0  0  0  0
  -21.0697  -43.3754   -8.0900 C   0  0  0  0  0  0  0  0  0  0  0  0
  -19.9663  -42.4023   -7.9388 C   0  0  0  0  0  0  0  0  0  0  0  0
  -20.0253  -41.5007   -8.8801 O   0  0  0  0  0  0  0  0  0  0  0  0
  -18.9483  -42.3001   -7.0203 N   0  0  0  0  0  0  0  0  0  0  0  0
  -17.6019  -42.8137   -6.9154 C   0  0  1  0  0  0  0  0  0  0  0  0
  -17.0827  -43.6355   -8.0220 C   0  0  0  0  0  0  0  0  0  0  0  0
  -16.6627  -41.7216   -6.4623 C   0  0  0  0  0  0  0  0  0  0  0  0
  -15.4965  -42.1096   -6.0819 O   0  0  0  0  0  0  0  0  0  0  0  0
  -16.9078  -40.3567   -6.4068 N   0  0  0  0  0  0  0  0  0  0  0  0
  -22.0643  -39.0628   -8.3916 C   0  0  0  0  0  0  0  0  0  0  0  0
  -23.3212  -39.2905   -8.9963 O   0  0  0  0  0  0  0  0  0  0  0  0
  -21.1935  -38.2936   -9.0997 C   0  0  0  0  0  0  0  0  0  0  0  0
  -19.9800  -38.0737   -8.5170 C   0  0  0  0  0  0  0  0  0  0  0  0
  1  2  1  0
  2  3  1  0
  3  4  1  0
  4  5  1  0
  5  6  1  0
  6  7  2  0
  6  8  1  0
  8  9  1  6
  8 10  1  0
 10 11  1  0
 11 12  1  1
 11 13  1  0
 13 14  1  1
 14 15  1  0
 15 16  2  0
 16 17  1  0
 17 18  1  0
 18 19  1  0
 19 20  2  0
 20 21  1  0
 21 22  2  0
 22 23  1  0
 23 24  2  0
 24 25  1  0
 25 26  1  0
 26 27  1  0
 27 28  2  0
 27 29  1  0
 29 30  1  0
 30 31  1  6
 30 32  1  0
 32 33  2  0
 32 34  1  0
 17 35  2  0
 35 36  1  0
 35 37  1  0
 37 38  2  0
 24 19  1  0
 34 13  1  0
 38 15  1  0
M  END
$$$$
