
     RDKit          3D

 38 40  0  0  0  0  0  0  0  0999 V2000
  -13.8908  -43.7435  -11.7376 C   0  0  0  0  0  0  0  0  0  0  0  0
  -12.5515  -43.5856  -12.4383 C   0  0  0  0  0  0  0  0  0  0  0  0
  -11.7175  -42.6811  -11.5356 C   0  0  0  0  0  0  0  0  0  0  0  0
  -12.1913  -41.2452  -11.6384 C   0  0  0  0  0  0  0  0  0  0  0  0
  -12.0093  -40.5711  -10.3932 N   0  0  0  0  0  0  0  0  0  0  0  0
  -13.0356  -39.6983   -9.8709 C   0  0  0  0  0  0  0  0  0  0  0  0
  -12.6229  -38.7034   -9.2559 O   0  0  0  0  0  0  0  0  0  0  0  0
  -14.4132  -40.1123  -10.1422 C   0  0  2  0  0  0  0  0  0  0  0  0
  -15.0077  -39.3212  -11.3125 C   0  0  0  0  0  0  0  0  0  0  0  0
  -15.3480  -40.1690   -8.9936 C   0  0  0  0  0  0  0  0  0  0  0  0
  -16.1274  -38.9503   -8.6773 C   0  0  2  0  0  0  0  0  0  0  0  0
  -15.4545  -37.9032   -8.1331 O   0  0  0  0  0  0  0  0  0  0  0  0
  -17.3545  -39.3504   -7.8435 C   0  0  2  0  0  0  0  0  0  0  0  0
  -17.9749  -38.0909   -7.2313 C   0  0  0  0  0  0  0  0  0  0  0  0
  -19.4772  -38.1274   -7.3906 C   0  0  0  0  0  0  0  0  0  0  0  0
  -20.4206  -38.7595   -6.6267 C   0  0  0  0  0  0  0  0  0  0  0  0
  -21.7399  -38.7452   -7.0634 C   0  0  0  0  0  0  0  0  0  0  0  0
  -22.9640  -39.3891   -6.5523 C   0  0  0  0  0  0  0  0  0  0  0  0
  -22.9211  -40.5158   -5.6142 C   0  0  0  0  0  0  0  0  0  0  0  0
  -22.9853  -40.2100   -4.2680 C   0  0  0  0  0  0  0  0  0  0  0  0
  -22.9734  -41.1169   -3.2409 C   0  0  0  0  0  0  0  0  0  0  0  0
  -22.8918  -42.4473   -3.5582 C   0  0  0  0  0  0  0  0  0  0  0  0
  -22.8264  -42.7852   -4.8914 C   0  0  0  0  0  0  0  0  0  0  0  0
  -22.8355  -41.8771   -5.9595 C   0  0  0  0  0  0  0  0  0  0  0  0
  -22.7666  -42.3197   -7.2281 O   0  0  0  0  0  0  0  0  0  0  0  0
  -21.8565  -42.4955   -8.2603 C   0  0  0  0  0  0  0  0  0  0  0  0
  -20.5807  -41.7506   -8.1917 C   0  0  0  0  0  0  0  0  0  0  0  0
  -20.5631  -40.7991   -9.0843 O   0  0  0  0  0  0  0  0  0  0  0  0
  -19.4752  -41.8904   -7.3862 N   0  0  0  0  0  0  0  0  0  0  0  0
  -18.2453  -42.6462   -7.4492 C   0  0  1  0  0  0  0  0  0  0  0  0
  -18.0024  -43.4818   -8.6377 C   0  0  0  0  0  0  0  0  0  0  0  0
  -17.0776  -41.7725   -7.0581 C   0  0  0  0  0  0  0  0  0  0  0  0
  -15.9728  -42.3885   -6.8228 O   0  0  0  0  0  0  0  0  0  0  0  0
  -17.0555  -40.3916   -6.9219 N   0  0  0  0  0  0  0  0  0  0  0  0
  -22.0495  -38.0637   -8.2798 C   0  0  0  0  0  0  0  0  0  0  0  0
  -23.3808  -38.0222   -8.7525 O   0  0  0  0  0  0  0  0  0  0  0  0
  -21.1249  -37.4255   -9.0474 C   0  0  0  0  0  0  0  0  0  0  0  0
  -19.8398  -37.4655   -8.5922 C   0  0  0  0  0  0  0  0  0  0  0  0
  1  2  1  0
  2  3  1  0
  3  4  1  0
  4  5  1  0
  5  6  1  0
  6  7  2  0
  6  8  1  0
  8  9  1  6
  8 10  1  0
 10 11  1  0
 11 12  1  1
 11 13  1  0
 13 14  1  1
 14 15  1  0
 15 16  2  0
 16 17  1  0
 17 18  1  0
 18 19  1  0
 19 20  2  0
 20 21  1  0
 21 22  2  0
 22 23  1  0
 23 24  2  0
 24 25  1  0
 25 26  1  0
 26 27  1  0
 27 28  2  0
 27 29  1  0
 29 30  1  0
 30 31  1  6
 30 32  1  0
 32 33  2  0
 32 34  1  0
 17 35  2  0
 35 36  1  0
 35 37  1  0
 37 38  2  0
 24 19  1  0
 34 13  1  0
 38 15  1  0
M  END
$$$$
