
     RDKit          3D

 38 40  0  0  0  0  0  0  0  0999 V2000
  -14.2605  -34.6020  -10.7206 C   0  0  0  0  0  0  0  0  0  0  0  0
  -14.1049  -35.3672  -12.0245 C   0  0  0  0  0  0  0  0  0  0  0  0
  -12.6385  -35.7848  -12.0856 C   0  0  0  0  0  0  0  0  0  0  0  0
  -12.5203  -37.2733  -12.3454 C   0  0  0  0  0  0  0  0  0  0  0  0
  -12.6785  -38.0044  -11.1295 N   0  0  0  0  0  0  0  0  0  0  0  0
  -13.8691  -38.7874  -10.8901 C   0  0  0  0  0  0  0  0  0  0  0  0
  -14.6405  -38.8882  -11.8562 O   0  0  0  0  0  0  0  0  0  0  0  0
  -13.9942  -39.3488   -9.5440 C   0  0  2  0  0  0  0  0  0  0  0  0
  -12.8637  -40.3415   -9.2520 C   0  0  0  0  0  0  0  0  0  0  0  0
  -15.3142  -39.8976   -9.1530 C   0  0  0  0  0  0  0  0  0  0  0  0
  -16.4924  -39.0077   -9.2658 C   0  0  2  0  0  0  0  0  0  0  0  0
  -16.2684  -37.6684   -9.2285 O   0  0  0  0  0  0  0  0  0  0  0  0
  -17.5468  -39.4506   -8.2396 C   0  0  2  0  0  0  0  0  0  0  0  0
  -18.2469  -38.2104   -7.6755 C   0  0  0  0  0  0  0  0  0  0  0  0
  -19.7398  -38.4394   -7.6271 C   0  0  0  0  0  0  0  0  0  0  0  0
  -20.4934  -39.0861   -6.6853 C   0  0  0  0  0  0  0  0  0  0  0  0
  -21.8465  -39.2750   -6.9399 C   0  0  0  0  0  0  0  0  0  0  0  0
  -22.9054  -39.9947   -6.2085 C   0  0  0  0  0  0  0  0  0  0  0  0
  -22.6030  -40.9949   -5.1792 C   0  0  0  0  0  0  0  0  0  0  0  0
  -22.5426  -40.5477   -3.8730 C   0  0  0  0  0  0  0  0  0  0  0  0
  -22.2884  -41.3244   -2.7731 C   0  0  0  0  0  0  0  0  0  0  0  0
  -22.0736  -42.6637   -2.9671 C   0  0  0  0  0  0  0  0  0  0  0  0
  -22.1271  -43.1409   -4.2575 C   0  0  0  0  0  0  0  0  0  0  0  0
  -22.3836  -42.3673   -5.3983 C   0  0  0  0  0  0  0  0  0  0  0  0
  -22.4120  -42.9401   -6.6152 O   0  0  0  0  0  0  0  0  0  0  0  0
  -21.6188  -43.1250   -7.7383 C   0  0  0  0  0  0  0  0  0  0  0  0
  -20.4518  -42.2338   -7.9148 C   0  0  0  0  0  0  0  0  0  0  0  0
  -20.6664  -41.3943   -8.8903 O   0  0  0  0  0  0  0  0  0  0  0  0
  -19.2480  -42.1516   -7.2555 N   0  0  0  0  0  0  0  0  0  0  0  0
  -17.9471  -42.7613   -7.4091 C   0  0  1  0  0  0  0  0  0  0  0  0
  -17.7436  -43.6926   -8.5320 C   0  0  0  0  0  0  0  0  0  0  0  0
  -16.8642  -41.7190   -7.2657 C   0  0  0  0  0  0  0  0  0  0  0  0
  -15.6684  -42.1715   -7.1220 O   0  0  0  0  0  0  0  0  0  0  0  0
  -17.0055  -40.3384   -7.2692 N   0  0  0  0  0  0  0  0  0  0  0  0
  -22.3873  -38.7768   -8.1644 C   0  0  0  0  0  0  0  0  0  0  0  0
  -23.7600  -38.9444   -8.4556 O   0  0  0  0  0  0  0  0  0  0  0  0
  -21.6534  -38.1267   -9.1079 C   0  0  0  0  0  0  0  0  0  0  0  0
  -20.3284  -37.9650   -8.8279 C   0  0  0  0  0  0  0  0  0  0  0  0
  1  2  1  0
  2  3  1  0
  3  4  1  0
  4  5  1  0
  5  6  1  0
  6  7  2  0
  6  8  1  0
  8  9  1  6
  8 10  1  0
 10 11  1  0
 11 12  1  1
 11 13  1  0
 13 14  1  1
 14 15  1  0
 15 16  2  0
 16 17  1  0
 17 18  1  0
 18 19  1  0
 19 20  2  0
 20 21  1  0
 21 22  2  0
 22 23  1  0
 23 24  2  0
 24 25  1  0
 25 26  1  0
 26 27  1  0
 27 28  2  0
 27 29  1  0
 29 30  1  0
 30 31  1  6
 30 32  1  0
 32 33  2  0
 32 34  1  0
 17 35  2  0
 35 36  1  0
 35 37  1  0
 37 38  2  0
 24 19  1  0
 34 13  1  0
 38 15  1  0
M  END
$$$$
