
     RDKit          3D

 39 42  0  0  0  0  0  0  0  0999 V2000
  -24.6327  -38.5846   -7.3359 C   0  0  0  0  0  0  0  0  0  0  0  0
  -23.4459  -38.8400   -8.2668 C   0  0  0  0  0  0  0  0  0  0  0  0
  -23.9171  -39.6417   -9.4355 C   0  0  0  0  0  0  0  0  0  0  0  0
  -22.4217  -39.5589   -7.4528 C   0  0  0  0  0  0  0  0  0  0  0  0
  -22.6680  -40.8565   -7.0718 C   0  0  0  0  0  0  0  0  0  0  0  0
  -21.7670  -41.5840   -6.3166 C   0  0  0  0  0  0  0  0  0  0  0  0
  -20.5819  -40.9670   -5.9409 C   0  0  0  0  0  0  0  0  0  0  0  0
  -20.3371  -39.6708   -6.3221 C   0  0  0  0  0  0  0  0  0  0  0  0
  -19.0585  -38.9883   -5.9213 C   0  0  0  0  0  0  0  0  0  0  0  0
  -18.0018  -39.9600   -6.1825 N   0  0  0  0  0  0  0  0  0  0  0  0
  -17.8730  -40.2583   -7.5727 C   0  0  0  0  0  0  0  0  0  0  0  0
  -16.8699  -39.4159   -8.2748 C   0  0  1  0  0  0  0  0  0  0  0  0
  -17.4316  -38.3440   -8.9565 O   0  0  0  0  0  0  0  0  0  0  0  0
  -15.6506  -39.0359   -7.4875 C   0  0  2  0  0  0  0  0  0  0  0  0
  -15.0639  -37.7016   -7.7955 C   0  0  0  0  0  0  0  0  0  0  0  0
  -14.4743  -37.4692   -9.1296 C   0  0  0  0  0  0  0  0  0  0  0  0
  -15.2640  -36.5697   -9.8823 C   0  0  0  0  0  0  0  0  0  0  0  0
  -14.9729  -36.1538  -11.1537 C   0  0  0  0  0  0  0  0  0  0  0  0
  -15.8463  -35.2013  -11.8978 C   0  0  0  0  0  0  0  0  0  0  0  0
  -13.8304  -36.6678  -11.6963 C   0  0  0  0  0  0  0  0  0  0  0  0
  -12.9966  -37.5727  -10.9977 C   0  0  0  0  0  0  0  0  0  0  0  0
  -13.3232  -37.9706   -9.7118 C   0  0  0  0  0  0  0  0  0  0  0  0
  -11.9173  -37.9260  -11.7836 O   0  0  0  0  0  0  0  0  0  0  0  0
  -11.3003  -39.0406  -12.2867 C   0  0  0  0  0  0  0  0  0  0  0  0
  -11.7965  -39.3298  -13.6871 C   0  0  0  0  0  0  0  0  0  0  0  0
  -12.1159  -40.7959  -13.8330 C   0  0  0  0  0  0  0  0  0  0  0  0
  -13.6297  -41.0568  -13.7914 C   0  0  0  0  0  0  0  0  0  0  0  0
  -13.8196  -42.1773  -12.9042 N   0  0  0  0  0  0  0  0  0  0  0  0
  -14.3568  -42.2436  -11.5818 C   0  0  0  0  0  0  0  0  0  0  0  0
  -14.0707  -41.5821  -10.4177 C   0  0  0  0  0  0  0  0  0  0  0  0
  -14.7921  -41.9047   -9.2861 C   0  0  0  0  0  0  0  0  0  0  0  0
  -15.7904  -42.9044   -9.3877 C   0  0  0  0  0  0  0  0  0  0  0  0
  -16.0815  -43.5717  -10.5550 C   0  0  0  0  0  0  0  0  0  0  0  0
  -17.3334  -44.8050  -10.6205 Cl  0  0  0  0  0  0  0  0  0  0  0  0
  -15.3564  -43.2099  -11.5819 N   0  0  0  0  0  0  0  0  0  0  0  0
  -14.7405  -41.4117   -7.9081 C   0  0  0  0  0  0  0  0  0  0  0  0
  -14.7527  -42.3274   -6.9377 O   0  0  0  0  0  0  0  0  0  0  0  0
  -14.6795  -40.0994   -7.3760 N   0  0  0  0  0  0  0  0  0  0  0  0
  -21.2479  -38.9563   -7.0775 C   0  0  0  0  0  0  0  0  0  0  0  0
  1  2  1  0
  2  3  1  0
  2  4  1  0
  4  5  2  0
  5  6  1  0
  6  7  2  0
  7  8  1  0
  8  9  1  0
  9 10  1  0
 10 11  1  0
 11 12  1  0
 12 13  1  1
 12 14  1  0
 14 15  1  6
 15 16  1  0
 16 17  2  0
 17 18  1  0
 18 19  1  0
 18 20  2  0
 20 21  1  0
 21 22  2  0
 21 23  1  0
 23 24  1  0
 24 25  1  0
 25 26  1  0
 26 27  1  0
 27 28  1  0
 28 29  1  0
 29 30  2  0
 30 31  1  0
 31 32  2  0
 32 33  1  0
 33 34  1  0
 33 35  2  0
 31 36  1  0
 36 37  2  0
 36 38  1  0
  8 39  2  0
 22 16  1  0
 35 29  1  0
 38 14  1  0
 39  4  1  0
M  END
$$$$
