
     RDKit          3D

 39 42  0  0  0  0  0  0  0  0999 V2000
  -18.0209  -36.4338  -13.9951 C   0  0  0  0  0  0  0  0  0  0  0  0
  -19.1732  -36.5246  -12.9929 C   0  0  0  0  0  0  0  0  0  0  0  0
  -19.4181  -35.1674  -12.4195 C   0  0  0  0  0  0  0  0  0  0  0  0
  -18.7533  -37.5171  -11.9599 C   0  0  0  0  0  0  0  0  0  0  0  0
  -19.6570  -38.4666  -11.5459 C   0  0  0  0  0  0  0  0  0  0  0  0
  -19.3397  -39.4162  -10.5924 C   0  0  0  0  0  0  0  0  0  0  0  0
  -18.0633  -39.3936  -10.0479 C   0  0  0  0  0  0  0  0  0  0  0  0
  -17.1616  -38.4446  -10.4623 C   0  0  0  0  0  0  0  0  0  0  0  0
  -15.7757  -38.4063   -9.8803 C   0  0  0  0  0  0  0  0  0  0  0  0
  -15.9504  -38.0050   -8.4884 N   0  0  0  0  0  0  0  0  0  0  0  0
  -15.9970  -39.1252   -7.6044 C   0  0  0  0  0  0  0  0  0  0  0  0
  -17.3722  -39.4945   -7.1788 C   0  0  1  0  0  0  0  0  0  0  0  0
  -17.4652  -39.8078   -5.8287 O   0  0  0  0  0  0  0  0  0  0  0  0
  -18.4790  -38.5982   -7.6501 C   0  0  2  0  0  0  0  0  0  0  0  0
  -19.5211  -38.2607   -6.6403 C   0  0  0  0  0  0  0  0  0  0  0  0
  -20.3922  -39.3356   -6.1235 C   0  0  0  0  0  0  0  0  0  0  0  0
  -20.1001  -39.6165   -4.7688 C   0  0  0  0  0  0  0  0  0  0  0  0
  -20.7442  -40.5583   -4.0123 C   0  0  0  0  0  0  0  0  0  0  0  0
  -20.3906  -40.8091   -2.5855 C   0  0  0  0  0  0  0  0  0  0  0  0
  -21.7318  -41.2532   -4.6492 C   0  0  0  0  0  0  0  0  0  0  0  0
  -22.0731  -41.0222   -6.0028 C   0  0  0  0  0  0  0  0  0  0  0  0
  -21.3994  -40.0600   -6.7369 C   0  0  0  0  0  0  0  0  0  0  0  0
  -23.1008  -41.8628   -6.3826 O   0  0  0  0  0  0  0  0  0  0  0  0
  -23.3961  -42.8029   -7.3340 C   0  0  0  0  0  0  0  0  0  0  0  0
  -23.1025  -44.1923   -6.8101 C   0  0  0  0  0  0  0  0  0  0  0  0
  -22.3486  -44.9892   -7.8441 C   0  0  0  0  0  0  0  0  0  0  0  0
  -20.8542  -45.0976   -7.5026 C   0  0  0  0  0  0  0  0  0  0  0  0
  -20.1420  -44.8145   -8.7238 N   0  0  0  0  0  0  0  0  0  0  0  0
  -19.3766  -43.6741   -9.1181 C   0  0  0  0  0  0  0  0  0  0  0  0
  -19.6433  -42.3318   -9.1567 C   0  0  0  0  0  0  0  0  0  0  0  0
  -18.6582  -41.4806   -9.6151 C   0  0  0  0  0  0  0  0  0  0  0  0
  -17.4226  -42.0403  -10.0229 C   0  0  0  0  0  0  0  0  0  0  0  0
  -17.1500  -43.3883   -9.9860 C   0  0  0  0  0  0  0  0  0  0  0  0
  -15.5957  -44.0258  -10.5061 Cl  0  0  0  0  0  0  0  0  0  0  0  0
  -18.1319  -44.1282   -9.5395 N   0  0  0  0  0  0  0  0  0  0  0  0
  -18.6123  -40.0276   -9.7921 C   0  0  0  0  0  0  0  0  0  0  0  0
  -18.1167  -39.5746  -10.9452 O   0  0  0  0  0  0  0  0  0  0  0  0
  -19.0042  -38.9601   -8.9461 N   0  0  0  0  0  0  0  0  0  0  0  0
  -17.4937  -37.5016  -11.4167 C   0  0  0  0  0  0  0  0  0  0  0  0
  1  2  1  0
  2  3  1  0
  2  4  1  0
  4  5  2  0
  5  6  1  0
  6  7  2  0
  7  8  1  0
  8  9  1  0
  9 10  1  0
 10 11  1  0
 11 12  1  0
 12 13  1  1
 12 14  1  0
 14 15  1  1
 15 16  1  0
 16 17  2  0
 17 18  1  0
 18 19  1  0
 18 20  2  0
 20 21  1  0
 21 22  2  0
 21 23  1  0
 23 24  1  0
 24 25  1  0
 25 26  1  0
 26 27  1  0
 27 28  1  0
 28 29  1  0
 29 30  2  0
 30 31  1  0
 31 32  2  0
 32 33  1  0
 33 34  1  0
 33 35  2  0
 31 36  1  0
 36 37  2  0
 36 38  1  0
  8 39  2  0
 22 16  1  0
 35 29  1  0
 38 14  1  0
 39  4  1  0
M  END
$$$$
