
     RDKit          3D

 39 42  0  0  0  0  0  0  0  0999 V2000
  -25.1364  -40.3038   -6.1260 C   0  0  0  0  0  0  0  0  0  0  0  0
  -24.3504  -38.9917   -6.0980 C   0  0  0  0  0  0  0  0  0  0  0  0
  -25.1704  -37.9274   -6.7505 C   0  0  0  0  0  0  0  0  0  0  0  0
  -23.0705  -39.2541   -6.8201 C   0  0  0  0  0  0  0  0  0  0  0  0
  -23.1181  -39.8323   -8.0663 C   0  0  0  0  0  0  0  0  0  0  0  0
  -21.9744  -40.1063   -8.7931 C   0  0  0  0  0  0  0  0  0  0  0  0
  -20.7488  -39.7798   -8.2296 C   0  0  0  0  0  0  0  0  0  0  0  0
  -20.7026  -39.2022   -6.9847 C   0  0  0  0  0  0  0  0  0  0  0  0
  -19.3824  -38.8445   -6.3603 C   0  0  0  0  0  0  0  0  0  0  0  0
  -18.5836  -40.0642   -6.4163 N   0  0  0  0  0  0  0  0  0  0  0  0
  -18.3611  -40.5040   -7.7563 C   0  0  0  0  0  0  0  0  0  0  0  0
  -17.1445  -39.9235   -8.3821 C   0  0  1  0  0  0  0  0  0  0  0  0
  -17.4155  -38.8500   -9.2208 O   0  0  0  0  0  0  0  0  0  0  0  0
  -15.9797  -39.6751   -7.4698 C   0  0  2  0  0  0  0  0  0  0  0  0
  -15.0243  -38.6174   -7.9034 C   0  0  0  0  0  0  0  0  0  0  0  0
  -14.2279  -38.8305   -9.1288 C   0  0  0  0  0  0  0  0  0  0  0  0
  -14.6460  -37.9605  -10.1620 C   0  0  0  0  0  0  0  0  0  0  0  0
  -14.0939  -37.9161  -11.4140 C   0  0  0  0  0  0  0  0  0  0  0  0
  -14.5791  -36.9745  -12.4636 C   0  0  0  0  0  0  0  0  0  0  0  0
  -13.0696  -38.7903  -11.6392 C   0  0  0  0  0  0  0  0  0  0  0  0
  -12.6037  -39.6876  -10.6493 C   0  0  0  0  0  0  0  0  0  0  0  0
  -13.1869  -39.7035   -9.3931 C   0  0  0  0  0  0  0  0  0  0  0  0
  -11.5658  -40.4486  -11.1502 O   0  0  0  0  0  0  0  0  0  0  0  0
  -11.2086  -41.7595  -11.3233 C   0  0  0  0  0  0  0  0  0  0  0  0
  -11.5797  -42.2269  -12.7143 C   0  0  0  0  0  0  0  0  0  0  0  0
  -12.2564  -43.5723  -12.6473 C   0  0  0  0  0  0  0  0  0  0  0  0
  -13.7774  -43.4556  -12.8331 C   0  0  0  0  0  0  0  0  0  0  0  0
  -14.3712  -44.2758  -11.8066 N   0  0  0  0  0  0  0  0  0  0  0  0
  -15.0719  -43.9203  -10.6131 C   0  0  0  0  0  0  0  0  0  0  0  0
  -14.7719  -43.1036   -9.5559 C   0  0  0  0  0  0  0  0  0  0  0  0
  -15.6923  -42.9898   -8.5338 C   0  0  0  0  0  0  0  0  0  0  0  0
  -16.8991  -43.7250   -8.6310 C   0  0  0  0  0  0  0  0  0  0  0  0
  -17.2050  -44.5467   -9.6912 C   0  0  0  0  0  0  0  0  0  0  0  0
  -18.7209  -45.4357   -9.7569 Cl  0  0  0  0  0  0  0  0  0  0  0  0
  -16.2841  -44.6011  -10.6185 N   0  0  0  0  0  0  0  0  0  0  0  0
  -15.6888  -42.2304   -7.2816 C   0  0  0  0  0  0  0  0  0  0  0  0
  -16.0689  -42.8798   -6.1797 O   0  0  0  0  0  0  0  0  0  0  0  0
  -15.3494  -40.8846   -6.9940 N   0  0  0  0  0  0  0  0  0  0  0  0
  -21.8551  -38.9344   -6.2702 C   0  0  0  0  0  0  0  0  0  0  0  0
  1  2  1  0
  2  3  1  0
  2  4  1  0
  4  5  2  0
  5  6  1  0
  6  7  2  0
  7  8  1  0
  8  9  1  0
  9 10  1  0
 10 11  1  0
 11 12  1  0
 12 13  1  1
 12 14  1  0
 14 15  1  6
 15 16  1  0
 16 17  2  0
 17 18  1  0
 18 19  1  0
 18 20  2  0
 20 21  1  0
 21 22  2  0
 21 23  1  0
 23 24  1  0
 24 25  1  0
 25 26  1  0
 26 27  1  0
 27 28  1  0
 28 29  1  0
 29 30  2  0
 30 31  1  0
 31 32  2  0
 32 33  1  0
 33 34  1  0
 33 35  2  0
 31 36  1  0
 36 37  2  0
 36 38  1  0
  8 39  2  0
 22 16  1  0
 35 29  1  0
 38 14  1  0
 39  4  1  0
M  END
$$$$
