
     RDKit          3D

 39 42  0  0  0  0  0  0  0  0999 V2000
  -10.7364  -36.4925  -11.3924 C   0  0  0  0  0  0  0  0  0  0  0  0
  -11.8758  -35.8582  -12.1923 C   0  0  0  0  0  0  0  0  0  0  0  0
  -11.8827  -34.3873  -11.9332 C   0  0  0  0  0  0  0  0  0  0  0  0
  -13.1304  -36.5272  -11.7376 C   0  0  0  0  0  0  0  0  0  0  0  0
  -13.7835  -37.3717  -12.6036 C   0  0  0  0  0  0  0  0  0  0  0  0
  -14.9506  -38.0244  -12.2528 C   0  0  0  0  0  0  0  0  0  0  0  0
  -15.4636  -37.8072  -10.9816 C   0  0  0  0  0  0  0  0  0  0  0  0
  -14.8102  -36.9633  -10.1176 C   0  0  0  0  0  0  0  0  0  0  0  0
  -15.3545  -36.7165   -8.7378 C   0  0  0  0  0  0  0  0  0  0  0  0
  -16.6457  -37.3951   -8.7030 N   0  0  0  0  0  0  0  0  0  0  0  0
  -16.7486  -38.3060   -7.6084 C   0  0  0  0  0  0  0  0  0  0  0  0
  -17.9104  -39.2279   -7.7047 C   0  0  1  0  0  0  0  0  0  0  0  0
  -18.4620  -39.5491   -6.4710 O   0  0  0  0  0  0  0  0  0  0  0  0
  -18.9436  -38.8922   -8.7393 C   0  0  2  0  0  0  0  0  0  0  0  0
  -20.3231  -38.6518   -8.2308 C   0  0  0  0  0  0  0  0  0  0  0  0
  -21.0656  -39.7716   -7.6176 C   0  0  0  0  0  0  0  0  0  0  0  0
  -21.2205  -39.5746   -6.2260 C   0  0  0  0  0  0  0  0  0  0  0  0
  -21.8708  -40.4371   -5.3850 C   0  0  0  0  0  0  0  0  0  0  0  0
  -22.0019  -40.1740   -3.9230 C   0  0  0  0  0  0  0  0  0  0  0  0
  -22.3918  -41.5543   -5.9718 C   0  0  0  0  0  0  0  0  0  0  0  0
  -22.2711  -41.8122   -7.3579 C   0  0  0  0  0  0  0  0  0  0  0  0
  -21.6063  -40.9157   -8.1782 C   0  0  0  0  0  0  0  0  0  0  0  0
  -22.8883  -43.0067   -7.6732 O   0  0  0  0  0  0  0  0  0  0  0  0
  -22.6148  -44.2082   -8.2711 C   0  0  0  0  0  0  0  0  0  0  0  0
  -22.2328  -45.2390   -7.2305 C   0  0  0  0  0  0  0  0  0  0  0  0
  -21.0071  -45.9961   -7.6744 C   0  0  0  0  0  0  0  0  0  0  0  0
  -19.7462  -45.5254   -6.9327 C   0  0  0  0  0  0  0  0  0  0  0  0
  -18.7260  -45.3632   -7.9386 N   0  0  0  0  0  0  0  0  0  0  0  0
  -18.1372  -44.1852   -8.4932 C   0  0  0  0  0  0  0  0  0  0  0  0
  -18.6572  -43.0600   -9.0748 C   0  0  0  0  0  0  0  0  0  0  0  0
  -17.7831  -42.0917   -9.5258 C   0  0  0  0  0  0  0  0  0  0  0  0
  -16.3934  -42.3128   -9.3646 C   0  0  0  0  0  0  0  0  0  0  0  0
  -15.8663  -43.4416   -8.7808 C   0  0  0  0  0  0  0  0  0  0  0  0
  -14.1301  -43.6611   -8.6079 Cl  0  0  0  0  0  0  0  0  0  0  0  0
  -16.7573  -44.3110   -8.3791 N   0  0  0  0  0  0  0  0  0  0  0  0
  -17.9936  -40.8024  -10.1878 C   0  0  0  0  0  0  0  0  0  0  0  0
  -17.2315  -40.5370  -11.2504 O   0  0  0  0  0  0  0  0  0  0  0  0
  -18.8821  -39.7330   -9.9122 N   0  0  0  0  0  0  0  0  0  0  0  0
  -13.6439  -36.3178  -10.4829 C   0  0  0  0  0  0  0  0  0  0  0  0
  1  2  1  0
  2  3  1  0
  2  4  1  0
  4  5  2  0
  5  6  1  0
  6  7  2  0
  7  8  1  0
  8  9  1  0
  9 10  1  0
 10 11  1  0
 11 12  1  0
 12 13  1  1
 12 14  1  0
 14 15  1  1
 15 16  1  0
 16 17  2  0
 17 18  1  0
 18 19  1  0
 18 20  2  0
 20 21  1  0
 21 22  2  0
 21 23  1  0
 23 24  1  0
 24 25  1  0
 25 26  1  0
 26 27  1  0
 27 28  1  0
 28 29  1  0
 29 30  2  0
 30 31  1  0
 31 32  2  0
 32 33  1  0
 33 34  1  0
 33 35  2  0
 31 36  1  0
 36 37  2  0
 36 38  1  0
  8 39  2  0
 22 16  1  0
 35 29  1  0
 38 14  1  0
 39  4  1  0
M  END
$$$$
