
     RDKit          3D

 39 42  0  0  0  0  0  0  0  0999 V2000
  -23.1534  -38.2088   -9.1735 C   0  0  0  0  0  0  0  0  0  0  0  0
  -23.4990  -39.6538   -8.8092 C   0  0  0  0  0  0  0  0  0  0  0  0
  -24.8577  -39.6803   -8.1897 C   0  0  0  0  0  0  0  0  0  0  0  0
  -22.4321  -40.1170   -7.8734 C   0  0  0  0  0  0  0  0  0  0  0  0
  -22.3233  -41.4606   -7.6039 C   0  0  0  0  0  0  0  0  0  0  0  0
  -21.3614  -41.9622   -6.7468 C   0  0  0  0  0  0  0  0  0  0  0  0
  -20.4873  -41.0649   -6.1493 C   0  0  0  0  0  0  0  0  0  0  0  0
  -20.5971  -39.7231   -6.4194 C   0  0  0  0  0  0  0  0  0  0  0  0
  -19.6586  -38.7386   -5.7784 C   0  0  0  0  0  0  0  0  0  0  0  0
  -18.8198  -38.2395   -6.8630 N   0  0  0  0  0  0  0  0  0  0  0  0
  -18.1402  -39.2913   -7.5489 C   0  0  0  0  0  0  0  0  0  0  0  0
  -16.8386  -38.8793   -8.1361 C   0  0  1  0  0  0  0  0  0  0  0  0
  -16.8416  -37.5784   -8.6231 O   0  0  0  0  0  0  0  0  0  0  0  0
  -15.6132  -39.2017   -7.3330 C   0  0  2  0  0  0  0  0  0  0  0  0
  -14.4261  -38.3349   -7.5760 C   0  0  0  0  0  0  0  0  0  0  0  0
  -13.7687  -38.3751   -8.8979 C   0  0  0  0  0  0  0  0  0  0  0  0
  -13.9784  -37.1683   -9.6044 C   0  0  0  0  0  0  0  0  0  0  0  0
  -13.4873  -36.9022  -10.8543 C   0  0  0  0  0  0  0  0  0  0  0  0
  -13.7428  -35.6079  -11.5495 C   0  0  0  0  0  0  0  0  0  0  0  0
  -12.7481  -37.8991  -11.4232 C   0  0  0  0  0  0  0  0  0  0  0  0
  -12.5017  -39.1304  -10.7710 C   0  0  0  0  0  0  0  0  0  0  0  0
  -13.0147  -39.3637   -9.5057 C   0  0  0  0  0  0  0  0  0  0  0  0
  -11.7302  -39.9464  -11.5748 O   0  0  0  0  0  0  0  0  0  0  0  0
  -11.7485  -41.1971  -12.1329 C   0  0  0  0  0  0  0  0  0  0  0  0
  -12.2897  -41.1354  -13.5452 C   0  0  0  0  0  0  0  0  0  0  0  0
  -13.3019  -42.2312  -13.7623 C   0  0  0  0  0  0  0  0  0  0  0  0
  -14.7409  -41.6930  -13.7314 C   0  0  0  0  0  0  0  0  0  0  0  0
  -15.4913  -42.6010  -12.9000 N   0  0  0  0  0  0  0  0  0  0  0  0
  -16.0194  -42.4437  -11.5816 C   0  0  0  0  0  0  0  0  0  0  0  0
  -15.4660  -42.0683  -10.3869 C   0  0  0  0  0  0  0  0  0  0  0  0
  -16.2780  -42.0306   -9.2714 C   0  0  0  0  0  0  0  0  0  0  0  0
  -17.6417  -42.3833   -9.4205 C   0  0  0  0  0  0  0  0  0  0  0  0
  -18.2022  -42.7611  -10.6187 C   0  0  0  0  0  0  0  0  0  0  0  0
  -19.9035  -43.1887  -10.7428 Cl  0  0  0  0  0  0  0  0  0  0  0  0
  -17.3698  -42.7714  -11.6276 N   0  0  0  0  0  0  0  0  0  0  0  0
  -16.0171  -41.6911   -7.8710 C   0  0  0  0  0  0  0  0  0  0  0  0
  -16.5126  -42.5160   -6.9466 O   0  0  0  0  0  0  0  0  0  0  0  0
  -15.3146  -40.6138   -7.2752 N   0  0  0  0  0  0  0  0  0  0  0  0
  -21.5642  -39.2366   -7.2788 C   0  0  0  0  0  0  0  0  0  0  0  0
  1  2  1  0
  2  3  1  0
  2  4  1  0
  4  5  2  0
  5  6  1  0
  6  7  2  0
  7  8  1  0
  8  9  1  0
  9 10  1  0
 10 11  1  0
 11 12  1  0
 12 13  1  1
 12 14  1  0
 14 15  1  6
 15 16  1  0
 16 17  2  0
 17 18  1  0
 18 19  1  0
 18 20  2  0
 20 21  1  0
 21 22  2  0
 21 23  1  0
 23 24  1  0
 24 25  1  0
 25 26  1  0
 26 27  1  0
 27 28  1  0
 28 29  1  0
 29 30  2  0
 30 31  1  0
 31 32  2  0
 32 33  1  0
 33 34  1  0
 33 35  2  0
 31 36  1  0
 36 37  2  0
 36 38  1  0
  8 39  2  0
 22 16  1  0
 35 29  1  0
 38 14  1  0
 39  4  1  0
M  END
$$$$
