
     RDKit          3D

 39 42  0  0  0  0  0  0  0  0999 V2000
  -21.8001  -42.3732   -4.3193 C   0  0  0  0  0  0  0  0  0  0  0  0
  -21.5908  -40.8605   -4.4097 C   0  0  0  0  0  0  0  0  0  0  0  0
  -22.6591  -40.1804   -3.6180 C   0  0  0  0  0  0  0  0  0  0  0  0
  -21.6442  -40.5158   -5.8612 C   0  0  0  0  0  0  0  0  0  0  0  0
  -22.7943  -40.7835   -6.5649 C   0  0  0  0  0  0  0  0  0  0  0  0
  -22.9159  -40.4934   -7.9112 C   0  0  0  0  0  0  0  0  0  0  0  0
  -21.8314  -39.9138   -8.5549 C   0  0  0  0  0  0  0  0  0  0  0  0
  -20.6832  -39.6470   -7.8507 C   0  0  0  0  0  0  0  0  0  0  0  0
  -19.4994  -39.0209   -8.5345 C   0  0  0  0  0  0  0  0  0  0  0  0
  -18.7743  -38.3134   -7.4845 N   0  0  0  0  0  0  0  0  0  0  0  0
  -17.4873  -37.8732   -7.9184 C   0  0  0  0  0  0  0  0  0  0  0  0
  -16.5513  -38.9830   -8.2360 C   0  0  1  0  0  0  0  0  0  0  0  0
  -15.2288  -38.5730   -8.3475 O   0  0  0  0  0  0  0  0  0  0  0  0
  -16.7097  -40.2393   -7.4315 C   0  0  2  0  0  0  0  0  0  0  0  0
  -15.4550  -40.8264   -6.8831 C   0  0  0  0  0  0  0  0  0  0  0  0
  -14.4451  -41.3599   -7.8195 C   0  0  0  0  0  0  0  0  0  0  0  0
  -13.2876  -40.5479   -7.8320 C   0  0  0  0  0  0  0  0  0  0  0  0
  -12.1761  -40.7879   -8.5944 C   0  0  0  0  0  0  0  0  0  0  0  0
  -10.9834  -39.8932   -8.5644 C   0  0  0  0  0  0  0  0  0  0  0  0
  -12.2305  -41.9002   -9.3843 C   0  0  0  0  0  0  0  0  0  0  0  0
  -13.3584  -42.7538   -9.4196 C   0  0  0  0  0  0  0  0  0  0  0  0
  -14.4651  -42.4791   -8.6333 C   0  0  0  0  0  0  0  0  0  0  0  0
  -13.1380  -43.7940  -10.3009 O   0  0  0  0  0  0  0  0  0  0  0  0
  -13.7013  -44.3765  -11.4052 C   0  0  0  0  0  0  0  0  0  0  0  0
  -13.0831  -43.8169  -12.6685 C   0  0  0  0  0  0  0  0  0  0  0  0
  -14.1598  -43.4757  -13.6669 C   0  0  0  0  0  0  0  0  0  0  0  0
  -14.4190  -41.9624  -13.7316 C   0  0  0  0  0  0  0  0  0  0  0  0
  -15.8514  -41.7992  -13.7078 N   0  0  0  0  0  0  0  0  0  0  0  0
  -16.7219  -41.3193  -12.6813 C   0  0  0  0  0  0  0  0  0  0  0  0
  -16.9048  -41.6629  -11.3686 C   0  0  0  0  0  0  0  0  0  0  0  0
  -17.8647  -40.9880  -10.6420 C   0  0  0  0  0  0  0  0  0  0  0  0
  -18.6117  -39.9755  -11.2926 C   0  0  0  0  0  0  0  0  0  0  0  0
  -18.4315  -39.6268  -12.6112 C   0  0  0  0  0  0  0  0  0  0  0  0
  -19.3900  -38.3600  -13.3657 Cl  0  0  0  0  0  0  0  0  0  0  0  0
  -17.5045  -40.3103  -13.2311 N   0  0  0  0  0  0  0  0  0  0  0  0
  -18.3160  -41.1047   -9.2537 C   0  0  0  0  0  0  0  0  0  0  0  0
  -19.6339  -41.1249   -9.0462 O   0  0  0  0  0  0  0  0  0  0  0  0
  -17.6017  -41.2029   -8.0334 N   0  0  0  0  0  0  0  0  0  0  0  0
  -20.5768  -39.9428   -6.5047 C   0  0  0  0  0  0  0  0  0  0  0  0
  1  2  1  0
  2  3  1  0
  2  4  1  0
  4  5  2  0
  5  6  1  0
  6  7  2  0
  7  8  1  0
  8  9  1  0
  9 10  1  0
 10 11  1  0
 11 12  1  0
 12 13  1  1
 12 14  1  0
 14 15  1  6
 15 16  1  0
 16 17  2  0
 17 18  1  0
 18 19  1  0
 18 20  2  0
 20 21  1  0
 21 22  2  0
 21 23  1  0
 23 24  1  0
 24 25  1  0
 25 26  1  0
 26 27  1  0
 27 28  1  0
 28 29  1  0
 29 30  2  0
 30 31  1  0
 31 32  2  0
 32 33  1  0
 33 34  1  0
 33 35  2  0
 31 36  1  0
 36 37  2  0
 36 38  1  0
  8 39  2  0
 22 16  1  0
 35 29  1  0
 38 14  1  0
 39  4  1  0
M  END
$$$$
