
     RDKit          3D

 39 42  0  0  0  0  0  0  0  0999 V2000
  -15.3731  -37.8467  -13.3834 C   0  0  0  0  0  0  0  0  0  0  0  0
  -16.3501  -36.6760  -13.2605 C   0  0  0  0  0  0  0  0  0  0  0  0
  -15.6756  -35.4354  -13.7470 C   0  0  0  0  0  0  0  0  0  0  0  0
  -16.7292  -36.5959  -11.8189 C   0  0  0  0  0  0  0  0  0  0  0  0
  -17.9346  -36.0283  -11.4803 C   0  0  0  0  0  0  0  0  0  0  0  0
  -18.3514  -35.9183  -10.1667 C   0  0  0  0  0  0  0  0  0  0  0  0
  -17.5124  -36.4021   -9.1726 C   0  0  0  0  0  0  0  0  0  0  0  0
  -16.3086  -36.9688   -9.5122 C   0  0  0  0  0  0  0  0  0  0  0  0
  -15.3881  -37.4958   -8.4465 C   0  0  0  0  0  0  0  0  0  0  0  0
  -16.2045  -37.5909   -7.2410 N   0  0  0  0  0  0  0  0  0  0  0  0
  -16.2600  -38.9226   -6.7291 C   0  0  0  0  0  0  0  0  0  0  0  0
  -17.5708  -39.5904   -6.9403 C   0  0  1  0  0  0  0  0  0  0  0  0
  -18.1567  -40.0379   -5.7631 O   0  0  0  0  0  0  0  0  0  0  0  0
  -18.5383  -38.8880   -7.8464 C   0  0  2  0  0  0  0  0  0  0  0  0
  -19.8050  -38.4229   -7.2149 C   0  0  0  0  0  0  0  0  0  0  0  0
  -20.7608  -39.4262   -6.7039 C   0  0  0  0  0  0  0  0  0  0  0  0
  -20.8125  -39.4024   -5.2911 C   0  0  0  0  0  0  0  0  0  0  0  0
  -21.6107  -40.2110   -4.5273 C   0  0  0  0  0  0  0  0  0  0  0  0
  -21.6213  -40.1390   -3.0378 C   0  0  0  0  0  0  0  0  0  0  0  0
  -22.3967  -41.0879   -5.2180 C   0  0  0  0  0  0  0  0  0  0  0  0
  -22.3921  -41.1634   -6.6310 C   0  0  0  0  0  0  0  0  0  0  0  0
  -21.5712  -40.3284   -7.3708 C   0  0  0  0  0  0  0  0  0  0  0  0
  -23.2790  -42.1327   -7.0566 O   0  0  0  0  0  0  0  0  0  0  0  0
  -23.3123  -43.2659   -7.8252 C   0  0  0  0  0  0  0  0  0  0  0  0
  -23.1375  -44.4947   -6.9589 C   0  0  0  0  0  0  0  0  0  0  0  0
  -22.1367  -45.4331   -7.5837 C   0  0  0  0  0  0  0  0  0  0  0  0
  -20.7737  -45.3664   -6.8771 C   0  0  0  0  0  0  0  0  0  0  0  0
  -19.7831  -45.2916   -7.9220 N   0  0  0  0  0  0  0  0  0  0  0  0
  -18.9612  -44.2065   -8.3567 C   0  0  0  0  0  0  0  0  0  0  0  0
  -19.2307  -42.9222   -8.7471 C   0  0  0  0  0  0  0  0  0  0  0  0
  -18.1755  -42.1176   -9.1270 C   0  0  0  0  0  0  0  0  0  0  0  0
  -16.8687  -42.6628   -9.0944 C   0  0  0  0  0  0  0  0  0  0  0  0
  -16.5931  -43.9526   -8.7029 C   0  0  0  0  0  0  0  0  0  0  0  0
  -14.9484  -44.5750   -8.6829 Cl  0  0  0  0  0  0  0  0  0  0  0  0
  -17.6439  -44.6509   -8.3575 N   0  0  0  0  0  0  0  0  0  0  0  0
  -18.1094  -40.7321   -9.5970 C   0  0  0  0  0  0  0  0  0  0  0  0
  -17.3482  -40.4923  -10.6664 O   0  0  0  0  0  0  0  0  0  0  0  0
  -18.7170  -39.5432   -9.1213 N   0  0  0  0  0  0  0  0  0  0  0  0
  -15.9057  -37.0717  -10.8304 C   0  0  0  0  0  0  0  0  0  0  0  0
  1  2  1  0
  2  3  1  0
  2  4  1  0
  4  5  2  0
  5  6  1  0
  6  7  2  0
  7  8  1  0
  8  9  1  0
  9 10  1  0
 10 11  1  0
 11 12  1  0
 12 13  1  1
 12 14  1  0
 14 15  1  1
 15 16  1  0
 16 17  2  0
 17 18  1  0
 18 19  1  0
 18 20  2  0
 20 21  1  0
 21 22  2  0
 21 23  1  0
 23 24  1  0
 24 25  1  0
 25 26  1  0
 26 27  1  0
 27 28  1  0
 28 29  1  0
 29 30  2  0
 30 31  1  0
 31 32  2  0
 32 33  1  0
 33 34  1  0
 33 35  2  0
 31 36  1  0
 36 37  2  0
 36 38  1  0
  8 39  2  0
 22 16  1  0
 35 29  1  0
 38 14  1  0
 39  4  1  0
M  END
$$$$
