
     RDKit          3D

 39 42  0  0  0  0  0  0  0  0999 V2000
  -14.1825  -33.6465  -12.4857 C   0  0  0  0  0  0  0  0  0  0  0  0
  -14.8761  -34.5108  -11.4311 C   0  0  0  0  0  0  0  0  0  0  0  0
  -14.3966  -34.0948  -10.0792 C   0  0  0  0  0  0  0  0  0  0  0  0
  -14.5276  -35.9261  -11.7535 C   0  0  0  0  0  0  0  0  0  0  0  0
  -14.6410  -36.3578  -13.0537 C   0  0  0  0  0  0  0  0  0  0  0  0
  -14.3376  -37.6541  -13.4263 C   0  0  0  0  0  0  0  0  0  0  0  0
  -13.9066  -38.5326  -12.4421 C   0  0  0  0  0  0  0  0  0  0  0  0
  -13.7938  -38.1001  -11.1437 C   0  0  0  0  0  0  0  0  0  0  0  0
  -13.3299  -39.0405  -10.0660 C   0  0  0  0  0  0  0  0  0  0  0  0
  -14.5218  -39.7719   -9.6500 N   0  0  0  0  0  0  0  0  0  0  0  0
  -15.4319  -38.9510   -8.9176 C   0  0  0  0  0  0  0  0  0  0  0  0
  -16.8126  -39.4975   -8.8549 C   0  0  1  0  0  0  0  0  0  0  0  0
  -17.4066  -39.3509   -7.6078 O   0  0  0  0  0  0  0  0  0  0  0  0
  -17.7267  -39.1304   -9.9864 C   0  0  2  0  0  0  0  0  0  0  0  0
  -18.9307  -38.3325   -9.6209 C   0  0  0  0  0  0  0  0  0  0  0  0
  -19.9672  -38.9497   -8.7689 C   0  0  0  0  0  0  0  0  0  0  0  0
  -19.9883  -38.3549   -7.4863 C   0  0  0  0  0  0  0  0  0  0  0  0
  -20.8444  -38.7081   -6.4781 C   0  0  0  0  0  0  0  0  0  0  0  0
  -20.8186  -38.0424   -5.1439 C   0  0  0  0  0  0  0  0  0  0  0  0
  -21.7239  -39.7098   -6.7735 C   0  0  0  0  0  0  0  0  0  0  0  0
  -21.7545  -40.3473   -8.0363 C   0  0  0  0  0  0  0  0  0  0  0  0
  -20.8728  -39.9625   -9.0328 C   0  0  0  0  0  0  0  0  0  0  0  0
  -22.7378  -41.3168   -8.0540 O   0  0  0  0  0  0  0  0  0  0  0  0
  -22.8940  -42.6547   -8.3024 C   0  0  0  0  0  0  0  0  0  0  0  0
  -22.8197  -43.4419   -7.0117 C   0  0  0  0  0  0  0  0  0  0  0  0
  -21.9253  -44.6428   -7.1860 C   0  0  0  0  0  0  0  0  0  0  0  0
  -20.5484  -44.4273   -6.5385 C   0  0  0  0  0  0  0  0  0  0  0  0
  -19.5761  -44.8736   -7.5051 N   0  0  0  0  0  0  0  0  0  0  0  0
  -18.6635  -44.1385   -8.3228 C   0  0  0  0  0  0  0  0  0  0  0  0
  -18.8173  -43.1004   -9.2022 C   0  0  0  0  0  0  0  0  0  0  0  0
  -17.6982  -42.6208   -9.8523 C   0  0  0  0  0  0  0  0  0  0  0  0
  -16.4488  -43.2284   -9.5768 C   0  0  0  0  0  0  0  0  0  0  0  0
  -16.2893  -44.2716   -8.6941 C   0  0  0  0  0  0  0  0  0  0  0  0
  -14.7112  -44.9866   -8.3923 Cl  0  0  0  0  0  0  0  0  0  0  0  0
  -17.3946  -44.6686   -8.1183 N   0  0  0  0  0  0  0  0  0  0  0  0
  -17.5099  -41.5546  -10.8383 C   0  0  0  0  0  0  0  0  0  0  0  0
  -16.7508  -41.8386  -11.8983 O   0  0  0  0  0  0  0  0  0  0  0  0
  -17.9922  -40.2229  -10.8933 N   0  0  0  0  0  0  0  0  0  0  0  0
  -14.1008  -36.8006  -10.7866 C   0  0  0  0  0  0  0  0  0  0  0  0
  1  2  1  0
  2  3  1  0
  2  4  1  0
  4  5  2  0
  5  6  1  0
  6  7  2  0
  7  8  1  0
  8  9  1  0
  9 10  1  0
 10 11  1  0
 11 12  1  0
 12 13  1  1
 12 14  1  0
 14 15  1  1
 15 16  1  0
 16 17  2  0
 17 18  1  0
 18 19  1  0
 18 20  2  0
 20 21  1  0
 21 22  2  0
 21 23  1  0
 23 24  1  0
 24 25  1  0
 25 26  1  0
 26 27  1  0
 27 28  1  0
 28 29  1  0
 29 30  2  0
 30 31  1  0
 31 32  2  0
 32 33  1  0
 33 34  1  0
 33 35  2  0
 31 36  1  0
 36 37  2  0
 36 38  1  0
  8 39  2  0
 22 16  1  0
 35 29  1  0
 38 14  1  0
 39  4  1  0
M  END
$$$$
