
     RDKit          3D

 39 42  0  0  0  0  0  0  0  0999 V2000
  -23.1900  -38.6990   -5.7889 C   0  0  0  0  0  0  0  0  0  0  0  0
  -22.9835  -40.1906   -5.5196 C   0  0  0  0  0  0  0  0  0  0  0  0
  -22.4807  -40.3608   -4.1236 C   0  0  0  0  0  0  0  0  0  0  0  0
  -22.0088  -40.6705   -6.5434 C   0  0  0  0  0  0  0  0  0  0  0  0
  -22.1201  -41.9573   -7.0138 C   0  0  0  0  0  0  0  0  0  0  0  0
  -21.2530  -42.4710   -7.9603 C   0  0  0  0  0  0  0  0  0  0  0  0
  -20.2448  -41.6457   -8.4384 C   0  0  0  0  0  0  0  0  0  0  0  0
  -20.1347  -40.3605   -7.9676 C   0  0  0  0  0  0  0  0  0  0  0  0
  -19.0466  -39.4550   -8.4746 C   0  0  0  0  0  0  0  0  0  0  0  0
  -18.1790  -39.2109   -7.3271 N   0  0  0  0  0  0  0  0  0  0  0  0
  -17.4766  -40.3856   -6.9206 C   0  0  0  0  0  0  0  0  0  0  0  0
  -16.2544  -40.6587   -7.7209 C   0  0  1  0  0  0  0  0  0  0  0  0
  -15.0810  -40.2831   -7.0794 O   0  0  0  0  0  0  0  0  0  0  0  0
  -16.1654  -42.0128   -8.3604 C   0  0  2  0  0  0  0  0  0  0  0  0
  -14.8288  -42.6695   -8.3161 C   0  0  0  0  0  0  0  0  0  0  0  0
  -13.7081  -42.0635   -9.0631 C   0  0  0  0  0  0  0  0  0  0  0  0
  -12.7460  -41.5209   -8.1802 C   0  0  0  0  0  0  0  0  0  0  0  0
  -11.5914  -40.8991   -8.5733 C   0  0  0  0  0  0  0  0  0  0  0  0
  -10.6133  -40.3460   -7.5929 C   0  0  0  0  0  0  0  0  0  0  0  0
  -11.3935  -40.8182   -9.9217 C   0  0  0  0  0  0  0  0  0  0  0  0
  -12.3168  -41.3394  -10.8587 C   0  0  0  0  0  0  0  0  0  0  0  0
  -13.4745  -41.9629  -10.4235 C   0  0  0  0  0  0  0  0  0  0  0  0
  -11.8633  -41.1182  -12.1443 O   0  0  0  0  0  0  0  0  0  0  0  0
  -12.2663  -40.5402  -13.3188 C   0  0  0  0  0  0  0  0  0  0  0  0
  -11.7496  -39.1205  -13.4113 C   0  0  0  0  0  0  0  0  0  0  0  0
  -12.8502  -38.1953  -13.8642 C   0  0  0  0  0  0  0  0  0  0  0  0
  -13.4186  -37.3712  -12.6983 C   0  0  0  0  0  0  0  0  0  0  0  0
  -14.8535  -37.4375  -12.8221 N   0  0  0  0  0  0  0  0  0  0  0  0
  -15.8289  -38.1351  -12.0451 C   0  0  0  0  0  0  0  0  0  0  0  0
  -15.9665  -39.4434  -11.6656 C   0  0  0  0  0  0  0  0  0  0  0  0
  -17.0630  -39.7931  -10.9038 C   0  0  0  0  0  0  0  0  0  0  0  0
  -17.9898  -38.7803  -10.5552 C   0  0  0  0  0  0  0  0  0  0  0  0
  -17.8558  -37.4645  -10.9341 C   0  0  0  0  0  0  0  0  0  0  0  0
  -19.0402  -36.2499  -10.4708 Cl  0  0  0  0  0  0  0  0  0  0  0  0
  -16.7922  -37.2127  -11.6525 N   0  0  0  0  0  0  0  0  0  0  0  0
  -17.5122  -41.0712  -10.3476 C   0  0  0  0  0  0  0  0  0  0  0  0
  -18.8012  -41.3786  -10.5034 O   0  0  0  0  0  0  0  0  0  0  0  0
  -16.8218  -42.0903   -9.6448 N   0  0  0  0  0  0  0  0  0  0  0  0
  -21.0095  -39.8611   -7.0210 C   0  0  0  0  0  0  0  0  0  0  0  0
  1  2  1  0
  2  3  1  0
  2  4  1  0
  4  5  2  0
  5  6  1  0
  6  7  2  0
  7  8  1  0
  8  9  1  0
  9 10  1  0
 10 11  1  0
 11 12  1  0
 12 13  1  1
 12 14  1  0
 14 15  1  6
 15 16  1  0
 16 17  2  0
 17 18  1  0
 18 19  1  0
 18 20  2  0
 20 21  1  0
 21 22  2  0
 21 23  1  0
 23 24  1  0
 24 25  1  0
 25 26  1  0
 26 27  1  0
 27 28  1  0
 28 29  1  0
 29 30  2  0
 30 31  1  0
 31 32  2  0
 32 33  1  0
 33 34  1  0
 33 35  2  0
 31 36  1  0
 36 37  2  0
 36 38  1  0
  8 39  2  0
 22 16  1  0
 35 29  1  0
 38 14  1  0
 39  4  1  0
M  END
$$$$
