
     RDKit          3D

 39 42  0  0  0  0  0  0  0  0999 V2000
  -16.3294  -36.2393  -13.9122 C   0  0  0  0  0  0  0  0  0  0  0  0
  -17.1380  -35.5262  -12.8269 C   0  0  0  0  0  0  0  0  0  0  0  0
  -16.6840  -34.1056  -12.7461 C   0  0  0  0  0  0  0  0  0  0  0  0
  -16.8962  -36.2793  -11.5609 C   0  0  0  0  0  0  0  0  0  0  0  0
  -16.5907  -35.5772  -10.4192 C   0  0  0  0  0  0  0  0  0  0  0  0
  -16.3527  -36.2066   -9.2115 C   0  0  0  0  0  0  0  0  0  0  0  0
  -16.4293  -37.5918   -9.1707 C   0  0  0  0  0  0  0  0  0  0  0  0
  -16.7345  -38.2919  -10.3119 C   0  0  0  0  0  0  0  0  0  0  0  0
  -16.8194  -39.7929  -10.2840 C   0  0  0  0  0  0  0  0  0  0  0  0
  -15.7623  -40.2243   -9.3755 N   0  0  0  0  0  0  0  0  0  0  0  0
  -16.2589  -40.5217   -8.0704 C   0  0  0  0  0  0  0  0  0  0  0  0
  -17.5455  -39.8492   -7.7524 C   0  0  1  0  0  0  0  0  0  0  0  0
  -17.4377  -38.9059   -6.7385 O   0  0  0  0  0  0  0  0  0  0  0  0
  -18.3505  -39.3637   -8.9215 C   0  0  2  0  0  0  0  0  0  0  0  0
  -19.3539  -38.3022   -8.6281 C   0  0  0  0  0  0  0  0  0  0  0  0
  -20.5053  -38.6252   -7.7614 C   0  0  0  0  0  0  0  0  0  0  0  0
  -20.4044  -37.9611   -6.5171 C   0  0  0  0  0  0  0  0  0  0  0  0
  -21.3232  -38.0563   -5.5067 C   0  0  0  0  0  0  0  0  0  0  0  0
  -21.1613  -37.3301   -4.2144 C   0  0  0  0  0  0  0  0  0  0  0  0
  -22.3979  -38.8595   -5.7592 C   0  0  0  0  0  0  0  0  0  0  0  0
  -22.5588  -39.5529   -6.9822 C   0  0  0  0  0  0  0  0  0  0  0  0
  -21.6082  -39.4317   -7.9823 C   0  0  0  0  0  0  0  0  0  0  0  0
  -23.7297  -40.2849   -6.9614 O   0  0  0  0  0  0  0  0  0  0  0  0
  -24.1721  -41.5698   -7.1327 C   0  0  0  0  0  0  0  0  0  0  0  0
  -24.2792  -42.2721   -5.7962 C   0  0  0  0  0  0  0  0  0  0  0  0
  -23.6669  -43.6470   -5.8809 C   0  0  0  0  0  0  0  0  0  0  0  0
  -22.2802  -43.6957   -5.2204 C   0  0  0  0  0  0  0  0  0  0  0  0
  -21.4226  -44.4019   -6.1394 N   0  0  0  0  0  0  0  0  0  0  0  0
  -20.3667  -43.9350   -6.9813 C   0  0  0  0  0  0  0  0  0  0  0  0
  -20.2850  -42.9453   -7.9238 C   0  0  0  0  0  0  0  0  0  0  0  0
  -19.0842  -42.7617   -8.5791 C   0  0  0  0  0  0  0  0  0  0  0  0
  -17.9990  -43.6077   -8.2433 C   0  0  0  0  0  0  0  0  0  0  0  0
  -18.0762  -44.6034   -7.2970 C   0  0  0  0  0  0  0  0  0  0  0  0
  -16.6938  -45.6237   -6.9221 Cl  0  0  0  0  0  0  0  0  0  0  0  0
  -19.2451  -44.7142   -6.7205 N   0  0  0  0  0  0  0  0  0  0  0  0
  -18.6619  -41.8255   -9.6231 C   0  0  0  0  0  0  0  0  0  0  0  0
  -17.9764  -42.3332  -10.6491 O   0  0  0  0  0  0  0  0  0  0  0  0
  -18.8420  -40.4269   -9.7668 N   0  0  0  0  0  0  0  0  0  0  0  0
  -16.9700  -37.6482  -11.5123 C   0  0  0  0  0  0  0  0  0  0  0  0
  1  2  1  0
  2  3  1  0
  2  4  1  0
  4  5  2  0
  5  6  1  0
  6  7  2  0
  7  8  1  0
  8  9  1  0
  9 10  1  0
 10 11  1  0
 11 12  1  0
 12 13  1  1
 12 14  1  0
 14 15  1  1
 15 16  1  0
 16 17  2  0
 17 18  1  0
 18 19  1  0
 18 20  2  0
 20 21  1  0
 21 22  2  0
 21 23  1  0
 23 24  1  0
 24 25  1  0
 25 26  1  0
 26 27  1  0
 27 28  1  0
 28 29  1  0
 29 30  2  0
 30 31  1  0
 31 32  2  0
 32 33  1  0
 33 34  1  0
 33 35  2  0
 31 36  1  0
 36 37  2  0
 36 38  1  0
  8 39  2  0
 22 16  1  0
 35 29  1  0
 38 14  1  0
 39  4  1  0
M  END
$$$$
