
     RDKit          3D

 39 42  0  0  0  0  0  0  0  0999 V2000
  -23.3294  -42.6363   -7.2740 C   0  0  0  0  0  0  0  0  0  0  0  0
  -23.8928  -41.4589   -8.0719 C   0  0  0  0  0  0  0  0  0  0  0  0
  -23.9475  -41.8400   -9.5150 C   0  0  0  0  0  0  0  0  0  0  0  0
  -22.9808  -40.3049   -7.8170 C   0  0  0  0  0  0  0  0  0  0  0  0
  -23.2191  -39.1154   -8.4633 C   0  0  0  0  0  0  0  0  0  0  0  0
  -22.4164  -38.0051   -8.2779 C   0  0  0  0  0  0  0  0  0  0  0  0
  -21.3408  -38.1148   -7.4078 C   0  0  0  0  0  0  0  0  0  0  0  0
  -21.1038  -39.3037   -6.7628 C   0  0  0  0  0  0  0  0  0  0  0  0
  -19.9415  -39.4386   -5.8185 C   0  0  0  0  0  0  0  0  0  0  0  0
  -18.8767  -38.6245   -6.3952 N   0  0  0  0  0  0  0  0  0  0  0  0
  -18.5280  -39.0456   -7.7141 C   0  0  0  0  0  0  0  0  0  0  0  0
  -17.1955  -39.6981   -7.8009 C   0  0  1  0  0  0  0  0  0  0  0  0
  -16.1603  -38.9006   -7.3300 O   0  0  0  0  0  0  0  0  0  0  0  0
  -17.1137  -41.1140   -7.3120 C   0  0  2  0  0  0  0  0  0  0  0  0
  -15.8142  -41.5228   -6.7089 C   0  0  0  0  0  0  0  0  0  0  0  0
  -14.6127  -41.5777   -7.5662 C   0  0  0  0  0  0  0  0  0  0  0  0
  -13.7016  -40.5509   -7.2271 C   0  0  0  0  0  0  0  0  0  0  0  0
  -12.4940  -40.3479   -7.8392 C   0  0  0  0  0  0  0  0  0  0  0  0
  -11.5742  -39.2455   -7.4362 C   0  0  0  0  0  0  0  0  0  0  0  0
  -12.1862  -41.2208   -8.8428 C   0  0  0  0  0  0  0  0  0  0  0  0
  -13.0534  -42.2689   -9.2321 C   0  0  0  0  0  0  0  0  0  0  0  0
  -14.2676  -42.4439   -8.5890 C   0  0  0  0  0  0  0  0  0  0  0  0
  -12.4900  -42.9909  -10.2658 O   0  0  0  0  0  0  0  0  0  0  0  0
  -12.7733  -43.4003  -11.5418 C   0  0  0  0  0  0  0  0  0  0  0  0
  -12.1908  -42.4304  -12.5473 C   0  0  0  0  0  0  0  0  0  0  0  0
  -13.2114  -42.1062  -13.6083 C   0  0  0  0  0  0  0  0  0  0  0  0
  -13.8350  -40.7180  -13.3948 C   0  0  0  0  0  0  0  0  0  0  0  0
  -15.2571  -40.8869  -13.5620 N   0  0  0  0  0  0  0  0  0  0  0  0
  -16.3200  -40.8735  -12.6071 C   0  0  0  0  0  0  0  0  0  0  0  0
  -16.5431  -41.5547  -11.4406 C   0  0  0  0  0  0  0  0  0  0  0  0
  -17.7107  -41.3045  -10.7484 C   0  0  0  0  0  0  0  0  0  0  0  0
  -18.6182  -40.3567  -11.2816 C   0  0  0  0  0  0  0  0  0  0  0  0
  -18.3985  -39.6698  -12.4532 C   0  0  0  0  0  0  0  0  0  0  0  0
  -19.5630  -38.5035  -13.0666 Cl  0  0  0  0  0  0  0  0  0  0  0  0
  -17.2713  -39.9611  -13.0494 N   0  0  0  0  0  0  0  0  0  0  0  0
  -18.2568  -41.8491   -9.5035 C   0  0  0  0  0  0  0  0  0  0  0  0
  -19.5413  -42.2101   -9.5138 O   0  0  0  0  0  0  0  0  0  0  0  0
  -17.6687  -42.0774   -8.2342 N   0  0  0  0  0  0  0  0  0  0  0  0
  -21.9155  -40.4053   -6.9585 C   0  0  0  0  0  0  0  0  0  0  0  0
  1  2  1  0
  2  3  1  0
  2  4  1  0
  4  5  2  0
  5  6  1  0
  6  7  2  0
  7  8  1  0
  8  9  1  0
  9 10  1  0
 10 11  1  0
 11 12  1  0
 12 13  1  1
 12 14  1  0
 14 15  1  6
 15 16  1  0
 16 17  2  0
 17 18  1  0
 18 19  1  0
 18 20  2  0
 20 21  1  0
 21 22  2  0
 21 23  1  0
 23 24  1  0
 24 25  1  0
 25 26  1  0
 26 27  1  0
 27 28  1  0
 28 29  1  0
 29 30  2  0
 30 31  1  0
 31 32  2  0
 32 33  1  0
 33 34  1  0
 33 35  2  0
 31 36  1  0
 36 37  2  0
 36 38  1  0
  8 39  2  0
 22 16  1  0
 35 29  1  0
 38 14  1  0
 39  4  1  0
M  END
$$$$
