
     RDKit          3D

 39 42  0  0  0  0  0  0  0  0999 V2000
  -24.3317  -39.1235   -7.4114 C   0  0  0  0  0  0  0  0  0  0  0  0
  -24.0282  -40.6114   -7.2262 C   0  0  0  0  0  0  0  0  0  0  0  0
  -24.8344  -41.1260   -6.0791 C   0  0  0  0  0  0  0  0  0  0  0  0
  -22.5584  -40.7128   -6.9863 C   0  0  0  0  0  0  0  0  0  0  0  0
  -22.0065  -41.9517   -6.7624 C   0  0  0  0  0  0  0  0  0  0  0  0
  -20.6541  -42.1225   -6.5314 C   0  0  0  0  0  0  0  0  0  0  0  0
  -19.8445  -40.9952   -6.5293 C   0  0  0  0  0  0  0  0  0  0  0  0
  -20.3971  -39.7583   -6.7530 C   0  0  0  0  0  0  0  0  0  0  0  0
  -19.5333  -38.5275   -6.7520 C   0  0  0  0  0  0  0  0  0  0  0  0
  -18.2146  -38.9795   -6.3211 N   0  0  0  0  0  0  0  0  0  0  0  0
  -17.1811  -38.0692   -6.6979 C   0  0  0  0  0  0  0  0  0  0  0  0
  -16.0973  -38.6937   -7.5005 C   0  0  1  0  0  0  0  0  0  0  0  0
  -14.9574  -37.9056   -7.5937 O   0  0  0  0  0  0  0  0  0  0  0  0
  -15.7927  -40.1324   -7.2038 C   0  0  2  0  0  0  0  0  0  0  0  0
  -14.3491  -40.4891   -7.1123 C   0  0  0  0  0  0  0  0  0  0  0  0
  -13.5094  -40.3920   -8.3234 C   0  0  0  0  0  0  0  0  0  0  0  0
  -12.5829  -39.3296   -8.2132 C   0  0  0  0  0  0  0  0  0  0  0  0
  -11.6652  -38.9939   -9.1721 C   0  0  0  0  0  0  0  0  0  0  0  0
  -10.7121  -37.8603   -8.9977 C   0  0  0  0  0  0  0  0  0  0  0  0
  -11.6792  -39.7648  -10.2988 C   0  0  0  0  0  0  0  0  0  0  0  0
  -12.5807  -40.8414  -10.4728 C   0  0  0  0  0  0  0  0  0  0  0  0
  -13.4952  -41.1520   -9.4800 C   0  0  0  0  0  0  0  0  0  0  0  0
  -12.3714  -41.4413  -11.6990 O   0  0  0  0  0  0  0  0  0  0  0  0
  -13.0534  -41.7740  -12.8393 C   0  0  0  0  0  0  0  0  0  0  0  0
  -12.8901  -40.6919  -13.8850 C   0  0  0  0  0  0  0  0  0  0  0  0
  -14.2237  -40.3649  -14.5072 C   0  0  0  0  0  0  0  0  0  0  0  0
  -14.7974  -39.0458  -13.9666 C   0  0  0  0  0  0  0  0  0  0  0  0
  -16.1829  -39.3051  -13.6633 N   0  0  0  0  0  0  0  0  0  0  0  0
  -16.8574  -39.4405  -12.4109 C   0  0  0  0  0  0  0  0  0  0  0  0
  -16.6409  -40.2213  -11.3072 C   0  0  0  0  0  0  0  0  0  0  0  0
  -17.5133  -40.1093  -10.2437 C   0  0  0  0  0  0  0  0  0  0  0  0
  -18.5884  -39.1932  -10.3497 C   0  0  0  0  0  0  0  0  0  0  0  0
  -18.8100  -38.4066  -11.4565 C   0  0  0  0  0  0  0  0  0  0  0  0
  -20.1633  -37.2860  -11.5311 Cl  0  0  0  0  0  0  0  0  0  0  0  0
  -17.9411  -38.5696  -12.4205 N   0  0  0  0  0  0  0  0  0  0  0  0
  -17.5795  -40.7835   -8.9453 C   0  0  0  0  0  0  0  0  0  0  0  0
  -18.7741  -41.2356   -8.5592 O   0  0  0  0  0  0  0  0  0  0  0  0
  -16.5857  -41.0623   -7.9740 N   0  0  0  0  0  0  0  0  0  0  0  0
  -21.7513  -39.6035   -6.9826 C   0  0  0  0  0  0  0  0  0  0  0  0
  1  2  1  0
  2  3  1  0
  2  4  1  0
  4  5  2  0
  5  6  1  0
  6  7  2  0
  7  8  1  0
  8  9  1  0
  9 10  1  0
 10 11  1  0
 11 12  1  0
 12 13  1  1
 12 14  1  0
 14 15  1  6
 15 16  1  0
 16 17  2  0
 17 18  1  0
 18 19  1  0
 18 20  2  0
 20 21  1  0
 21 22  2  0
 21 23  1  0
 23 24  1  0
 24 25  1  0
 25 26  1  0
 26 27  1  0
 27 28  1  0
 28 29  1  0
 29 30  2  0
 30 31  1  0
 31 32  2  0
 32 33  1  0
 33 34  1  0
 33 35  2  0
 31 36  1  0
 36 37  2  0
 36 38  1  0
  8 39  2  0
 22 16  1  0
 35 29  1  0
 38 14  1  0
 39  4  1  0
M  END
$$$$
