
     RDKit          3D

 39 42  0  0  0  0  0  0  0  0999 V2000
  -12.3655  -34.5055  -10.3862 C   0  0  0  0  0  0  0  0  0  0  0  0
  -12.7088  -35.4772  -11.5166 C   0  0  0  0  0  0  0  0  0  0  0  0
  -13.0053  -34.6910  -12.7514 C   0  0  0  0  0  0  0  0  0  0  0  0
  -13.8823  -36.2707  -11.0456 C   0  0  0  0  0  0  0  0  0  0  0  0
  -15.1257  -35.6846  -11.0529 C   0  0  0  0  0  0  0  0  0  0  0  0
  -16.2572  -36.3571  -10.6298 C   0  0  0  0  0  0  0  0  0  0  0  0
  -16.1126  -37.6645  -10.1872 C   0  0  0  0  0  0  0  0  0  0  0  0
  -14.8699  -38.2487  -10.1804 C   0  0  0  0  0  0  0  0  0  0  0  0
  -14.6970  -39.6638   -9.7021 C   0  0  0  0  0  0  0  0  0  0  0  0
  -14.9648  -40.5020  -10.8660 N   0  0  0  0  0  0  0  0  0  0  0  0
  -16.3567  -40.5667  -11.1772 C   0  0  0  0  0  0  0  0  0  0  0  0
  -17.1846  -41.1598  -10.0948 C   0  0  1  0  0  0  0  0  0  0  0  0
  -18.2171  -41.9599  -10.5671 O   0  0  0  0  0  0  0  0  0  0  0  0
  -16.4397  -41.7794   -8.9494 C   0  0  2  0  0  0  0  0  0  0  0  0
  -16.6067  -43.2503   -8.7810 C   0  0  0  0  0  0  0  0  0  0  0  0
  -17.9353  -43.7831   -8.4175 C   0  0  0  0  0  0  0  0  0  0  0  0
  -18.5050  -44.5005   -9.4946 C   0  0  0  0  0  0  0  0  0  0  0  0
  -19.7266  -45.1175   -9.4599 C   0  0  0  0  0  0  0  0  0  0  0  0
  -20.2750  -45.8608  -10.6306 C   0  0  0  0  0  0  0  0  0  0  0  0
  -20.4104  -45.0082   -8.2833 C   0  0  0  0  0  0  0  0  0  0  0  0
  -19.8980  -44.3041   -7.1681 C   0  0  0  0  0  0  0  0  0  0  0  0
  -18.6572  -43.6926   -7.2401 C   0  0  0  0  0  0  0  0  0  0  0  0
  -20.7965  -44.3568   -6.1207 O   0  0  0  0  0  0  0  0  0  0  0  0
  -21.4851  -43.5227   -5.2804 C   0  0  0  0  0  0  0  0  0  0  0  0
  -22.8741  -43.2599   -5.8216 C   0  0  0  0  0  0  0  0  0  0  0  0
  -23.1918  -41.7882   -5.7454 C   0  0  0  0  0  0  0  0  0  0  0  0
  -23.0811  -41.1088   -7.1193 C   0  0  0  0  0  0  0  0  0  0  0  0
  -22.3404  -39.8904   -6.9060 N   0  0  0  0  0  0  0  0  0  0  0  0
  -21.0047  -39.5318   -7.2656 C   0  0  0  0  0  0  0  0  0  0  0  0
  -19.7853  -40.1161   -7.0505 C   0  0  0  0  0  0  0  0  0  0  0  0
  -18.6598  -39.4822   -7.5368 C   0  0  0  0  0  0  0  0  0  0  0  0
  -18.8247  -38.2592   -8.2320 C   0  0  0  0  0  0  0  0  0  0  0  0
  -20.0478  -37.6683   -8.4506 C   0  0  0  0  0  0  0  0  0  0  0  0
  -20.1907  -36.1473   -9.3216 Cl  0  0  0  0  0  0  0  0  0  0  0  0
  -21.0647  -38.3292   -7.9607 N   0  0  0  0  0  0  0  0  0  0  0  0
  -17.2352  -39.8165   -7.4785 C   0  0  0  0  0  0  0  0  0  0  0  0
  -16.3971  -38.8343   -7.1420 O   0  0  0  0  0  0  0  0  0  0  0  0
  -16.5384  -41.0268   -7.7205 N   0  0  0  0  0  0  0  0  0  0  0  0
  -13.7478  -37.5634  -10.6066 C   0  0  0  0  0  0  0  0  0  0  0  0
  1  2  1  0
  2  3  1  0
  2  4  1  0
  4  5  2  0
  5  6  1  0
  6  7  2  0
  7  8  1  0
  8  9  1  0
  9 10  1  0
 10 11  1  0
 11 12  1  0
 12 13  1  6
 12 14  1  0
 14 15  1  1
 15 16  1  0
 16 17  2  0
 17 18  1  0
 18 19  1  0
 18 20  2  0
 20 21  1  0
 21 22  2  0
 21 23  1  0
 23 24  1  0
 24 25  1  0
 25 26  1  0
 26 27  1  0
 27 28  1  0
 28 29  1  0
 29 30  2  0
 30 31  1  0
 31 32  2  0
 32 33  1  0
 33 34  1  0
 33 35  2  0
 31 36  1  0
 36 37  2  0
 36 38  1  0
  8 39  2  0
 22 16  1  0
 35 29  1  0
 38 14  1  0
 39  4  1  0
M  END
$$$$
