
     RDKit          3D

 39 42  0  0  0  0  0  0  0  0999 V2000
  -22.9801  -39.3550   -6.5900 C   0  0  0  0  0  0  0  0  0  0  0  0
  -22.7941  -40.7924   -6.1006 C   0  0  0  0  0  0  0  0  0  0  0  0
  -23.6491  -41.0025   -4.8941 C   0  0  0  0  0  0  0  0  0  0  0  0
  -21.3389  -40.9507   -5.8078 C   0  0  0  0  0  0  0  0  0  0  0  0
  -20.7824  -42.2062   -5.8692 C   0  0  0  0  0  0  0  0  0  0  0  0
  -19.4430  -42.4294   -5.6092 C   0  0  0  0  0  0  0  0  0  0  0  0
  -18.6516  -41.3386   -5.2774 C   0  0  0  0  0  0  0  0  0  0  0  0
  -19.2088  -40.0851   -5.2163 C   0  0  0  0  0  0  0  0  0  0  0  0
  -18.3647  -38.8939   -4.8565 C   0  0  0  0  0  0  0  0  0  0  0  0
  -18.7966  -37.8272   -5.7534 N   0  0  0  0  0  0  0  0  0  0  0  0
  -19.2858  -38.3308   -6.9966 C   0  0  0  0  0  0  0  0  0  0  0  0
  -18.2742  -39.0952   -7.7718 C   0  0  1  0  0  0  0  0  0  0  0  0
  -17.7559  -38.3875   -8.8488 O   0  0  0  0  0  0  0  0  0  0  0  0
  -17.2197  -39.8043   -6.9744 C   0  0  2  0  0  0  0  0  0  0  0  0
  -15.8089  -39.5297   -7.3667 C   0  0  0  0  0  0  0  0  0  0  0  0
  -15.3351  -39.9740   -8.6931 C   0  0  0  0  0  0  0  0  0  0  0  0
  -15.0999  -38.8687   -9.5430 C   0  0  0  0  0  0  0  0  0  0  0  0
  -14.6487  -38.9598  -10.8323 C   0  0  0  0  0  0  0  0  0  0  0  0
  -14.4192  -37.7552  -11.6809 C   0  0  0  0  0  0  0  0  0  0  0  0
  -14.4224  -40.2256  -11.2909 C   0  0  0  0  0  0  0  0  0  0  0  0
  -14.6385  -41.3739  -10.4929 C   0  0  0  0  0  0  0  0  0  0  0  0
  -15.0952  -41.2425   -9.1919 C   0  0  0  0  0  0  0  0  0  0  0  0
  -14.3294  -42.5136  -11.2089 O   0  0  0  0  0  0  0  0  0  0  0  0
  -14.8950  -43.6985  -11.5991 C   0  0  0  0  0  0  0  0  0  0  0  0
  -15.4808  -43.5698  -12.9888 C   0  0  0  0  0  0  0  0  0  0  0  0
  -16.8622  -44.1719  -13.0285 C   0  0  0  0  0  0  0  0  0  0  0  0
  -17.9556  -43.0922  -13.0204 C   0  0  0  0  0  0  0  0  0  0  0  0
  -18.9359  -43.5209  -12.0540 N   0  0  0  0  0  0  0  0  0  0  0  0
  -19.2451  -43.0237  -10.7506 C   0  0  0  0  0  0  0  0  0  0  0  0
  -18.4906  -42.7841   -9.6335 C   0  0  0  0  0  0  0  0  0  0  0  0
  -19.1234  -42.3004   -8.5063 C   0  0  0  0  0  0  0  0  0  0  0  0
  -20.5211  -42.0781   -8.5634 C   0  0  0  0  0  0  0  0  0  0  0  0
  -21.2834  -42.3173   -9.6834 C   0  0  0  0  0  0  0  0  0  0  0  0
  -23.0171  -42.0221   -9.6950 Cl  0  0  0  0  0  0  0  0  0  0  0  0
  -20.6121  -42.7733  -10.7093 N   0  0  0  0  0  0  0  0  0  0  0  0
  -18.6330  -41.9522   -7.1711 C   0  0  0  0  0  0  0  0  0  0  0  0
  -19.3398  -42.4000   -6.1317 O   0  0  0  0  0  0  0  0  0  0  0  0
  -17.5100  -41.2004   -6.7436 N   0  0  0  0  0  0  0  0  0  0  0  0
  -20.5499  -39.8778   -5.4790 C   0  0  0  0  0  0  0  0  0  0  0  0
  1  2  1  0
  2  3  1  0
  2  4  1  0
  4  5  2  0
  5  6  1  0
  6  7  2  0
  7  8  1  0
  8  9  1  0
  9 10  1  0
 10 11  1  0
 11 12  1  0
 12 13  1  6
 12 14  1  0
 14 15  1  6
 15 16  1  0
 16 17  2  0
 17 18  1  0
 18 19  1  0
 18 20  2  0
 20 21  1  0
 21 22  2  0
 21 23  1  0
 23 24  1  0
 24 25  1  0
 25 26  1  0
 26 27  1  0
 27 28  1  0
 28 29  1  0
 29 30  2  0
 30 31  1  0
 31 32  2  0
 32 33  1  0
 33 34  1  0
 33 35  2  0
 31 36  1  0
 36 37  2  0
 36 38  1  0
  8 39  2  0
 22 16  1  0
 35 29  1  0
 38 14  1  0
 39  4  1  0
M  END
$$$$
