
     RDKit          3D

 39 42  0  0  0  0  0  0  0  0999 V2000
  -22.4270  -38.5869   -9.9334 C   0  0  0  0  0  0  0  0  0  0  0  0
  -23.5578  -38.7873   -8.9229 C   0  0  0  0  0  0  0  0  0  0  0  0
  -24.0733  -37.4482   -8.5082 C   0  0  0  0  0  0  0  0  0  0  0  0
  -22.9717  -39.5547   -7.7844 C   0  0  0  0  0  0  0  0  0  0  0  0
  -23.7745  -40.4277   -7.0894 C   0  0  0  0  0  0  0  0  0  0  0  0
  -23.3017  -41.1704   -6.0235 C   0  0  0  0  0  0  0  0  0  0  0  0
  -21.9716  -41.0157   -5.6587 C   0  0  0  0  0  0  0  0  0  0  0  0
  -21.1708  -40.1433   -6.3538 C   0  0  0  0  0  0  0  0  0  0  0  0
  -19.7282  -39.9635   -5.9694 C   0  0  0  0  0  0  0  0  0  0  0  0
  -19.0555  -41.1822   -6.4066 N   0  0  0  0  0  0  0  0  0  0  0  0
  -18.7289  -41.1509   -7.7961 C   0  0  0  0  0  0  0  0  0  0  0  0
  -17.7833  -40.0648   -8.1639 C   0  0  1  0  0  0  0  0  0  0  0  0
  -18.4119  -38.8569   -8.4378 O   0  0  0  0  0  0  0  0  0  0  0  0
  -16.5729  -39.9111   -7.2910 C   0  0  2  0  0  0  0  0  0  0  0  0
  -15.9070  -38.5788   -7.3263 C   0  0  0  0  0  0  0  0  0  0  0  0
  -15.2617  -38.1337   -8.5780 C   0  0  0  0  0  0  0  0  0  0  0  0
  -15.9775  -37.0644   -9.1641 C   0  0  0  0  0  0  0  0  0  0  0  0
  -15.6226  -36.4339  -10.3262 C   0  0  0  0  0  0  0  0  0  0  0  0
  -16.4195  -35.3094  -10.8957 C   0  0  0  0  0  0  0  0  0  0  0  0
  -14.4910  -36.9016  -10.9302 C   0  0  0  0  0  0  0  0  0  0  0  0
  -13.7296  -37.9686  -10.3973 C   0  0  0  0  0  0  0  0  0  0  0  0
  -14.1196  -38.5821   -9.2183 C   0  0  0  0  0  0  0  0  0  0  0  0
  -12.6446  -38.2292  -11.2109 O   0  0  0  0  0  0  0  0  0  0  0  0
  -12.0704  -39.2628  -11.9023 C   0  0  0  0  0  0  0  0  0  0  0  0
  -12.5338  -39.2538  -13.3433 C   0  0  0  0  0  0  0  0  0  0  0  0
  -12.9245  -40.6452  -13.7723 C   0  0  0  0  0  0  0  0  0  0  0  0
  -14.4505  -40.8213  -13.8158 C   0  0  0  0  0  0  0  0  0  0  0  0
  -14.7285  -42.0761  -13.1623 N   0  0  0  0  0  0  0  0  0  0  0  0
  -15.3124  -42.3592  -11.8893 C   0  0  0  0  0  0  0  0  0  0  0  0
  -15.0312  -41.9466  -10.6144 C   0  0  0  0  0  0  0  0  0  0  0  0
  -15.8060  -42.4343   -9.5817 C   0  0  0  0  0  0  0  0  0  0  0  0
  -16.8514  -43.3375   -9.8942 C   0  0  0  0  0  0  0  0  0  0  0  0
  -17.1378  -43.7550  -11.1735 C   0  0  0  0  0  0  0  0  0  0  0  0
  -18.4497  -44.8795  -11.5008 Cl  0  0  0  0  0  0  0  0  0  0  0  0
  -16.3607  -43.2487  -12.0959 N   0  0  0  0  0  0  0  0  0  0  0  0
  -15.7749  -42.2136   -8.1343 C   0  0  0  0  0  0  0  0  0  0  0  0
  -15.8676  -43.2935   -7.3560 O   0  0  0  0  0  0  0  0  0  0  0  0
  -15.6631  -41.0308   -7.3613 N   0  0  0  0  0  0  0  0  0  0  0  0
  -21.6581  -39.4075   -7.4176 C   0  0  0  0  0  0  0  0  0  0  0  0
  1  2  1  0
  2  3  1  0
  2  4  1  0
  4  5  2  0
  5  6  1  0
  6  7  2  0
  7  8  1  0
  8  9  1  0
  9 10  1  0
 10 11  1  0
 11 12  1  0
 12 13  1  1
 12 14  1  0
 14 15  1  6
 15 16  1  0
 16 17  2  0
 17 18  1  0
 18 19  1  0
 18 20  2  0
 20 21  1  0
 21 22  2  0
 21 23  1  0
 23 24  1  0
 24 25  1  0
 25 26  1  0
 26 27  1  0
 27 28  1  0
 28 29  1  0
 29 30  2  0
 30 31  1  0
 31 32  2  0
 32 33  1  0
 33 34  1  0
 33 35  2  0
 31 36  1  0
 36 37  2  0
 36 38  1  0
  8 39  2  0
 22 16  1  0
 35 29  1  0
 38 14  1  0
 39  4  1  0
M  END
$$$$
