
     RDKit          3D

 39 42  0  0  0  0  0  0  0  0999 V2000
  -22.5380  -39.5156   -3.5875 C   0  0  0  0  0  0  0  0  0  0  0  0
  -23.2816  -40.1736   -4.7512 C   0  0  0  0  0  0  0  0  0  0  0  0
  -23.4296  -41.6315   -4.4628 C   0  0  0  0  0  0  0  0  0  0  0  0
  -22.4655  -39.9100   -5.9730 C   0  0  0  0  0  0  0  0  0  0  0  0
  -23.0750  -39.9688   -7.2037 C   0  0  0  0  0  0  0  0  0  0  0  0
  -22.3828  -39.7380   -8.3780 C   0  0  0  0  0  0  0  0  0  0  0  0
  -21.0303  -39.4390   -8.2908 C   0  0  0  0  0  0  0  0  0  0  0  0
  -20.4227  -39.3806   -7.0609 C   0  0  0  0  0  0  0  0  0  0  0  0
  -18.9578  -39.0596   -6.9503 C   0  0  0  0  0  0  0  0  0  0  0  0
  -18.2636  -40.2269   -7.4836 N   0  0  0  0  0  0  0  0  0  0  0  0
  -18.0592  -40.1370   -8.8938 C   0  0  0  0  0  0  0  0  0  0  0  0
  -16.8818  -39.3145   -9.2762 C   0  0  1  0  0  0  0  0  0  0  0  0
  -17.1821  -38.3172  -10.1953 O   0  0  0  0  0  0  0  0  0  0  0  0
  -16.0115  -38.8338   -8.1529 C   0  0  2  0  0  0  0  0  0  0  0  0
  -15.5071  -37.4368   -8.2692 C   0  0  0  0  0  0  0  0  0  0  0  0
  -14.5658  -37.1036   -9.3574 C   0  0  0  0  0  0  0  0  0  0  0  0
  -15.1794  -36.2687  -10.3196 C   0  0  0  0  0  0  0  0  0  0  0  0
  -14.5595  -35.7861  -11.4407 C   0  0  0  0  0  0  0  0  0  0  0  0
  -15.2607  -34.9076  -12.4207 C   0  0  0  0  0  0  0  0  0  0  0  0
  -13.2569  -36.1614  -11.6034 C   0  0  0  0  0  0  0  0  0  0  0  0
  -12.5844  -36.9954  -10.6791 C   0  0  0  0  0  0  0  0  0  0  0  0
  -13.2443  -37.4642   -9.5552 C   0  0  0  0  0  0  0  0  0  0  0  0
  -11.2845  -37.2101  -11.0932 O   0  0  0  0  0  0  0  0  0  0  0  0
  -10.4258  -38.2384  -11.3783 C   0  0  0  0  0  0  0  0  0  0  0  0
  -10.4342  -38.5349  -12.8626 C   0  0  0  0  0  0  0  0  0  0  0  0
  -10.5324  -40.0211  -13.0952 C   0  0  0  0  0  0  0  0  0  0  0  0
  -11.9484  -40.4395  -13.5213 C   0  0  0  0  0  0  0  0  0  0  0  0
  -12.2783  -41.6003  -12.7323 N   0  0  0  0  0  0  0  0  0  0  0  0
  -13.1845  -41.7626  -11.6395 C   0  0  0  0  0  0  0  0  0  0  0  0
  -13.3426  -41.1108  -10.4459 C   0  0  0  0  0  0  0  0  0  0  0  0
  -14.3368  -41.5412   -9.5906 C   0  0  0  0  0  0  0  0  0  0  0  0
  -15.1411  -42.6358   -9.9917 C   0  0  0  0  0  0  0  0  0  0  0  0
  -14.9861  -43.2939  -11.1899 C   0  0  0  0  0  0  0  0  0  0  0  0
  -16.0159  -44.6484  -11.6341 Cl  0  0  0  0  0  0  0  0  0  0  0  0
  -14.0249  -42.8274  -11.9445 N   0  0  0  0  0  0  0  0  0  0  0  0
  -14.7640  -41.0878   -8.2653 C   0  0  0  0  0  0  0  0  0  0  0  0
  -14.9736  -42.0290   -7.3430 O   0  0  0  0  0  0  0  0  0  0  0  0
  -15.0118  -39.7931   -7.7443 N   0  0  0  0  0  0  0  0  0  0  0  0
  -21.1283  -39.6138   -5.8954 C   0  0  0  0  0  0  0  0  0  0  0  0
  1  2  1  0
  2  3  1  0
  2  4  1  0
  4  5  2  0
  5  6  1  0
  6  7  2  0
  7  8  1  0
  8  9  1  0
  9 10  1  0
 10 11  1  0
 11 12  1  0
 12 13  1  1
 12 14  1  0
 14 15  1  6
 15 16  1  0
 16 17  2  0
 17 18  1  0
 18 19  1  0
 18 20  2  0
 20 21  1  0
 21 22  2  0
 21 23  1  0
 23 24  1  0
 24 25  1  0
 25 26  1  0
 26 27  1  0
 27 28  1  0
 28 29  1  0
 29 30  2  0
 30 31  1  0
 31 32  2  0
 32 33  1  0
 33 34  1  0
 33 35  2  0
 31 36  1  0
 36 37  2  0
 36 38  1  0
  8 39  2  0
 22 16  1  0
 35 29  1  0
 38 14  1  0
 39  4  1  0
M  END
$$$$
