
     RDKit          3D

 39 42  0  0  0  0  0  0  0  0999 V2000
  -18.8696  -34.8518  -11.2921 C   0  0  0  0  0  0  0  0  0  0  0  0
  -19.2511  -36.3285  -11.1730 C   0  0  0  0  0  0  0  0  0  0  0  0
  -20.2909  -36.4710  -10.1104 C   0  0  0  0  0  0  0  0  0  0  0  0
  -17.9924  -37.0618  -10.8468 C   0  0  0  0  0  0  0  0  0  0  0  0
  -17.5061  -37.9789  -11.7479 C   0  0  0  0  0  0  0  0  0  0  0  0
  -16.3478  -38.6963  -11.5131 C   0  0  0  0  0  0  0  0  0  0  0  0
  -15.6688  -38.4693  -10.3241 C   0  0  0  0  0  0  0  0  0  0  0  0
  -16.1557  -37.5529   -9.4249 C   0  0  0  0  0  0  0  0  0  0  0  0
  -15.4322  -37.2973   -8.1317 C   0  0  0  0  0  0  0  0  0  0  0  0
  -15.4230  -38.5780   -7.4327 N   0  0  0  0  0  0  0  0  0  0  0  0
  -16.1492  -39.5846   -8.1384 C   0  0  0  0  0  0  0  0  0  0  0  0
  -17.4467  -39.9398   -7.5066 C   0  0  1  0  0  0  0  0  0  0  0  0
  -17.4429  -39.7994   -6.1247 O   0  0  0  0  0  0  0  0  0  0  0  0
  -18.6782  -39.3739   -8.1499 C   0  0  2  0  0  0  0  0  0  0  0  0
  -19.8317  -39.1200   -7.2418 C   0  0  0  0  0  0  0  0  0  0  0  0
  -20.4995  -40.2673   -6.5946 C   0  0  0  0  0  0  0  0  0  0  0  0
  -20.2472  -40.2812   -5.2034 C   0  0  0  0  0  0  0  0  0  0  0  0
  -20.7362  -41.2174   -4.3325 C   0  0  0  0  0  0  0  0  0  0  0  0
  -20.4345  -41.1788   -2.8725 C   0  0  0  0  0  0  0  0  0  0  0  0
  -21.5184  -42.1890   -4.8875 C   0  0  0  0  0  0  0  0  0  0  0  0
  -21.8088  -42.2336   -6.2716 C   0  0  0  0  0  0  0  0  0  0  0  0
  -21.2965  -41.2682   -7.1226 C   0  0  0  0  0  0  0  0  0  0  0  0
  -22.6177  -43.3173   -6.5514 O   0  0  0  0  0  0  0  0  0  0  0  0
  -22.6530  -44.4261   -7.3547 C   0  0  0  0  0  0  0  0  0  0  0  0
  -22.1198  -45.6319   -6.6111 C   0  0  0  0  0  0  0  0  0  0  0  0
  -21.1535  -46.3940   -7.4817 C   0  0  0  0  0  0  0  0  0  0  0  0
  -19.6940  -46.1356   -7.0757 C   0  0  0  0  0  0  0  0  0  0  0  0
  -18.9744  -45.8893   -8.3006 N   0  0  0  0  0  0  0  0  0  0  0  0
  -18.4311  -44.6831   -8.8407 C   0  0  0  0  0  0  0  0  0  0  0  0
  -18.9607  -43.4468   -9.0969 C   0  0  0  0  0  0  0  0  0  0  0  0
  -18.1399  -42.4834   -9.6475 C   0  0  0  0  0  0  0  0  0  0  0  0
  -16.7924  -42.8242   -9.9201 C   0  0  0  0  0  0  0  0  0  0  0  0
  -16.2558  -44.0650   -9.6644 C   0  0  0  0  0  0  0  0  0  0  0  0
  -14.5737  -44.4304  -10.0246 Cl  0  0  0  0  0  0  0  0  0  0  0  0
  -17.0951  -44.9219   -9.1427 N   0  0  0  0  0  0  0  0  0  0  0  0
  -18.3772  -41.0945  -10.0468 C   0  0  0  0  0  0  0  0  0  0  0  0
  -17.9082  -40.7196  -11.2384 O   0  0  0  0  0  0  0  0  0  0  0  0
  -19.0322  -40.0220   -9.3913 N   0  0  0  0  0  0  0  0  0  0  0  0
  -17.3154  -36.8432   -9.6739 C   0  0  0  0  0  0  0  0  0  0  0  0
  1  2  1  0
  2  3  1  0
  2  4  1  0
  4  5  2  0
  5  6  1  0
  6  7  2  0
  7  8  1  0
  8  9  1  0
  9 10  1  0
 10 11  1  0
 11 12  1  0
 12 13  1  1
 12 14  1  0
 14 15  1  1
 15 16  1  0
 16 17  2  0
 17 18  1  0
 18 19  1  0
 18 20  2  0
 20 21  1  0
 21 22  2  0
 21 23  1  0
 23 24  1  0
 24 25  1  0
 25 26  1  0
 26 27  1  0
 27 28  1  0
 28 29  1  0
 29 30  2  0
 30 31  1  0
 31 32  2  0
 32 33  1  0
 33 34  1  0
 33 35  2  0
 31 36  1  0
 36 37  2  0
 36 38  1  0
  8 39  2  0
 22 16  1  0
 35 29  1  0
 38 14  1  0
 39  4  1  0
M  END
$$$$
