
     RDKit          3D

 39 42  0  0  0  0  0  0  0  0999 V2000
  -16.6031  -33.8684   -9.5314 C   0  0  0  0  0  0  0  0  0  0  0  0
  -16.9779  -34.2326  -10.9692 C   0  0  0  0  0  0  0  0  0  0  0  0
  -18.2484  -33.5330  -11.3255 C   0  0  0  0  0  0  0  0  0  0  0  0
  -17.1116  -35.7190  -11.0039 C   0  0  0  0  0  0  0  0  0  0  0  0
  -18.3700  -36.2717  -11.0275 C   0  0  0  0  0  0  0  0  0  0  0  0
  -18.5711  -37.6392  -11.0586 C   0  0  0  0  0  0  0  0  0  0  0  0
  -17.4546  -38.4635  -11.0656 C   0  0  0  0  0  0  0  0  0  0  0  0
  -16.1981  -37.9101  -11.0419 C   0  0  0  0  0  0  0  0  0  0  0  0
  -14.9788  -38.7900  -11.0473 C   0  0  0  0  0  0  0  0  0  0  0  0
  -15.1067  -39.6373   -9.8663 N   0  0  0  0  0  0  0  0  0  0  0  0
  -15.8163  -38.9894   -8.8103 C   0  0  0  0  0  0  0  0  0  0  0  0
  -17.2817  -39.2361   -8.8350 C   0  0  1  0  0  0  0  0  0  0  0  0
  -18.0119  -38.2857   -8.1329 O   0  0  0  0  0  0  0  0  0  0  0  0
  -17.8796  -39.5654  -10.1709 C   0  0  2  0  0  0  0  0  0  0  0  0
  -19.1293  -38.8357  -10.5250 C   0  0  0  0  0  0  0  0  0  0  0  0
  -20.3519  -39.0841   -9.7345 C   0  0  0  0  0  0  0  0  0  0  0  0
  -20.6884  -37.9541   -8.9540 C   0  0  0  0  0  0  0  0  0  0  0  0
  -21.7731  -37.8770   -8.1224 C   0  0  0  0  0  0  0  0  0  0  0  0
  -22.0764  -36.6552   -7.3231 C   0  0  0  0  0  0  0  0  0  0  0  0
  -22.5596  -38.9919   -8.0723 C   0  0  0  0  0  0  0  0  0  0  0  0
  -22.2785  -40.1556   -8.8265 C   0  0  0  0  0  0  0  0  0  0  0  0
  -21.1717  -40.1966   -9.6583 C   0  0  0  0  0  0  0  0  0  0  0  0
  -23.2349  -41.1214   -8.5818 O   0  0  0  0  0  0  0  0  0  0  0  0
  -23.3361  -42.4223   -8.1655 C   0  0  0  0  0  0  0  0  0  0  0  0
  -23.5949  -42.4794   -6.6752 C   0  0  0  0  0  0  0  0  0  0  0  0
  -22.6964  -43.5038   -6.0304 C   0  0  0  0  0  0  0  0  0  0  0  0
  -21.5238  -42.8463   -5.2860 C   0  0  0  0  0  0  0  0  0  0  0  0
  -20.3445  -43.5853   -5.6624 N   0  0  0  0  0  0  0  0  0  0  0  0
  -19.2494  -43.2323   -6.5098 C   0  0  0  0  0  0  0  0  0  0  0  0
  -19.1683  -42.7689   -7.7956 C   0  0  0  0  0  0  0  0  0  0  0  0
  -17.9176  -42.5338   -8.3299 C   0  0  0  0  0  0  0  0  0  0  0  0
  -16.7828  -42.7853   -7.5206 C   0  0  0  0  0  0  0  0  0  0  0  0
  -16.8592  -43.2508   -6.2283 C   0  0  0  0  0  0  0  0  0  0  0  0
  -15.4137  -43.5451   -5.2708 Cl  0  0  0  0  0  0  0  0  0  0  0  0
  -18.0772  -43.4482   -5.7940 N   0  0  0  0  0  0  0  0  0  0  0  0
  -17.4784  -42.0574   -9.6433 C   0  0  0  0  0  0  0  0  0  0  0  0
  -16.4805  -42.7249  -10.2257 O   0  0  0  0  0  0  0  0  0  0  0  0
  -17.9193  -40.9814  -10.4537 N   0  0  0  0  0  0  0  0  0  0  0  0
  -16.0131  -36.5406  -11.0111 C   0  0  0  0  0  0  0  0  0  0  0  0
  1  2  1  0
  2  3  1  0
  2  4  1  0
  4  5  2  0
  5  6  1  0
  6  7  2  0
  7  8  1  0
  8  9  1  0
  9 10  1  0
 10 11  1  0
 11 12  1  0
 12 13  1  6
 12 14  1  0
 14 15  1  1
 15 16  1  0
 16 17  2  0
 17 18  1  0
 18 19  1  0
 18 20  2  0
 20 21  1  0
 21 22  2  0
 21 23  1  0
 23 24  1  0
 24 25  1  0
 25 26  1  0
 26 27  1  0
 27 28  1  0
 28 29  1  0
 29 30  2  0
 30 31  1  0
 31 32  2  0
 32 33  1  0
 33 34  1  0
 33 35  2  0
 31 36  1  0
 36 37  2  0
 36 38  1  0
  8 39  2  0
 22 16  1  0
 35 29  1  0
 38 14  1  0
 39  4  1  0
M  END
$$$$
