
     RDKit          3D

 39 42  0  0  0  0  0  0  0  0999 V2000
  -21.7180  -40.2280   -2.7536 C   0  0  0  0  0  0  0  0  0  0  0  0
  -22.6435  -40.8104   -3.8234 C   0  0  0  0  0  0  0  0  0  0  0  0
  -22.4771  -42.2945   -3.8452 C   0  0  0  0  0  0  0  0  0  0  0  0
  -22.2496  -40.1694   -5.1127 C   0  0  0  0  0  0  0  0  0  0  0  0
  -22.9654  -39.0847   -5.5605 C   0  0  0  0  0  0  0  0  0  0  0  0
  -22.6597  -38.4413   -6.7455 C   0  0  0  0  0  0  0  0  0  0  0  0
  -21.5928  -38.9208   -7.4925 C   0  0  0  0  0  0  0  0  0  0  0  0
  -20.8786  -40.0045   -7.0440 C   0  0  0  0  0  0  0  0  0  0  0  0
  -19.7213  -40.5366   -7.8431 C   0  0  0  0  0  0  0  0  0  0  0  0
  -18.9680  -39.3604   -8.2653 N   0  0  0  0  0  0  0  0  0  0  0  0
  -17.8177  -39.1338   -7.4506 C   0  0  0  0  0  0  0  0  0  0  0  0
  -16.5342  -39.4656   -8.1225 C   0  0  1  0  0  0  0  0  0  0  0  0
  -15.4203  -39.2403   -7.3237 O   0  0  0  0  0  0  0  0  0  0  0  0
  -16.4807  -40.7786   -8.8461 C   0  0  2  0  0  0  0  0  0  0  0  0
  -15.2576  -41.5990   -8.6214 C   0  0  0  0  0  0  0  0  0  0  0  0
  -13.9573  -41.0936   -9.1063 C   0  0  0  0  0  0  0  0  0  0  0  0
  -13.1204  -40.7308   -8.0258 C   0  0  0  0  0  0  0  0  0  0  0  0
  -11.8508  -40.2356   -8.1563 C   0  0  0  0  0  0  0  0  0  0  0  0
  -11.0151  -39.8703   -6.9765 C   0  0  0  0  0  0  0  0  0  0  0  0
  -11.3991  -40.0979   -9.4373 C   0  0  0  0  0  0  0  0  0  0  0  0
  -12.1857  -40.4412  -10.5623 C   0  0  0  0  0  0  0  0  0  0  0  0
  -13.4664  -40.9402  -10.3912 C   0  0  0  0  0  0  0  0  0  0  0  0
  -11.4803  -40.2004  -11.7250 O   0  0  0  0  0  0  0  0  0  0  0  0
  -11.5918  -39.5059  -12.9003 C   0  0  0  0  0  0  0  0  0  0  0  0
  -10.9111  -38.1591  -12.7824 C   0  0  0  0  0  0  0  0  0  0  0  0
  -11.7982  -37.0774  -13.3441 C   0  0  0  0  0  0  0  0  0  0  0  0
  -12.4764  -36.2614  -12.2325 C   0  0  0  0  0  0  0  0  0  0  0  0
  -13.8620  -36.1398  -12.6124 N   0  0  0  0  0  0  0  0  0  0  0  0
  -15.0361  -36.7559  -12.0799 C   0  0  0  0  0  0  0  0  0  0  0  0
  -15.3873  -38.0574  -11.8402 C   0  0  0  0  0  0  0  0  0  0  0  0
  -16.6380  -38.3128  -11.3153 C   0  0  0  0  0  0  0  0  0  0  0  0
  -17.4938  -37.2151  -11.0529 C   0  0  0  0  0  0  0  0  0  0  0  0
  -17.1454  -35.9059  -11.2920 C   0  0  0  0  0  0  0  0  0  0  0  0
  -18.2513  -34.5830  -10.9459 Cl  0  0  0  0  0  0  0  0  0  0  0  0
  -15.9458  -35.7458  -11.7884 N   0  0  0  0  0  0  0  0  0  0  0  0
  -17.3226  -39.5562  -10.9548 C   0  0  0  0  0  0  0  0  0  0  0  0
  -18.5868  -39.6897  -11.3603 O   0  0  0  0  0  0  0  0  0  0  0  0
  -16.8928  -40.6947  -10.2280 N   0  0  0  0  0  0  0  0  0  0  0  0
  -21.1964  -40.6372   -5.8569 C   0  0  0  0  0  0  0  0  0  0  0  0
  1  2  1  0
  2  3  1  0
  2  4  1  0
  4  5  2  0
  5  6  1  0
  6  7  2  0
  7  8  1  0
  8  9  1  0
  9 10  1  0
 10 11  1  0
 11 12  1  0
 12 13  1  1
 12 14  1  0
 14 15  1  6
 15 16  1  0
 16 17  2  0
 17 18  1  0
 18 19  1  0
 18 20  2  0
 20 21  1  0
 21 22  2  0
 21 23  1  0
 23 24  1  0
 24 25  1  0
 25 26  1  0
 26 27  1  0
 27 28  1  0
 28 29  1  0
 29 30  2  0
 30 31  1  0
 31 32  2  0
 32 33  1  0
 33 34  1  0
 33 35  2  0
 31 36  1  0
 36 37  2  0
 36 38  1  0
  8 39  2  0
 22 16  1  0
 35 29  1  0
 38 14  1  0
 39  4  1  0
M  END
$$$$
