
     RDKit          3D

 36 37  0  0  0  0  0  0  0  0999 V2000
  -21.7663  -38.9122   -3.8395 C   0  0  0  0  0  0  0  0  0  0  0  0
  -23.0824  -39.5095   -4.3270 C   0  0  0  0  0  0  0  0  0  0  0  0
  -24.1823  -38.9994   -3.4299 C   0  0  0  0  0  0  0  0  0  0  0  0
  -23.0175  -41.0118   -4.2542 C   0  0  0  0  0  0  0  0  0  0  0  0
  -22.0233  -41.5278   -5.2062 C   0  0  0  0  0  0  0  0  0  0  0  0
  -21.4184  -40.7516   -6.1873 C   0  0  0  0  0  0  0  0  0  0  0  0
  -20.5048  -41.2656   -7.0490 C   0  0  0  0  0  0  0  0  0  0  0  0
  -19.8541  -40.4487   -8.1010 C   0  0  0  0  0  0  0  0  0  0  0  0
  -18.8099  -39.6014   -7.6338 N   0  0  0  0  0  0  0  0  0  0  0  0
  -17.4792  -40.0479   -7.8501 C   0  0  0  0  0  0  0  0  0  0  0  0
  -16.3906  -39.0613   -7.6426 C   0  0  1  0  0  0  0  0  0  0  0  0
  -15.7436  -39.1040   -6.4294 O   0  0  0  0  0  0  0  0  0  0  0  0
  -15.4207  -38.9667   -8.8325 C   0  0  2  0  0  0  0  0  0  0  0  0
  -15.5565  -37.5435   -9.3630 C   0  0  0  0  0  0  0  0  0  0  0  0
  -14.4836  -37.3220  -10.3825 C   0  0  2  0  0  0  0  0  0  0  0  0
  -13.2680  -36.7700   -9.6471 C   0  0  0  0  0  0  0  0  0  0  0  0
  -14.8928  -36.4854  -11.5361 C   0  0  0  0  0  0  0  0  0  0  0  0
  -13.6186  -35.9539  -12.2565 C   0  0  0  0  0  0  0  0  0  0  0  0
  -13.0029  -37.0659  -13.0732 C   0  0  0  0  0  0  0  0  0  0  0  0
  -12.0101  -37.1414  -13.8837 C   0  0  0  0  0  0  0  0  0  0  0  0
  -11.4030  -38.2586  -14.6984 C   0  0  0  0  0  0  0  0  0  0  0  0
  -10.3955  -38.9453  -13.8016 C   0  0  0  0  0  0  0  0  0  0  0  0
  -10.5935  -40.4411  -13.7296 C   0  0  0  0  0  0  0  0  0  0  0  0
  -11.3369  -40.8543  -12.4804 C   0  0  0  0  0  0  0  0  0  0  0  0
  -12.7062  -41.2423  -12.8474 C   0  0  0  0  0  0  0  0  0  0  0  0
  -12.8204  -41.7540  -14.0233 O   0  0  0  0  0  0  0  0  0  0  0  0
  -13.8866  -41.1302  -12.0963 N   0  0  0  0  0  0  0  0  0  0  0  0
  -15.0850  -40.5835  -12.7543 C   0  0  0  0  0  0  0  0  0  0  0  0
  -14.0654  -41.5160  -10.7020 C   0  0  1  0  0  0  0  0  0  0  0  0
  -12.9504  -41.0360   -9.8018 C   0  0  0  0  0  0  0  0  0  0  0  0
  -15.4071  -41.1511  -10.1985 C   0  0  0  0  0  0  0  0  0  0  0  0
  -16.2352  -42.1260  -10.0718 O   0  0  0  0  0  0  0  0  0  0  0  0
  -15.9013  -39.8927   -9.8424 N   0  0  0  0  0  0  0  0  0  0  0  0
  -20.1652  -42.6172   -6.9419 C   0  0  0  0  0  0  0  0  0  0  0  0
  -20.7536  -43.3386   -5.9997 N   0  0  0  0  0  0  0  0  0  0  0  0
  -21.6667  -42.8625   -5.1247 C   0  0  0  0  0  0  0  0  0  0  0  0
  1  2  1  0
  2  3  1  0
  2  4  1  0
  4  5  1  0
  5  6  2  0
  6  7  1  0
  7  8  1  0
  8  9  1  0
  9 10  1  0
 10 11  1  0
 11 12  1  1
 11 13  1  0
 13 14  1  6
 14 15  1  0
 15 16  1  1
 15 17  1  0
 17 18  1  0
 18 19  1  0
 19 20  2  0
 20 21  1  0
 21 22  1  0
 22 23  1  0
 23 24  1  0
 24 25  1  0
 25 26  2  0
 25 27  1  0
 27 28  1  0
 27 29  1  0
 29 30  1  1
 29 31  1  0
 31 32  2  0
 31 33  1  0
  7 34  2  0
 34 35  1  0
 35 36  2  0
 33 13  1  0
 36  5  1  0
M  END
$$$$
