
     RDKit          3D

 36 37  0  0  0  0  0  0  0  0999 V2000
   -9.7181  -40.2233  -12.0165 C   0  0  0  0  0  0  0  0  0  0  0  0
  -10.0740  -41.5605  -12.6580 C   0  0  0  0  0  0  0  0  0  0  0  0
  -10.4829  -41.2946  -14.0852 C   0  0  0  0  0  0  0  0  0  0  0  0
  -11.2142  -42.1971  -11.9088 C   0  0  0  0  0  0  0  0  0  0  0  0
  -12.4521  -41.4312  -12.1137 C   0  0  0  0  0  0  0  0  0  0  0  0
  -12.8113  -40.3263  -11.3512 C   0  0  0  0  0  0  0  0  0  0  0  0
  -13.9644  -39.6455  -11.5707 C   0  0  0  0  0  0  0  0  0  0  0  0
  -14.3598  -38.4668  -10.7632 C   0  0  0  0  0  0  0  0  0  0  0  0
  -14.6827  -38.7572   -9.4076 N   0  0  0  0  0  0  0  0  0  0  0  0
  -15.9814  -39.2743   -9.1563 C   0  0  0  0  0  0  0  0  0  0  0  0
  -16.6702  -38.8097   -7.9270 C   0  0  1  0  0  0  0  0  0  0  0  0
  -16.8270  -37.4505   -7.7852 O   0  0  0  0  0  0  0  0  0  0  0  0
  -17.9566  -39.5938   -7.6175 C   0  0  2  0  0  0  0  0  0  0  0  0
  -18.7433  -38.7265   -6.6407 C   0  0  0  0  0  0  0  0  0  0  0  0
  -20.1008  -39.3323   -6.4687 C   0  0  2  0  0  0  0  0  0  0  0  0
  -21.0110  -38.7083   -7.5201 C   0  0  0  0  0  0  0  0  0  0  0  0
  -20.6497  -39.2348   -5.0949 C   0  0  0  0  0  0  0  0  0  0  0  0
  -22.1895  -39.4618   -5.1450 C   0  0  0  0  0  0  0  0  0  0  0  0
  -22.4742  -40.9341   -5.3291 C   0  0  0  0  0  0  0  0  0  0  0  0
  -23.5429  -41.6445   -5.3668 C   0  0  0  0  0  0  0  0  0  0  0  0
  -23.8177  -43.1182   -5.5491 C   0  0  0  0  0  0  0  0  0  0  0  0
  -23.9112  -43.3561   -7.0409 C   0  0  0  0  0  0  0  0  0  0  0  0
  -23.0167  -44.4767   -7.5164 C   0  0  0  0  0  0  0  0  0  0  0  0
  -21.7314  -43.9582   -8.1187 C   0  0  0  0  0  0  0  0  0  0  0  0
  -20.6291  -44.2126   -7.1805 C   0  0  0  0  0  0  0  0  0  0  0  0
  -20.7764  -45.2659   -6.4548 O   0  0  0  0  0  0  0  0  0  0  0  0
  -19.4556  -43.4703   -6.9752 N   0  0  0  0  0  0  0  0  0  0  0  0
  -19.0493  -43.1728   -5.5916 C   0  0  0  0  0  0  0  0  0  0  0  0
  -18.5643  -42.9567   -8.0080 C   0  0  1  0  0  0  0  0  0  0  0  0
  -19.2947  -42.2779   -9.1437 C   0  0  0  0  0  0  0  0  0  0  0  0
  -17.4862  -42.1205   -7.4375 C   0  0  0  0  0  0  0  0  0  0  0  0
  -16.3257  -42.6709   -7.3882 O   0  0  0  0  0  0  0  0  0  0  0  0
  -17.5537  -40.8147   -6.9425 N   0  0  0  0  0  0  0  0  0  0  0  0
  -14.8128  -40.0724  -12.5962 C   0  0  0  0  0  0  0  0  0  0  0  0
  -14.4510  -41.1274  -13.3106 N   0  0  0  0  0  0  0  0  0  0  0  0
  -13.3122  -41.8299  -13.1217 C   0  0  0  0  0  0  0  0  0  0  0  0
  1  2  1  0
  2  3  1  0
  2  4  1  0
  4  5  1  0
  5  6  2  0
  6  7  1  0
  7  8  1  0
  8  9  1  0
  9 10  1  0
 10 11  1  0
 11 12  1  6
 11 13  1  0
 13 14  1  1
 14 15  1  0
 15 16  1  6
 15 17  1  0
 17 18  1  0
 18 19  1  0
 19 20  2  0
 20 21  1  0
 21 22  1  0
 22 23  1  0
 23 24  1  0
 24 25  1  0
 25 26  2  0
 25 27  1  0
 27 28  1  0
 27 29  1  0
 29 30  1  6
 29 31  1  0
 31 32  2  0
 31 33  1  0
  7 34  2  0
 34 35  1  0
 35 36  2  0
 33 13  1  0
 36  5  1  0
M  END
$$$$
