
     RDKit          3D

 36 37  0  0  0  0  0  0  0  0999 V2000
  -14.2732  -34.6636  -11.2760 C   0  0  0  0  0  0  0  0  0  0  0  0
  -12.9478  -35.3941  -11.4655 C   0  0  0  0  0  0  0  0  0  0  0  0
  -11.8531  -34.3583  -11.5254 C   0  0  0  0  0  0  0  0  0  0  0  0
  -12.9791  -36.1808  -12.7487 C   0  0  0  0  0  0  0  0  0  0  0  0
  -13.2600  -37.5973  -12.4739 C   0  0  0  0  0  0  0  0  0  0  0  0
  -13.1320  -38.1803  -11.2190 C   0  0  0  0  0  0  0  0  0  0  0  0
  -13.4001  -39.4933  -11.0055 C   0  0  0  0  0  0  0  0  0  0  0  0
  -13.2656  -40.1274   -9.6723 C   0  0  0  0  0  0  0  0  0  0  0  0
  -14.1190  -39.5872   -8.6692 N   0  0  0  0  0  0  0  0  0  0  0  0
  -15.4805  -39.9899   -8.7033 C   0  0  0  0  0  0  0  0  0  0  0  0
  -16.3969  -39.3668   -7.7167 C   0  0  1  0  0  0  0  0  0  0  0  0
  -16.5520  -38.0023   -7.7963 O   0  0  0  0  0  0  0  0  0  0  0  0
  -17.7351  -40.1116   -7.5747 C   0  0  2  0  0  0  0  0  0  0  0  0
  -18.6391  -39.1852   -6.7687 C   0  0  0  0  0  0  0  0  0  0  0  0
  -20.0220  -39.7571   -6.7810 C   0  0  2  0  0  0  0  0  0  0  0  0
  -20.7450  -39.1660   -7.9857 C   0  0  0  0  0  0  0  0  0  0  0  0
  -20.7713  -39.5855   -5.5133 C   0  0  0  0  0  0  0  0  0  0  0  0
  -22.2908  -39.7860   -5.7892 C   0  0  0  0  0  0  0  0  0  0  0  0
  -22.5815  -41.2598   -5.9511 C   0  0  0  0  0  0  0  0  0  0  0  0
  -23.6497  -41.9512   -6.1216 C   0  0  0  0  0  0  0  0  0  0  0  0
  -23.9309  -43.4264   -6.2801 C   0  0  0  0  0  0  0  0  0  0  0  0
  -23.8019  -43.7318   -7.7569 C   0  0  0  0  0  0  0  0  0  0  0  0
  -22.8741  -44.8897   -8.0406 C   0  0  0  0  0  0  0  0  0  0  0  0
  -21.4992  -44.4238   -8.4604 C   0  0  0  0  0  0  0  0  0  0  0  0
  -20.5597  -44.6546   -7.3540 C   0  0  0  0  0  0  0  0  0  0  0  0
  -20.8427  -45.6700   -6.6146 O   0  0  0  0  0  0  0  0  0  0  0  0
  -19.4128  -43.9254   -7.0032 N   0  0  0  0  0  0  0  0  0  0  0  0
  -19.2147  -43.5714   -5.5878 C   0  0  0  0  0  0  0  0  0  0  0  0
  -18.3616  -43.4772   -7.9082 C   0  0  1  0  0  0  0  0  0  0  0  0
  -18.8926  -42.8386   -9.1708 C   0  0  0  0  0  0  0  0  0  0  0  0
  -17.3622  -42.6355   -7.2157 C   0  0  0  0  0  0  0  0  0  0  0  0
  -16.2371  -43.2044   -6.9651 O   0  0  0  0  0  0  0  0  0  0  0  0
  -17.4710  -41.3070   -6.7938 N   0  0  0  0  0  0  0  0  0  0  0  0
  -13.8174  -40.2786  -12.0839 C   0  0  0  0  0  0  0  0  0  0  0  0
  -13.9328  -39.7027  -13.2710 N   0  0  0  0  0  0  0  0  0  0  0  0
  -13.6751  -38.4001  -13.5219 C   0  0  0  0  0  0  0  0  0  0  0  0
  1  2  1  0
  2  3  1  0
  2  4  1  0
  4  5  1  0
  5  6  2  0
  6  7  1  0
  7  8  1  0
  8  9  1  0
  9 10  1  0
 10 11  1  0
 11 12  1  6
 11 13  1  0
 13 14  1  1
 14 15  1  0
 15 16  1  6
 15 17  1  0
 17 18  1  0
 18 19  1  0
 19 20  2  0
 20 21  1  0
 21 22  1  0
 22 23  1  0
 23 24  1  0
 24 25  1  0
 25 26  2  0
 25 27  1  0
 27 28  1  0
 27 29  1  0
 29 30  1  6
 29 31  1  0
 31 32  2  0
 31 33  1  0
  7 34  2  0
 34 35  1  0
 35 36  2  0
 33 13  1  0
 36  5  1  0
M  END
$$$$
