
     RDKit          3D

 36 37  0  0  0  0  0  0  0  0999 V2000
  -20.7949  -35.8157   -5.7023 C   0  0  0  0  0  0  0  0  0  0  0  0
  -20.1466  -36.4456   -6.9308 C   0  0  0  0  0  0  0  0  0  0  0  0
  -19.6310  -37.8067   -6.5351 C   0  0  0  0  0  0  0  0  0  0  0  0
  -19.0063  -35.5835   -7.4030 C   0  0  0  0  0  0  0  0  0  0  0  0
  -18.2812  -36.2475   -8.4958 C   0  0  0  0  0  0  0  0  0  0  0  0
  -17.1384  -37.0157   -8.3090 C   0  0  0  0  0  0  0  0  0  0  0  0
  -16.4960  -37.6126   -9.3446 C   0  0  0  0  0  0  0  0  0  0  0  0
  -15.2752  -38.4328   -9.1588 C   0  0  0  0  0  0  0  0  0  0  0  0
  -15.4383  -39.5528   -8.2954 N   0  0  0  0  0  0  0  0  0  0  0  0
  -16.7306  -40.1397   -8.2467 C   0  0  0  0  0  0  0  0  0  0  0  0
  -17.1261  -41.0043   -9.3858 C   0  0  1  0  0  0  0  0  0  0  0  0
  -16.1306  -41.7607   -9.9596 O   0  0  0  0  0  0  0  0  0  0  0  0
  -18.4093  -41.8098   -9.1211 C   0  0  2  0  0  0  0  0  0  0  0  0
  -19.5572  -40.8170   -9.2688 C   0  0  0  0  0  0  0  0  0  0  0  0
  -20.8425  -41.5828   -9.2367 C   0  0  2  0  0  0  0  0  0  0  0  0
  -21.1819  -41.9570  -10.6748 C   0  0  0  0  0  0  0  0  0  0  0  0
  -21.9540  -40.8925   -8.5394 C   0  0  0  0  0  0  0  0  0  0  0  0
  -23.3034  -41.5434   -8.9643 C   0  0  0  0  0  0  0  0  0  0  0  0
  -23.4664  -42.8685   -8.2569 C   0  0  0  0  0  0  0  0  0  0  0  0
  -24.3987  -43.7495   -8.2033 C   0  0  0  0  0  0  0  0  0  0  0  0
  -24.5536  -45.0716   -7.4904 C   0  0  0  0  0  0  0  0  0  0  0  0
  -23.9610  -46.1235   -8.4032 C   0  0  0  0  0  0  0  0  0  0  0  0
  -22.9423  -46.9984   -7.7111 C   0  0  0  0  0  0  0  0  0  0  0  0
  -21.5262  -46.5636   -8.0103 C   0  0  0  0  0  0  0  0  0  0  0  0
  -20.9663  -45.9115   -6.8181 C   0  0  0  0  0  0  0  0  0  0  0  0
  -21.4204  -46.3599   -5.6998 O   0  0  0  0  0  0  0  0  0  0  0  0
  -20.0165  -44.8810   -6.7397 N   0  0  0  0  0  0  0  0  0  0  0  0
  -20.2816  -43.7532   -5.8310 C   0  0  0  0  0  0  0  0  0  0  0  0
  -18.7571  -44.8071   -7.4699 C   0  0  1  0  0  0  0  0  0  0  0  0
  -18.8982  -45.1342   -8.9386 C   0  0  0  0  0  0  0  0  0  0  0  0
  -18.0581  -43.5258   -7.2317 C   0  0  0  0  0  0  0  0  0  0  0  0
  -17.0425  -43.5867   -6.4461 O   0  0  0  0  0  0  0  0  0  0  0  0
  -18.3489  -42.2567   -7.7408 N   0  0  0  0  0  0  0  0  0  0  0  0
  -17.0036  -37.4466  -10.6364 C   0  0  0  0  0  0  0  0  0  0  0  0
  -18.0938  -36.7106  -10.7916 N   0  0  0  0  0  0  0  0  0  0  0  0
  -18.7599  -36.1015   -9.7859 C   0  0  0  0  0  0  0  0  0  0  0  0
  1  2  1  0
  2  3  1  0
  2  4  1  0
  4  5  1  0
  5  6  2  0
  6  7  1  0
  7  8  1  0
  8  9  1  0
  9 10  1  0
 10 11  1  0
 11 12  1  1
 11 13  1  0
 13 14  1  1
 14 15  1  0
 15 16  1  6
 15 17  1  0
 17 18  1  0
 18 19  1  0
 19 20  2  0
 20 21  1  0
 21 22  1  0
 22 23  1  0
 23 24  1  0
 24 25  1  0
 25 26  2  0
 25 27  1  0
 27 28  1  0
 27 29  1  0
 29 30  1  6
 29 31  1  0
 31 32  2  0
 31 33  1  0
  7 34  2  0
 34 35  1  0
 35 36  2  0
 33 13  1  0
 36  5  1  0
M  END
$$$$
