
     RDKit          3D

 36 37  0  0  0  0  0  0  0  0999 V2000
  -12.2106  -34.1910  -12.4721 C   0  0  0  0  0  0  0  0  0  0  0  0
  -12.9033  -35.4672  -12.0055 C   0  0  0  0  0  0  0  0  0  0  0  0
  -13.6705  -35.1438  -10.7478 C   0  0  0  0  0  0  0  0  0  0  0  0
  -11.8751  -36.5290  -11.7192 C   0  0  0  0  0  0  0  0  0  0  0  0
  -12.4910  -37.8630  -11.7637 C   0  0  0  0  0  0  0  0  0  0  0  0
  -12.4611  -38.7627  -10.7050 C   0  0  0  0  0  0  0  0  0  0  0  0
  -13.0411  -39.9868  -10.7851 C   0  0  0  0  0  0  0  0  0  0  0  0
  -13.0145  -40.9561   -9.6638 C   0  0  0  0  0  0  0  0  0  0  0  0
  -14.2657  -41.1437   -9.0113 N   0  0  0  0  0  0  0  0  0  0  0  0
  -15.3079  -40.2425   -9.3560 C   0  0  0  0  0  0  0  0  0  0  0  0
  -16.0014  -39.5497   -8.2422 C   0  0  1  0  0  0  0  0  0  0  0  0
  -15.9141  -38.1770   -8.2212 O   0  0  0  0  0  0  0  0  0  0  0  0
  -17.4331  -40.0597   -8.0063 C   0  0  2  0  0  0  0  0  0  0  0  0
  -18.1589  -38.9309   -7.2823 C   0  0  0  0  0  0  0  0  0  0  0  0
  -19.6129  -39.2786   -7.2165 C   0  0  2  0  0  0  0  0  0  0  0  0
  -20.2731  -38.6999   -8.4625 C   0  0  0  0  0  0  0  0  0  0  0  0
  -20.2877  -38.8718   -5.9606 C   0  0  0  0  0  0  0  0  0  0  0  0
  -21.8277  -38.8583   -6.1917 C   0  0  0  0  0  0  0  0  0  0  0  0
  -22.3463  -40.2774   -6.2020 C   0  0  0  0  0  0  0  0  0  0  0  0
  -23.5127  -40.8069   -6.2866 C   0  0  0  0  0  0  0  0  0  0  0  0
  -24.0221  -42.2285   -6.2935 C   0  0  0  0  0  0  0  0  0  0  0  0
  -23.9869  -42.6901   -7.7345 C   0  0  0  0  0  0  0  0  0  0  0  0
  -23.2573  -44.0003   -7.9162 C   0  0  0  0  0  0  0  0  0  0  0  0
  -21.8406  -43.7968   -8.4014 C   0  0  0  0  0  0  0  0  0  0  0  0
  -20.9142  -44.0644   -7.2922 C   0  0  0  0  0  0  0  0  0  0  0  0
  -21.3271  -44.9479   -6.4515 O   0  0  0  0  0  0  0  0  0  0  0  0
  -19.6586  -43.4929   -7.0333 N   0  0  0  0  0  0  0  0  0  0  0  0
  -19.3652  -43.0403   -5.6633 C   0  0  0  0  0  0  0  0  0  0  0  0
  -18.5794  -43.3026   -7.9945 C   0  0  1  0  0  0  0  0  0  0  0  0
  -19.0444  -42.7128   -9.3059 C   0  0  0  0  0  0  0  0  0  0  0  0
  -17.4417  -42.5648   -7.4044 C   0  0  0  0  0  0  0  0  0  0  0  0
  -16.4102  -43.2756   -7.1161 O   0  0  0  0  0  0  0  0  0  0  0  0
  -17.3321  -41.2014   -7.1149 N   0  0  0  0  0  0  0  0  0  0  0  0
  -13.6872  -40.3487  -11.9707 C   0  0  0  0  0  0  0  0  0  0  0  0
  -13.7039  -39.4761  -12.9669 N   0  0  0  0  0  0  0  0  0  0  0  0
  -13.1380  -38.2496  -12.9242 C   0  0  0  0  0  0  0  0  0  0  0  0
  1  2  1  0
  2  3  1  0
  2  4  1  0
  4  5  1  0
  5  6  2  0
  6  7  1  0
  7  8  1  0
  8  9  1  0
  9 10  1  0
 10 11  1  0
 11 12  1  6
 11 13  1  0
 13 14  1  1
 14 15  1  0
 15 16  1  6
 15 17  1  0
 17 18  1  0
 18 19  1  0
 19 20  2  0
 20 21  1  0
 21 22  1  0
 22 23  1  0
 23 24  1  0
 24 25  1  0
 25 26  2  0
 25 27  1  0
 27 28  1  0
 27 29  1  0
 29 30  1  6
 29 31  1  0
 31 32  2  0
 31 33  1  0
  7 34  2  0
 34 35  1  0
 35 36  2  0
 33 13  1  0
 36  5  1  0
M  END
$$$$
