
     RDKit          3D

 36 37  0  0  0  0  0  0  0  0999 V2000
  -10.9140  -36.5877  -14.5307 C   0  0  0  0  0  0  0  0  0  0  0  0
  -11.3758  -38.0302  -14.3519 C   0  0  0  0  0  0  0  0  0  0  0  0
  -10.9395  -38.8097  -15.5672 C   0  0  0  0  0  0  0  0  0  0  0  0
  -12.8756  -38.0729  -14.2275 C   0  0  0  0  0  0  0  0  0  0  0  0
  -13.2983  -37.5107  -12.9367 C   0  0  0  0  0  0  0  0  0  0  0  0
  -13.0305  -38.1068  -11.7103 C   0  0  0  0  0  0  0  0  0  0  0  0
  -13.4389  -37.5567  -10.5390 C   0  0  0  0  0  0  0  0  0  0  0  0
  -13.1613  -38.1836   -9.2246 C   0  0  0  0  0  0  0  0  0  0  0  0
  -13.7354  -39.4744   -9.0495 N   0  0  0  0  0  0  0  0  0  0  0  0
  -15.1483  -39.5332   -8.9178 C   0  0  0  0  0  0  0  0  0  0  0  0
  -15.6928  -39.7925   -7.5621 C   0  0  1  0  0  0  0  0  0  0  0  0
  -15.3048  -38.9263   -6.5665 O   0  0  0  0  0  0  0  0  0  0  0  0
  -17.2060  -40.0673   -7.5569 C   0  0  2  0  0  0  0  0  0  0  0  0
  -17.8603  -38.7640   -7.1115 C   0  0  0  0  0  0  0  0  0  0  0  0
  -19.3395  -38.8992   -7.2937 C   0  0  2  0  0  0  0  0  0  0  0  0
  -19.6690  -38.4079   -8.6984 C   0  0  0  0  0  0  0  0  0  0  0  0
  -20.1526  -38.2406   -6.2433 C   0  0  0  0  0  0  0  0  0  0  0  0
  -21.6056  -38.0492   -6.7700 C   0  0  0  0  0  0  0  0  0  0  0  0
  -22.3323  -39.3733   -6.7309 C   0  0  0  0  0  0  0  0  0  0  0  0
  -23.5343  -39.7460   -6.9845 C   0  0  0  0  0  0  0  0  0  0  0  0
  -24.2530  -41.0734   -6.9401 C   0  0  0  0  0  0  0  0  0  0  0  0
  -24.0372  -41.7238   -8.2897 C   0  0  0  0  0  0  0  0  0  0  0  0
  -23.5038  -43.1333   -8.1863 C   0  0  0  0  0  0  0  0  0  0  0  0
  -22.0096  -43.1906   -8.4052 C   0  0  0  0  0  0  0  0  0  0  0  0
  -21.3481  -43.4310   -7.1149 C   0  0  0  0  0  0  0  0  0  0  0  0
  -22.0377  -44.1300   -6.2820 O   0  0  0  0  0  0  0  0  0  0  0  0
  -20.0836  -43.0057   -6.6785 N   0  0  0  0  0  0  0  0  0  0  0  0
  -19.9691  -42.4183   -5.3332 C   0  0  0  0  0  0  0  0  0  0  0  0
  -18.8352  -43.0938   -7.4257 C   0  0  1  0  0  0  0  0  0  0  0  0
  -18.9618  -42.6267   -8.8574 C   0  0  0  0  0  0  0  0  0  0  0  0
  -17.7174  -42.4451   -6.7068 C   0  0  0  0  0  0  0  0  0  0  0  0
  -16.8790  -43.2444   -6.1497 O   0  0  0  0  0  0  0  0  0  0  0  0
  -17.4463  -41.0829   -6.5473 N   0  0  0  0  0  0  0  0  0  0  0  0
  -14.1499  -36.3538  -10.5728 C   0  0  0  0  0  0  0  0  0  0  0  0
  -14.3941  -35.8028  -11.7522 N   0  0  0  0  0  0  0  0  0  0  0  0
  -14.0040  -36.3204  -12.9380 C   0  0  0  0  0  0  0  0  0  0  0  0
  1  2  1  0
  2  3  1  0
  2  4  1  0
  4  5  1  0
  5  6  2  0
  6  7  1  0
  7  8  1  0
  8  9  1  0
  9 10  1  0
 10 11  1  0
 11 12  1  1
 11 13  1  0
 13 14  1  1
 14 15  1  0
 15 16  1  6
 15 17  1  0
 17 18  1  0
 18 19  1  0
 19 20  2  0
 20 21  1  0
 21 22  1  0
 22 23  1  0
 23 24  1  0
 24 25  1  0
 25 26  2  0
 25 27  1  0
 27 28  1  0
 27 29  1  0
 29 30  1  6
 29 31  1  0
 31 32  2  0
 31 33  1  0
  7 34  2  0
 34 35  1  0
 35 36  2  0
 33 13  1  0
 36  5  1  0
M  END
$$$$
