
     RDKit          3D

 36 37  0  0  0  0  0  0  0  0999 V2000
  -11.0242  -34.5960  -10.4767 C   0  0  0  0  0  0  0  0  0  0  0  0
  -11.6806  -34.2395  -11.8064 C   0  0  0  0  0  0  0  0  0  0  0  0
  -11.6007  -32.7429  -11.9752 C   0  0  0  0  0  0  0  0  0  0  0  0
  -13.1210  -34.6775  -11.7967 C   0  0  0  0  0  0  0  0  0  0  0  0
  -13.2201  -36.1172  -12.0767 C   0  0  0  0  0  0  0  0  0  0  0  0
  -13.3576  -37.0874  -11.0915 C   0  0  0  0  0  0  0  0  0  0  0  0
  -13.4450  -38.4082  -11.3903 C   0  0  0  0  0  0  0  0  0  0  0  0
  -13.5900  -39.4529  -10.3486 C   0  0  0  0  0  0  0  0  0  0  0  0
  -14.9340  -39.8292  -10.0682 N   0  0  0  0  0  0  0  0  0  0  0  0
  -15.3143  -39.8704   -8.7005 C   0  0  0  0  0  0  0  0  0  0  0  0
  -16.3943  -38.9492   -8.2688 C   0  0  1  0  0  0  0  0  0  0  0  0
  -16.5878  -37.8243   -9.0367 O   0  0  0  0  0  0  0  0  0  0  0  0
  -17.7087  -39.6708   -7.9269 C   0  0  2  0  0  0  0  0  0  0  0  0
  -18.6002  -38.6181   -7.2770 C   0  0  0  0  0  0  0  0  0  0  0  0
  -19.9693  -39.2009   -7.1179 C   0  0  2  0  0  0  0  0  0  0  0  0
  -20.7530  -38.8658   -8.3815 C   0  0  0  0  0  0  0  0  0  0  0  0
  -20.6708  -38.7964   -5.8759 C   0  0  0  0  0  0  0  0  0  0  0  0
  -22.1953  -39.0681   -6.0412 C   0  0  0  0  0  0  0  0  0  0  0  0
  -22.4593  -40.5492   -5.9014 C   0  0  0  0  0  0  0  0  0  0  0  0
  -23.5178  -41.2756   -5.8878 C   0  0  0  0  0  0  0  0  0  0  0  0
  -23.7721  -42.7572   -5.7449 C   0  0  0  0  0  0  0  0  0  0  0  0
  -23.6957  -43.3424   -7.1386 C   0  0  0  0  0  0  0  0  0  0  0  0
  -22.7545  -44.5202   -7.2327 C   0  0  0  0  0  0  0  0  0  0  0  0
  -21.4082  -44.1255   -7.7945 C   0  0  0  0  0  0  0  0  0  0  0  0
  -20.4201  -44.1234   -6.7064 C   0  0  0  0  0  0  0  0  0  0  0  0
  -20.6506  -44.9793   -5.7726 O   0  0  0  0  0  0  0  0  0  0  0  0
  -19.2766  -43.3238   -6.5541 N   0  0  0  0  0  0  0  0  0  0  0  0
  -19.0300  -42.6982   -5.2443 C   0  0  0  0  0  0  0  0  0  0  0  0
  -18.2729  -43.0454   -7.5739 C   0  0  1  0  0  0  0  0  0  0  0  0
  -18.8682  -42.6724   -8.9119 C   0  0  0  0  0  0  0  0  0  0  0  0
  -17.2655  -42.0711   -7.1020 C   0  0  0  0  0  0  0  0  0  0  0  0
  -16.1189  -42.5644   -6.7952 O   0  0  0  0  0  0  0  0  0  0  0  0
  -17.3870  -40.6876   -6.9413 N   0  0  0  0  0  0  0  0  0  0  0  0
  -13.3949  -38.7991  -12.7313 C   0  0  0  0  0  0  0  0  0  0  0  0
  -13.2637  -37.8580  -13.6540 N   0  0  0  0  0  0  0  0  0  0  0  0
  -13.1735  -36.5348  -13.3952 C   0  0  0  0  0  0  0  0  0  0  0  0
  1  2  1  0
  2  3  1  0
  2  4  1  0
  4  5  1  0
  5  6  2  0
  6  7  1  0
  7  8  1  0
  8  9  1  0
  9 10  1  0
 10 11  1  0
 11 12  1  6
 11 13  1  0
 13 14  1  1
 14 15  1  0
 15 16  1  6
 15 17  1  0
 17 18  1  0
 18 19  1  0
 19 20  2  0
 20 21  1  0
 21 22  1  0
 22 23  1  0
 23 24  1  0
 24 25  1  0
 25 26  2  0
 25 27  1  0
 27 28  1  0
 27 29  1  0
 29 30  1  6
 29 31  1  0
 31 32  2  0
 31 33  1  0
  7 34  2  0
 34 35  1  0
 35 36  2  0
 33 13  1  0
 36  5  1  0
M  END
$$$$
