
     RDKit          3D

 36 37  0  0  0  0  0  0  0  0999 V2000
  -10.3206  -36.6510  -11.3914 C   0  0  0  0  0  0  0  0  0  0  0  0
  -10.3359  -37.0288  -12.8690 C   0  0  0  0  0  0  0  0  0  0  0  0
   -9.2019  -36.2992  -13.5448 C   0  0  0  0  0  0  0  0  0  0  0  0
  -11.6472  -36.6199  -13.4854 C   0  0  0  0  0  0  0  0  0  0  0  0
  -12.7316  -37.4878  -13.0041 C   0  0  0  0  0  0  0  0  0  0  0  0
  -13.4158  -37.2797  -11.8127 C   0  0  0  0  0  0  0  0  0  0  0  0
  -14.4116  -38.1048  -11.4017 C   0  0  0  0  0  0  0  0  0  0  0  0
  -15.1476  -37.8947  -10.1321 C   0  0  0  0  0  0  0  0  0  0  0  0
  -14.9081  -38.8836   -9.1365 N   0  0  0  0  0  0  0  0  0  0  0  0
  -16.0085  -39.7047   -8.7733 C   0  0  0  0  0  0  0  0  0  0  0  0
  -16.6873  -39.4000   -7.4896 C   0  0  1  0  0  0  0  0  0  0  0  0
  -16.7570  -38.0743   -7.1292 O   0  0  0  0  0  0  0  0  0  0  0  0
  -18.0279  -40.1348   -7.3211 C   0  0  2  0  0  0  0  0  0  0  0  0
  -18.9015  -39.2112   -6.4792 C   0  0  0  0  0  0  0  0  0  0  0  0
  -20.2894  -39.7707   -6.4616 C   0  0  2  0  0  0  0  0  0  0  0  0
  -21.0390  -39.1575   -7.6386 C   0  0  0  0  0  0  0  0  0  0  0  0
  -21.0028  -39.6091   -5.1720 C   0  0  0  0  0  0  0  0  0  0  0  0
  -22.5308  -39.7926   -5.4094 C   0  0  0  0  0  0  0  0  0  0  0  0
  -22.8393  -41.2616   -5.5823 C   0  0  0  0  0  0  0  0  0  0  0  0
  -23.9179  -41.9413   -5.7329 C   0  0  0  0  0  0  0  0  0  0  0  0
  -24.2168  -43.4117   -5.9027 C   0  0  0  0  0  0  0  0  0  0  0  0
  -24.1302  -43.6989   -7.3862 C   0  0  0  0  0  0  0  0  0  0  0  0
  -23.2211  -44.8611   -7.7097 C   0  0  0  0  0  0  0  0  0  0  0  0
  -21.8537  -44.4018   -8.1604 C   0  0  0  0  0  0  0  0  0  0  0  0
  -20.8870  -44.6554   -7.0828 C   0  0  0  0  0  0  0  0  0  0  0  0
  -21.1593  -45.6779   -6.3492 O   0  0  0  0  0  0  0  0  0  0  0  0
  -19.7244  -43.9410   -6.7537 N   0  0  0  0  0  0  0  0  0  0  0  0
  -19.4852  -43.6072   -5.3397 C   0  0  0  0  0  0  0  0  0  0  0  0
  -18.6939  -43.4901   -7.6809 C   0  0  1  0  0  0  0  0  0  0  0  0
  -19.2528  -42.8304   -8.9204 C   0  0  0  0  0  0  0  0  0  0  0  0
  -17.6686  -42.6664   -7.0048 C   0  0  0  0  0  0  0  0  0  0  0  0
  -16.5424  -43.2484   -6.7920 O   0  0  0  0  0  0  0  0  0  0  0  0
  -17.7539  -41.3426   -6.5631 N   0  0  0  0  0  0  0  0  0  0  0  0
  -14.7558  -39.1955  -12.2052 C   0  0  0  0  0  0  0  0  0  0  0  0
  -14.0911  -39.3751  -13.3366 N   0  0  0  0  0  0  0  0  0  0  0  0
  -13.0949  -38.5759  -13.7782 C   0  0  0  0  0  0  0  0  0  0  0  0
  1  2  1  0
  2  3  1  0
  2  4  1  0
  4  5  1  0
  5  6  2  0
  6  7  1  0
  7  8  1  0
  8  9  1  0
  9 10  1  0
 10 11  1  0
 11 12  1  6
 11 13  1  0
 13 14  1  1
 14 15  1  0
 15 16  1  6
 15 17  1  0
 17 18  1  0
 18 19  1  0
 19 20  2  0
 20 21  1  0
 21 22  1  0
 22 23  1  0
 23 24  1  0
 24 25  1  0
 25 26  2  0
 25 27  1  0
 27 28  1  0
 27 29  1  0
 29 30  1  6
 29 31  1  0
 31 32  2  0
 31 33  1  0
  7 34  2  0
 34 35  1  0
 35 36  2  0
 33 13  1  0
 36  5  1  0
M  END
$$$$
