
     RDKit          3D

 36 37  0  0  0  0  0  0  0  0999 V2000
  -24.9955  -41.7655   -4.6264 C   0  0  0  0  0  0  0  0  0  0  0  0
  -23.5622  -41.5819   -5.1146 C   0  0  0  0  0  0  0  0  0  0  0  0
  -22.7730  -40.9395   -4.0012 C   0  0  0  0  0  0  0  0  0  0  0  0
  -23.5483  -40.6941   -6.3303 C   0  0  0  0  0  0  0  0  0  0  0  0
  -22.2197  -40.7083   -6.9593 C   0  0  0  0  0  0  0  0  0  0  0  0
  -21.2193  -39.7879   -6.6710 C   0  0  0  0  0  0  0  0  0  0  0  0
  -20.0047  -39.8336   -7.2743 C   0  0  0  0  0  0  0  0  0  0  0  0
  -18.9301  -38.8567   -6.9770 C   0  0  0  0  0  0  0  0  0  0  0  0
  -17.7356  -39.4287   -6.4550 N   0  0  0  0  0  0  0  0  0  0  0  0
  -16.6669  -39.6230   -7.3700 C   0  0  0  0  0  0  0  0  0  0  0  0
  -16.1598  -38.4257   -8.0847 C   0  0  1  0  0  0  0  0  0  0  0  0
  -15.7193  -37.3827   -7.3033 O   0  0  0  0  0  0  0  0  0  0  0  0
  -15.1887  -38.7657   -9.2278 C   0  0  2  0  0  0  0  0  0  0  0  0
  -14.8596  -37.4363   -9.8985 C   0  0  0  0  0  0  0  0  0  0  0  0
  -13.7539  -37.6704  -10.8793 C   0  0  2  0  0  0  0  0  0  0  0  0
  -12.4394  -37.4496  -10.1400 C   0  0  0  0  0  0  0  0  0  0  0  0
  -13.8582  -36.8761  -12.1268 C   0  0  0  0  0  0  0  0  0  0  0  0
  -12.4689  -36.8483  -12.8299 C   0  0  0  0  0  0  0  0  0  0  0  0
  -12.2209  -38.1774  -13.5043 C   0  0  0  0  0  0  0  0  0  0  0  0
  -11.2885  -38.6447  -14.2529 C   0  0  0  0  0  0  0  0  0  0  0  0
  -11.0502  -39.9757  -14.9253 C   0  0  0  0  0  0  0  0  0  0  0  0
  -10.3266  -40.8423  -13.9174 C   0  0  0  0  0  0  0  0  0  0  0  0
  -10.9873  -42.1853  -13.7124 C   0  0  0  0  0  0  0  0  0  0  0  0
  -11.8448  -42.2103  -12.4683 C   0  0  0  0  0  0  0  0  0  0  0  0
  -13.2599  -42.1889  -12.8648 C   0  0  0  0  0  0  0  0  0  0  0  0
  -13.5090  -42.7620  -13.9905 O   0  0  0  0  0  0  0  0  0  0  0  0
  -14.3578  -41.6350  -12.1881 N   0  0  0  0  0  0  0  0  0  0  0  0
  -15.3110  -40.8155  -12.9548 C   0  0  0  0  0  0  0  0  0  0  0  0
  -14.6736  -41.7947  -10.7740 C   0  0  1  0  0  0  0  0  0  0  0  0
  -13.4801  -41.5930   -9.8691 C   0  0  0  0  0  0  0  0  0  0  0  0
  -15.8405  -40.9782  -10.3759 C   0  0  0  0  0  0  0  0  0  0  0  0
  -16.9358  -41.6270  -10.1981 O   0  0  0  0  0  0  0  0  0  0  0  0
  -15.9189  -39.5980  -10.1673 N   0  0  0  0  0  0  0  0  0  0  0  0
  -19.7575  -40.8393   -8.2131 C   0  0  0  0  0  0  0  0  0  0  0  0
  -20.7247  -41.7060   -8.4726 N   0  0  0  0  0  0  0  0  0  0  0  0
  -21.9453  -41.6922   -7.8929 C   0  0  0  0  0  0  0  0  0  0  0  0
  1  2  1  0
  2  3  1  0
  2  4  1  0
  4  5  1  0
  5  6  2  0
  6  7  1  0
  7  8  1  0
  8  9  1  0
  9 10  1  0
 10 11  1  0
 11 12  1  1
 11 13  1  0
 13 14  1  6
 14 15  1  0
 15 16  1  1
 15 17  1  0
 17 18  1  0
 18 19  1  0
 19 20  2  0
 20 21  1  0
 21 22  1  0
 22 23  1  0
 23 24  1  0
 24 25  1  0
 25 26  2  0
 25 27  1  0
 27 28  1  0
 27 29  1  0
 29 30  1  1
 29 31  1  0
 31 32  2  0
 31 33  1  0
  7 34  2  0
 34 35  1  0
 35 36  2  0
 33 13  1  0
 36  5  1  0
M  END
$$$$
