
     RDKit          3D

 36 37  0  0  0  0  0  0  0  0999 V2000
  -12.9755  -34.3945  -12.8016 C   0  0  0  0  0  0  0  0  0  0  0  0
  -11.7131  -34.7434  -12.0200 C   0  0  0  0  0  0  0  0  0  0  0  0
  -10.7759  -33.5647  -12.1050 C   0  0  0  0  0  0  0  0  0  0  0  0
  -11.0617  -35.9599  -12.6217 C   0  0  0  0  0  0  0  0  0  0  0  0
  -11.9842  -37.1039  -12.5881 C   0  0  0  0  0  0  0  0  0  0  0  0
  -12.3366  -37.7774  -11.4248 C   0  0  0  0  0  0  0  0  0  0  0  0
  -13.1918  -38.8310  -11.4350 C   0  0  0  0  0  0  0  0  0  0  0  0
  -13.5740  -39.5589  -10.2014 C   0  0  0  0  0  0  0  0  0  0  0  0
  -14.9630  -39.5155   -9.8927 N   0  0  0  0  0  0  0  0  0  0  0  0
  -15.3341  -39.8593   -8.5657 C   0  0  0  0  0  0  0  0  0  0  0  0
  -16.2848  -38.9560   -7.8717 C   0  0  1  0  0  0  0  0  0  0  0  0
  -16.4723  -37.7128   -8.4299 O   0  0  0  0  0  0  0  0  0  0  0  0
  -17.6065  -39.6427   -7.4883 C   0  0  2  0  0  0  0  0  0  0  0  0
  -18.2997  -38.6912   -6.5192 C   0  0  0  0  0  0  0  0  0  0  0  0
  -19.6860  -39.2005   -6.2776 C   0  0  2  0  0  0  0  0  0  0  0  0
  -20.5924  -38.5568   -7.3203 C   0  0  0  0  0  0  0  0  0  0  0  0
  -20.1767  -39.0178   -4.8905 C   0  0  0  0  0  0  0  0  0  0  0  0
  -21.7287  -39.1454   -4.8789 C   0  0  0  0  0  0  0  0  0  0  0  0
  -22.1135  -40.6018   -4.9964 C   0  0  0  0  0  0  0  0  0  0  0  0
  -23.2261  -41.2418   -4.9701 C   0  0  0  0  0  0  0  0  0  0  0  0
  -23.6010  -42.7000   -5.0860 C   0  0  0  0  0  0  0  0  0  0  0  0
  -23.7643  -42.9851   -6.5635 C   0  0  0  0  0  0  0  0  0  0  0  0
  -22.9613  -44.1781   -7.0259 C   0  0  0  0  0  0  0  0  0  0  0  0
  -21.6685  -43.7667   -7.6916 C   0  0  0  0  0  0  0  0  0  0  0  0
  -20.5510  -44.0585   -6.7826 C   0  0  0  0  0  0  0  0  0  0  0  0
  -20.7385  -45.0730   -6.0123 O   0  0  0  0  0  0  0  0  0  0  0  0
  -19.3257  -43.3874   -6.6464 N   0  0  0  0  0  0  0  0  0  0  0  0
  -18.8507  -43.0672   -5.2900 C   0  0  0  0  0  0  0  0  0  0  0  0
  -18.4419  -42.9707   -7.7281 C   0  0  1  0  0  0  0  0  0  0  0  0
  -19.1686  -42.2872   -8.8634 C   0  0  0  0  0  0  0  0  0  0  0  0
  -17.2924  -42.1866   -7.2276 C   0  0  0  0  0  0  0  0  0  0  0  0
  -16.1683  -42.8094   -7.1970 O   0  0  0  0  0  0  0  0  0  0  0  0
  -17.2580  -40.8622   -6.7812 N   0  0  0  0  0  0  0  0  0  0  0  0
  -13.7319  -39.2471  -12.6552 C   0  0  0  0  0  0  0  0  0  0  0  0
  -13.3828  -38.5910  -13.7515 N   0  0  0  0  0  0  0  0  0  0  0  0
  -12.5352  -37.5389  -13.7807 C   0  0  0  0  0  0  0  0  0  0  0  0
  1  2  1  0
  2  3  1  0
  2  4  1  0
  4  5  1  0
  5  6  2  0
  6  7  1  0
  7  8  1  0
  8  9  1  0
  9 10  1  0
 10 11  1  0
 11 12  1  6
 11 13  1  0
 13 14  1  1
 14 15  1  0
 15 16  1  6
 15 17  1  0
 17 18  1  0
 18 19  1  0
 19 20  2  0
 20 21  1  0
 21 22  1  0
 22 23  1  0
 23 24  1  0
 24 25  1  0
 25 26  2  0
 25 27  1  0
 27 28  1  0
 27 29  1  0
 29 30  1  6
 29 31  1  0
 31 32  2  0
 31 33  1  0
  7 34  2  0
 34 35  1  0
 35 36  2  0
 33 13  1  0
 36  5  1  0
M  END
$$$$
