
     RDKit          3D

 36 37  0  0  0  0  0  0  0  0999 V2000
  -14.7846  -35.8452  -13.0920 C   0  0  0  0  0  0  0  0  0  0  0  0
  -13.3329  -35.4590  -13.3559 C   0  0  0  0  0  0  0  0  0  0  0  0
  -13.2541  -34.8781  -14.7457 C   0  0  0  0  0  0  0  0  0  0  0  0
  -12.4562  -36.6791  -13.2605 C   0  0  0  0  0  0  0  0  0  0  0  0
  -12.2442  -37.0482  -11.8535 C   0  0  0  0  0  0  0  0  0  0  0  0
  -12.6780  -38.2447  -11.2956 C   0  0  0  0  0  0  0  0  0  0  0  0
  -12.4637  -38.5489   -9.9906 C   0  0  0  0  0  0  0  0  0  0  0  0
  -12.9232  -39.8207   -9.3831 C   0  0  0  0  0  0  0  0  0  0  0  0
  -13.7339  -39.6658   -8.2233 N   0  0  0  0  0  0  0  0  0  0  0  0
  -15.0984  -40.0413   -8.3422 C   0  0  0  0  0  0  0  0  0  0  0  0
  -16.0969  -39.2018   -7.6353 C   0  0  1  0  0  0  0  0  0  0  0  0
  -16.0856  -37.8569   -7.9239 O   0  0  0  0  0  0  0  0  0  0  0  0
  -17.5129  -39.8021   -7.6462 C   0  0  2  0  0  0  0  0  0  0  0  0
  -18.4025  -38.7727   -6.9576 C   0  0  0  0  0  0  0  0  0  0  0  0
  -19.8267  -39.1992   -7.1282 C   0  0  2  0  0  0  0  0  0  0  0  0
  -20.3396  -38.5592   -8.4130 C   0  0  0  0  0  0  0  0  0  0  0  0
  -20.6958  -38.9278   -5.9580 C   0  0  0  0  0  0  0  0  0  0  0  0
  -22.1856  -38.9758   -6.4088 C   0  0  0  0  0  0  0  0  0  0  0  0
  -22.6080  -40.4146   -6.5940 C   0  0  0  0  0  0  0  0  0  0  0  0
  -23.7156  -40.9953   -6.8841 C   0  0  0  0  0  0  0  0  0  0  0  0
  -24.1291  -42.4364   -7.0649 C   0  0  0  0  0  0  0  0  0  0  0  0
  -23.8626  -42.7808   -8.5144 C   0  0  0  0  0  0  0  0  0  0  0  0
  -23.0343  -44.0332   -8.6800 C   0  0  0  0  0  0  0  0  0  0  0  0
  -21.5789  -43.7193   -8.9389 C   0  0  0  0  0  0  0  0  0  0  0  0
  -20.8031  -44.0251   -7.7286 C   0  0  0  0  0  0  0  0  0  0  0  0
  -21.2744  -44.9920   -7.0210 O   0  0  0  0  0  0  0  0  0  0  0  0
  -19.6347  -43.4115   -7.2506 N   0  0  0  0  0  0  0  0  0  0  0  0
  -19.5660  -43.0535   -5.8241 C   0  0  0  0  0  0  0  0  0  0  0  0
  -18.4448  -43.0908   -8.0291 C   0  0  1  0  0  0  0  0  0  0  0  0
  -18.7564  -42.4245   -9.3494 C   0  0  0  0  0  0  0  0  0  0  0  0
  -17.4498  -42.3438   -7.2297 C   0  0  0  0  0  0  0  0  0  0  0  0
  -16.4270  -43.0208   -6.8455 O   0  0  0  0  0  0  0  0  0  0  0  0
  -17.4674  -41.0036   -6.8321 N   0  0  0  0  0  0  0  0  0  0  0  0
  -11.7853  -37.6275   -9.1878 C   0  0  0  0  0  0  0  0  0  0  0  0
  -11.3805  -36.4937   -9.7399 N   0  0  0  0  0  0  0  0  0  0  0  0
  -11.5754  -36.1561  -11.0338 C   0  0  0  0  0  0  0  0  0  0  0  0
  1  2  1  0
  2  3  1  0
  2  4  1  0
  4  5  1  0
  5  6  2  0
  6  7  1  0
  7  8  1  0
  8  9  1  0
  9 10  1  0
 10 11  1  0
 11 12  1  6
 11 13  1  0
 13 14  1  1
 14 15  1  0
 15 16  1  6
 15 17  1  0
 17 18  1  0
 18 19  1  0
 19 20  2  0
 20 21  1  0
 21 22  1  0
 22 23  1  0
 23 24  1  0
 24 25  1  0
 25 26  2  0
 25 27  1  0
 27 28  1  0
 27 29  1  0
 29 30  1  6
 29 31  1  0
 31 32  2  0
 31 33  1  0
  7 34  2  0
 34 35  1  0
 35 36  2  0
 33 13  1  0
 36  5  1  0
M  END
$$$$
