
     RDKit          3D

 36 37  0  0  0  0  0  0  0  0999 V2000
  -24.3374  -39.8626   -7.0243 C   0  0  0  0  0  0  0  0  0  0  0  0
  -23.9521  -41.2842   -6.6280 C   0  0  0  0  0  0  0  0  0  0  0  0
  -23.6965  -41.2968   -5.1416 C   0  0  0  0  0  0  0  0  0  0  0  0
  -22.7066  -41.6983   -7.3653 C   0  0  0  0  0  0  0  0  0  0  0  0
  -21.7674  -40.5712   -7.4569 C   0  0  0  0  0  0  0  0  0  0  0  0
  -20.7685  -40.3210   -6.5238 C   0  0  0  0  0  0  0  0  0  0  0  0
  -19.9207  -39.2683   -6.6428 C   0  0  0  0  0  0  0  0  0  0  0  0
  -18.8525  -38.9895   -5.6534 C   0  0  0  0  0  0  0  0  0  0  0  0
  -17.6928  -38.3641   -6.1922 N   0  0  0  0  0  0  0  0  0  0  0  0
  -16.6326  -39.2199   -6.5929 C   0  0  0  0  0  0  0  0  0  0  0  0
  -15.4926  -38.5974   -7.3102 C   0  0  1  0  0  0  0  0  0  0  0  0
  -14.4508  -38.1439   -6.5348 O   0  0  0  0  0  0  0  0  0  0  0  0
  -15.0202  -39.4131   -8.5254 C   0  0  2  0  0  0  0  0  0  0  0  0
  -14.4195  -38.4000   -9.4939 C   0  0  0  0  0  0  0  0  0  0  0  0
  -13.7479  -39.1532  -10.5989 C   0  0  2  0  0  0  0  0  0  0  0  0
  -12.3010  -39.3805  -10.1770 C   0  0  0  0  0  0  0  0  0  0  0  0
  -13.8702  -38.5249  -11.9362 C   0  0  0  0  0  0  0  0  0  0  0  0
  -12.7814  -39.1181  -12.8785 C   0  0  0  0  0  0  0  0  0  0  0  0
  -13.1948  -40.5051  -13.3126 C   0  0  0  0  0  0  0  0  0  0  0  0
  -12.7044  -41.3783  -14.1159 C   0  0  0  0  0  0  0  0  0  0  0  0
  -13.1266  -42.7629  -14.5458 C   0  0  0  0  0  0  0  0  0  0  0  0
  -12.5306  -43.7250  -13.5409 C   0  0  0  0  0  0  0  0  0  0  0  0
  -13.5505  -44.6733  -12.9558 C   0  0  0  0  0  0  0  0  0  0  0  0
  -14.0247  -44.2243  -11.5929 C   0  0  0  0  0  0  0  0  0  0  0  0
  -15.3918  -43.6984  -11.7137 C   0  0  0  0  0  0  0  0  0  0  0  0
  -16.0980  -44.2507  -12.6378 O   0  0  0  0  0  0  0  0  0  0  0  0
  -16.0186  -42.6895  -10.9658 N   0  0  0  0  0  0  0  0  0  0  0  0
  -16.7786  -41.6545  -11.6863 C   0  0  0  0  0  0  0  0  0  0  0  0
  -16.0095  -42.5554   -9.5143 C   0  0  1  0  0  0  0  0  0  0  0  0
  -14.6375  -42.7346   -8.9065 C   0  0  0  0  0  0  0  0  0  0  0  0
  -16.6748  -41.3106   -9.0731 C   0  0  0  0  0  0  0  0  0  0  0  0
  -17.8481  -41.4581   -8.5693 O   0  0  0  0  0  0  0  0  0  0  0  0
  -16.2059  -39.9947   -9.1291 N   0  0  0  0  0  0  0  0  0  0  0  0
  -20.0605  -38.4128   -7.7394 C   0  0  0  0  0  0  0  0  0  0  0  0
  -21.0189  -38.6698   -8.6166 N   0  0  0  0  0  0  0  0  0  0  0  0
  -21.8811  -39.7069   -8.5316 C   0  0  0  0  0  0  0  0  0  0  0  0
  1  2  1  0
  2  3  1  0
  2  4  1  0
  4  5  1  0
  5  6  2  0
  6  7  1  0
  7  8  1  0
  8  9  1  0
  9 10  1  0
 10 11  1  0
 11 12  1  1
 11 13  1  0
 13 14  1  6
 14 15  1  0
 15 16  1  1
 15 17  1  0
 17 18  1  0
 18 19  1  0
 19 20  2  0
 20 21  1  0
 21 22  1  0
 22 23  1  0
 23 24  1  0
 24 25  1  0
 25 26  2  0
 25 27  1  0
 27 28  1  0
 27 29  1  0
 29 30  1  6
 29 31  1  0
 31 32  2  0
 31 33  1  0
  7 34  2  0
 34 35  1  0
 35 36  2  0
 33 13  1  0
 36  5  1  0
M  END
$$$$
