
     RDKit          3D

 36 37  0  0  0  0  0  0  0  0999 V2000
  -17.2339  -42.8044    0.1178 C   0  0  0  0  0  0  0  0  0  0  0  0
  -17.5490  -41.3671   -0.2834 C   0  0  0  0  0  0  0  0  0  0  0  0
  -18.0579  -40.6463    0.9399 C   0  0  0  0  0  0  0  0  0  0  0  0
  -18.6028  -41.3579   -1.3585 C   0  0  0  0  0  0  0  0  0  0  0  0
  -18.0800  -41.9612   -2.5928 C   0  0  0  0  0  0  0  0  0  0  0  0
  -17.1585  -41.3386   -3.4261 C   0  0  0  0  0  0  0  0  0  0  0  0
  -16.7000  -41.9284   -4.5589 C   0  0  0  0  0  0  0  0  0  0  0  0
  -15.7187  -41.2740   -5.4569 C   0  0  0  0  0  0  0  0  0  0  0  0
  -15.5309  -41.9274   -6.7077 N   0  0  0  0  0  0  0  0  0  0  0  0
  -15.6539  -41.1249   -7.8730 C   0  0  0  0  0  0  0  0  0  0  0  0
  -16.5020  -39.9114   -7.7744 C   0  0  1  0  0  0  0  0  0  0  0  0
  -15.9926  -38.7577   -8.3236 O   0  0  0  0  0  0  0  0  0  0  0  0
  -17.9683  -40.1609   -8.1654 C   0  0  2  0  0  0  0  0  0  0  0  0
  -18.6156  -38.7822   -8.2399 C   0  0  0  0  0  0  0  0  0  0  0  0
  -19.9836  -38.9408   -8.8254 C   0  0  2  0  0  0  0  0  0  0  0  0
  -19.8489  -38.7920  -10.3363 C   0  0  0  0  0  0  0  0  0  0  0  0
  -21.0108  -38.0437   -8.2437 C   0  0  0  0  0  0  0  0  0  0  0  0
  -22.2270  -37.9667   -9.2132 C   0  0  0  0  0  0  0  0  0  0  0  0
  -23.0388  -39.2361   -9.1021 C   0  0  0  0  0  0  0  0  0  0  0  0
  -24.1412  -39.6453   -9.6174 C   0  0  0  0  0  0  0  0  0  0  0  0
  -24.9472  -40.9167   -9.4982 C   0  0  0  0  0  0  0  0  0  0  0  0
  -24.4017  -41.8700  -10.5396 C   0  0  0  0  0  0  0  0  0  0  0  0
  -24.0380  -43.2208   -9.9693 C   0  0  0  0  0  0  0  0  0  0  0  0
  -22.5547  -43.3443   -9.7082 C   0  0  0  0  0  0  0  0  0  0  0  0
  -22.3192  -43.2799   -8.2589 C   0  0  0  0  0  0  0  0  0  0  0  0
  -23.2758  -43.7546   -7.5397 O   0  0  0  0  0  0  0  0  0  0  0  0
  -21.2063  -42.7771   -7.5669 N   0  0  0  0  0  0  0  0  0  0  0  0
  -21.4408  -41.8895   -6.4158 C   0  0  0  0  0  0  0  0  0  0  0  0
  -19.8059  -43.0528   -7.8630 C   0  0  1  0  0  0  0  0  0  0  0  0
  -19.4718  -42.9362   -9.3323 C   0  0  0  0  0  0  0  0  0  0  0  0
  -18.8968  -42.2645   -7.0033 C   0  0  0  0  0  0  0  0  0  0  0  0
  -18.3248  -42.9184   -6.0559 O   0  0  0  0  0  0  0  0  0  0  0  0
  -18.5739  -40.9062   -7.0763 N   0  0  0  0  0  0  0  0  0  0  0  0
  -17.1720  -43.2009   -4.8929 C   0  0  0  0  0  0  0  0  0  0  0  0
  -18.0496  -43.7761   -4.0848 N   0  0  0  0  0  0  0  0  0  0  0  0
  -18.5287  -43.2206   -2.9498 C   0  0  0  0  0  0  0  0  0  0  0  0
  1  2  1  0
  2  3  1  0
  2  4  1  0
  4  5  1  0
  5  6  2  0
  6  7  1  0
  7  8  1  0
  8  9  1  0
  9 10  1  0
 10 11  1  0
 11 12  1  6
 11 13  1  0
 13 14  1  1
 14 15  1  0
 15 16  1  6
 15 17  1  0
 17 18  1  0
 18 19  1  0
 19 20  2  0
 20 21  1  0
 21 22  1  0
 22 23  1  0
 23 24  1  0
 24 25  1  0
 25 26  2  0
 25 27  1  0
 27 28  1  0
 27 29  1  0
 29 30  1  6
 29 31  1  0
 31 32  2  0
 31 33  1  0
  7 34  2  0
 34 35  1  0
 35 36  2  0
 33 13  1  0
 36  5  1  0
M  END
$$$$
