
     RDKit          3D

 25 25  0  0  0  0  0  0  0  0999 V2000
  -20.2213  -37.8994  -10.0785 C   0  0  0  0  0  0  0  0  0  0  0  0
  -20.0437  -38.3554   -8.6133 C   0  0  2  0  0  0  0  0  0  0  0  0
  -21.0647  -37.6807   -7.8137 C   0  0  0  0  0  0  0  0  0  0  0  0
  -20.8716  -37.4363   -6.3814 C   0  0  0  0  0  0  0  0  0  0  0  0
  -21.3252  -38.4850   -5.4201 C   0  0  0  0  0  0  0  0  0  0  0  0
  -22.6451  -39.1072   -5.6878 C   0  0  0  0  0  0  0  0  0  0  0  0
  -22.4653  -40.4987   -6.2476 C   0  0  0  0  0  0  0  0  0  0  0  0
  -21.9588  -41.4320   -5.1697 C   0  0  0  0  0  0  0  0  0  0  0  0
  -21.6894  -42.8241   -5.7153 C   0  0  0  0  0  0  0  0  0  0  0  0
  -20.2054  -43.1214   -5.7277 C   0  0  0  0  0  0  0  0  0  0  0  0
  -19.8465  -44.1347   -6.7481 C   0  0  0  0  0  0  0  0  0  0  0  0
  -20.6927  -45.0821   -6.9048 O   0  0  0  0  0  0  0  0  0  0  0  0
  -18.7030  -44.1750   -7.5499 N   0  0  0  0  0  0  0  0  0  0  0  0
  -17.9809  -45.4231   -7.7432 C   0  0  0  0  0  0  0  0  0  0  0  0
  -18.1249  -43.0225   -8.2584 C   0  0  1  0  0  0  0  0  0  0  0  0
  -17.8579  -43.3744   -9.7153 C   0  0  0  0  0  0  0  0  0  0  0  0
  -19.0741  -41.8784   -8.2513 C   0  0  0  0  0  0  0  0  0  0  0  0
  -20.2499  -42.1886   -8.6746 O   0  0  0  0  0  0  0  0  0  0  0  0
  -18.8382  -40.5730   -7.8542 N   0  0  0  0  0  0  0  0  0  0  0  0
  -17.9245  -39.5789   -8.3629 C   0  0  1  0  0  0  0  0  0  0  0  0
  -18.6146  -38.1987   -8.2653 C   0  0  0  0  0  0  0  0  0  0  0  0
  -16.6331  -39.5525   -7.5506 C   0  0  2  0  0  0  0  0  0  0  0  0
  -15.7117  -38.6703   -8.0801 O   0  0  0  0  0  0  0  0  0  0  0  0
  -16.0049  -40.9022   -7.4538 C   0  0  0  0  0  0  0  0  0  0  0  0
  -14.6127  -40.8589   -7.4616 O   0  0  0  0  0  0  0  0  0  0  0  0
  2  1  1  6
  2  3  1  0
  3  4  1  0
  4  5  1  0
  5  6  1  0
  6  7  1  0
  7  8  1  0
  8  9  1  0
  9 10  1  0
 10 11  1  0
 11 12  2  0
 11 13  1  0
 13 14  1  0
 13 15  1  0
 15 16  1  6
 15 17  1  0
 17 18  2  0
 17 19  1  0
 19 20  1  0
 20 21  1  1
 20 22  1  0
 22 23  1  6
 22 24  1  0
 24 25  1  0
 21  2  1  0
M  END
$$$$
