
     RDKit          3D

 25 25  0  0  0  0  0  0  0  0999 V2000
  -19.8149  -38.4087  -10.3708 C   0  0  0  0  0  0  0  0  0  0  0  0
  -19.8113  -38.7330   -8.8605 C   0  0  2  0  0  0  0  0  0  0  0  0
  -20.8812  -37.9546   -8.2390 C   0  0  0  0  0  0  0  0  0  0  0  0
  -20.8293  -37.5853   -6.8213 C   0  0  0  0  0  0  0  0  0  0  0  0
  -21.4251  -38.5255   -5.8260 C   0  0  0  0  0  0  0  0  0  0  0  0
  -22.7346  -39.1266   -6.1791 C   0  0  0  0  0  0  0  0  0  0  0  0
  -22.5559  -40.5689   -6.5909 C   0  0  0  0  0  0  0  0  0  0  0  0
  -22.2050  -41.4147   -5.3863 C   0  0  0  0  0  0  0  0  0  0  0  0
  -21.9388  -42.8592   -5.7744 C   0  0  0  0  0  0  0  0  0  0  0  0
  -20.4756  -43.2045   -5.5997 C   0  0  0  0  0  0  0  0  0  0  0  0
  -20.0546  -44.3188   -6.4818 C   0  0  0  0  0  0  0  0  0  0  0  0
  -20.9189  -45.2486   -6.6449 O   0  0  0  0  0  0  0  0  0  0  0  0
  -18.8360  -44.4699   -7.1483 N   0  0  0  0  0  0  0  0  0  0  0  0
  -18.1509  -45.7534   -7.1513 C   0  0  0  0  0  0  0  0  0  0  0  0
  -18.1387  -43.4071   -7.8891 C   0  0  1  0  0  0  0  0  0  0  0  0
  -17.7354  -43.9006   -9.2717 C   0  0  0  0  0  0  0  0  0  0  0  0
  -19.0344  -42.2371   -8.0859 C   0  0  0  0  0  0  0  0  0  0  0  0
  -20.1713  -42.5467   -8.6049 O   0  0  0  0  0  0  0  0  0  0  0  0
  -18.7867  -40.9090   -7.7825 N   0  0  0  0  0  0  0  0  0  0  0  0
  -17.7836  -39.9963   -8.2750 C   0  0  1  0  0  0  0  0  0  0  0  0
  -18.4213  -38.5913   -8.3750 C   0  0  0  0  0  0  0  0  0  0  0  0
  -16.5846  -39.9370   -7.3332 C   0  0  2  0  0  0  0  0  0  0  0  0
  -15.6587  -38.9961   -7.7397 O   0  0  0  0  0  0  0  0  0  0  0  0
  -15.9035  -41.2586   -7.2098 C   0  0  0  0  0  0  0  0  0  0  0  0
  -14.6641  -41.2961   -7.8443 O   0  0  0  0  0  0  0  0  0  0  0  0
  2  1  1  6
  2  3  1  0
  3  4  1  0
  4  5  1  0
  5  6  1  0
  6  7  1  0
  7  8  1  0
  8  9  1  0
  9 10  1  0
 10 11  1  0
 11 12  2  0
 11 13  1  0
 13 14  1  0
 13 15  1  0
 15 16  1  6
 15 17  1  0
 17 18  2  0
 17 19  1  0
 19 20  1  0
 20 21  1  1
 20 22  1  0
 22 23  1  6
 22 24  1  0
 24 25  1  0
 21  2  1  0
M  END
$$$$
