
     RDKit          3D

 25 25  0  0  0  0  0  0  0  0999 V2000
  -19.9823  -37.9627   -9.7903 C   0  0  0  0  0  0  0  0  0  0  0  0
  -19.8843  -38.4944   -8.3433 C   0  0  2  0  0  0  0  0  0  0  0  0
  -20.9634  -37.8793   -7.5725 C   0  0  0  0  0  0  0  0  0  0  0  0
  -20.8607  -37.7097   -6.1202 C   0  0  0  0  0  0  0  0  0  0  0  0
  -21.3518  -38.8155   -5.2451 C   0  0  0  0  0  0  0  0  0  0  0  0
  -22.6417  -39.4422   -5.6250 C   0  0  0  0  0  0  0  0  0  0  0  0
  -22.4034  -40.7985   -6.2458 C   0  0  0  0  0  0  0  0  0  0  0  0
  -21.9452  -41.7810   -5.1901 C   0  0  0  0  0  0  0  0  0  0  0  0
  -21.6182  -43.1374   -5.7914 C   0  0  0  0  0  0  0  0  0  0  0  0
  -20.1310  -43.4112   -5.7295 C   0  0  0  0  0  0  0  0  0  0  0  0
  -19.6933  -44.3624   -6.7786 C   0  0  0  0  0  0  0  0  0  0  0  0
  -20.5112  -45.3126   -7.0362 O   0  0  0  0  0  0  0  0  0  0  0  0
  -18.5034  -44.3421   -7.5105 N   0  0  0  0  0  0  0  0  0  0  0  0
  -17.7483  -45.5670   -7.7256 C   0  0  0  0  0  0  0  0  0  0  0  0
  -17.9051  -43.1444   -8.1205 C   0  0  1  0  0  0  0  0  0  0  0  0
  -17.5451  -43.4131   -9.5752 C   0  0  0  0  0  0  0  0  0  0  0  0
  -18.8738  -42.0168   -8.1105 C   0  0  0  0  0  0  0  0  0  0  0  0
  -20.0163  -42.3214   -8.6200 O   0  0  0  0  0  0  0  0  0  0  0  0
  -18.6860  -40.7314   -7.6311 N   0  0  0  0  0  0  0  0  0  0  0  0
  -17.7619  -39.6976   -8.0300 C   0  0  1  0  0  0  0  0  0  0  0  0
  -18.4816  -38.3352   -7.9014 C   0  0  0  0  0  0  0  0  0  0  0  0
  -16.5220  -39.6957   -7.1407 C   0  0  2  0  0  0  0  0  0  0  0  0
  -16.5279  -38.6366   -6.2541 O   0  0  0  0  0  0  0  0  0  0  0  0
  -15.2616  -39.6479   -7.9374 C   0  0  0  0  0  0  0  0  0  0  0  0
  -15.0228  -40.8185   -8.6535 O   0  0  0  0  0  0  0  0  0  0  0  0
  2  1  1  6
  2  3  1  0
  3  4  1  0
  4  5  1  0
  5  6  1  0
  6  7  1  0
  7  8  1  0
  8  9  1  0
  9 10  1  0
 10 11  1  0
 11 12  2  0
 11 13  1  0
 13 14  1  0
 13 15  1  0
 15 16  1  6
 15 17  1  0
 17 18  2  0
 17 19  1  0
 19 20  1  0
 20 21  1  1
 20 22  1  0
 22 23  1  1
 22 24  1  0
 24 25  1  0
 21  2  1  0
M  END
$$$$
