
     RDKit          3D

 25 25  0  0  0  0  0  0  0  0999 V2000
  -19.7782  -37.9360   -9.9739 C   0  0  0  0  0  0  0  0  0  0  0  0
  -19.8386  -38.5073   -8.5400 C   0  0  2  0  0  0  0  0  0  0  0  0
  -20.9940  -37.9084   -7.8741 C   0  0  0  0  0  0  0  0  0  0  0  0
  -21.0493  -37.7787   -6.4151 C   0  0  0  0  0  0  0  0  0  0  0  0
  -21.6341  -38.9056   -5.6291 C   0  0  0  0  0  0  0  0  0  0  0  0
  -22.8762  -39.5159   -6.1637 C   0  0  0  0  0  0  0  0  0  0  0  0
  -22.5740  -40.8559   -6.7920 C   0  0  0  0  0  0  0  0  0  0  0  0
  -22.2346  -41.8687   -5.7203 C   0  0  0  0  0  0  0  0  0  0  0  0
  -21.8465  -43.2098   -6.3196 C   0  0  0  0  0  0  0  0  0  0  0  0
  -20.3752  -43.4920   -6.1043 C   0  0  0  0  0  0  0  0  0  0  0  0
  -19.8278  -44.4163   -7.1255 C   0  0  0  0  0  0  0  0  0  0  0  0
  -20.6144  -45.3554   -7.4963 O   0  0  0  0  0  0  0  0  0  0  0  0
  -18.5655  -44.3815   -7.7233 N   0  0  0  0  0  0  0  0  0  0  0  0
  -17.7935  -45.6036   -7.8888 C   0  0  0  0  0  0  0  0  0  0  0  0
  -17.9026  -43.1705   -8.2317 C   0  0  1  0  0  0  0  0  0  0  0  0
  -17.3874  -43.4013   -9.6456 C   0  0  0  0  0  0  0  0  0  0  0  0
  -18.8650  -42.0392   -8.2958 C   0  0  0  0  0  0  0  0  0  0  0  0
  -19.9459  -42.3246   -8.9344 O   0  0  0  0  0  0  0  0  0  0  0  0
  -18.7282  -40.7681   -7.7638 N   0  0  0  0  0  0  0  0  0  0  0  0
  -17.7646  -39.7281   -8.0316 C   0  0  1  0  0  0  0  0  0  0  0  0
  -18.4920  -38.3665   -7.9445 C   0  0  0  0  0  0  0  0  0  0  0  0
  -16.6286  -39.7560   -7.0134 C   0  0  2  0  0  0  0  0  0  0  0  0
  -16.1569  -38.4878   -6.7359 O   0  0  0  0  0  0  0  0  0  0  0  0
  -15.4884  -40.6031   -7.4696 C   0  0  0  0  0  0  0  0  0  0  0  0
  -14.4663  -40.6971   -6.5280 O   0  0  0  0  0  0  0  0  0  0  0  0
  2  1  1  6
  2  3  1  0
  3  4  1  0
  4  5  1  0
  5  6  1  0
  6  7  1  0
  7  8  1  0
  8  9  1  0
  9 10  1  0
 10 11  1  0
 11 12  2  0
 11 13  1  0
 13 14  1  0
 13 15  1  0
 15 16  1  6
 15 17  1  0
 17 18  2  0
 17 19  1  0
 19 20  1  0
 20 21  1  1
 20 22  1  0
 22 23  1  6
 22 24  1  0
 24 25  1  0
 21  2  1  0
M  END
$$$$
