
     RDKit          3D

 25 25  0  0  0  0  0  0  0  0999 V2000
  -19.7534  -37.4811  -10.2880 C   0  0  0  0  0  0  0  0  0  0  0  0
  -19.7008  -38.0708   -8.8612 C   0  0  2  0  0  0  0  0  0  0  0  0
  -20.7458  -37.4179   -8.0746 C   0  0  0  0  0  0  0  0  0  0  0  0
  -20.6448  -37.3086   -6.6163 C   0  0  0  0  0  0  0  0  0  0  0  0
  -21.2113  -38.4128   -5.7860 C   0  0  0  0  0  0  0  0  0  0  0  0
  -22.5346  -38.9430   -6.1967 C   0  0  0  0  0  0  0  0  0  0  0  0
  -22.3764  -40.2878   -6.8661 C   0  0  0  0  0  0  0  0  0  0  0  0
  -21.9893  -41.3352   -5.8450 C   0  0  0  0  0  0  0  0  0  0  0  0
  -21.7427  -42.6864   -6.4944 C   0  0  0  0  0  0  0  0  0  0  0  0
  -20.2761  -43.0552   -6.4338 C   0  0  0  0  0  0  0  0  0  0  0  0
  -19.8899  -43.9927   -7.5149 C   0  0  0  0  0  0  0  0  0  0  0  0
  -20.7634  -44.8796   -7.8126 O   0  0  0  0  0  0  0  0  0  0  0  0
  -18.6950  -44.0202   -8.2384 N   0  0  0  0  0  0  0  0  0  0  0  0
  -18.0162  -45.2813   -8.4943 C   0  0  0  0  0  0  0  0  0  0  0  0
  -18.0180  -42.8408   -8.7998 C   0  0  1  0  0  0  0  0  0  0  0  0
  -17.6634  -43.0779  -10.2612 C   0  0  0  0  0  0  0  0  0  0  0  0
  -18.9145  -41.6558   -8.7536 C   0  0  0  0  0  0  0  0  0  0  0  0
  -20.0694  -41.8691   -9.2810 O   0  0  0  0  0  0  0  0  0  0  0  0
  -18.6506  -40.4032   -8.2256 N   0  0  0  0  0  0  0  0  0  0  0  0
  -17.6604  -39.4155   -8.5802 C   0  0  1  0  0  0  0  0  0  0  0  0
  -18.2947  -38.0163   -8.4053 C   0  0  0  0  0  0  0  0  0  0  0  0
  -16.4303  -39.5241   -7.6840 C   0  0  2  0  0  0  0  0  0  0  0  0
  -15.3111  -38.9769   -8.2802 O   0  0  0  0  0  0  0  0  0  0  0  0
  -16.1328  -40.9374   -7.3103 C   0  0  0  0  0  0  0  0  0  0  0  0
  -14.9184  -41.3930   -7.8182 O   0  0  0  0  0  0  0  0  0  0  0  0
  2  1  1  6
  2  3  1  0
  3  4  1  0
  4  5  1  0
  5  6  1  0
  6  7  1  0
  7  8  1  0
  8  9  1  0
  9 10  1  0
 10 11  1  0
 11 12  2  0
 11 13  1  0
 13 14  1  0
 13 15  1  0
 15 16  1  6
 15 17  1  0
 17 18  2  0
 17 19  1  0
 19 20  1  0
 20 21  1  1
 20 22  1  0
 22 23  1  6
 22 24  1  0
 24 25  1  0
 21  2  1  0
M  END
$$$$
