
     RDKit          3D

 25 25  0  0  0  0  0  0  0  0999 V2000
  -20.1013  -38.1643  -10.1498 C   0  0  0  0  0  0  0  0  0  0  0  0
  -19.9042  -38.5647   -8.6709 C   0  0  2  0  0  0  0  0  0  0  0  0
  -20.8754  -37.8144   -7.8769 C   0  0  0  0  0  0  0  0  0  0  0  0
  -20.6351  -37.5177   -6.4616 C   0  0  0  0  0  0  0  0  0  0  0  0
  -21.1059  -38.5046   -5.4449 C   0  0  0  0  0  0  0  0  0  0  0  0
  -22.4566  -39.0818   -5.6530 C   0  0  0  0  0  0  0  0  0  0  0  0
  -22.3486  -40.5021   -6.1559 C   0  0  0  0  0  0  0  0  0  0  0  0
  -21.8525  -41.4092   -5.0511 C   0  0  0  0  0  0  0  0  0  0  0  0
  -21.6546  -42.8333   -5.5419 C   0  0  0  0  0  0  0  0  0  0  0  0
  -20.1849  -43.1929   -5.5776 C   0  0  0  0  0  0  0  0  0  0  0  0
  -19.8945  -44.2628   -6.5614 C   0  0  0  0  0  0  0  0  0  0  0  0
  -20.7825  -45.1796   -6.6560 O   0  0  0  0  0  0  0  0  0  0  0  0
  -18.7750  -44.3849   -7.3884 N   0  0  0  0  0  0  0  0  0  0  0  0
  -18.1098  -45.6694   -7.5447 C   0  0  0  0  0  0  0  0  0  0  0  0
  -18.1690  -43.2888   -8.1602 C   0  0  1  0  0  0  0  0  0  0  0  0
  -17.9548  -43.7133   -9.6065 C   0  0  0  0  0  0  0  0  0  0  0  0
  -19.0702  -42.1067   -8.1798 C   0  0  0  0  0  0  0  0  0  0  0  0
  -20.2683  -42.3850   -8.5603 O   0  0  0  0  0  0  0  0  0  0  0  0
  -18.7708  -40.7967   -7.8457 N   0  0  0  0  0  0  0  0  0  0  0  0
  -17.8309  -39.8643   -8.4193 C   0  0  1  0  0  0  0  0  0  0  0  0
  -18.4612  -38.4534   -8.3651 C   0  0  0  0  0  0  0  0  0  0  0  0
  -16.5187  -39.8576   -7.6408 C   0  0  2  0  0  0  0  0  0  0  0  0
  -15.8031  -38.6951   -7.8510 O   0  0  0  0  0  0  0  0  0  0  0  0
  -15.6548  -41.0228   -7.9895 C   0  0  0  0  0  0  0  0  0  0  0  0
  -14.3844  -40.9503   -7.4230 O   0  0  0  0  0  0  0  0  0  0  0  0
  2  1  1  6
  2  3  1  0
  3  4  1  0
  4  5  1  0
  5  6  1  0
  6  7  1  0
  7  8  1  0
  8  9  1  0
  9 10  1  0
 10 11  1  0
 11 12  2  0
 11 13  1  0
 13 14  1  0
 13 15  1  0
 15 16  1  6
 15 17  1  0
 17 18  2  0
 17 19  1  0
 19 20  1  0
 20 21  1  1
 20 22  1  0
 22 23  1  6
 22 24  1  0
 24 25  1  0
 21  2  1  0
M  END
$$$$
