
     RDKit          3D

 25 25  0  0  0  0  0  0  0  0999 V2000
  -20.0672  -37.8597   -9.7208 C   0  0  0  0  0  0  0  0  0  0  0  0
  -19.9173  -38.4136   -8.2866 C   0  0  2  0  0  0  0  0  0  0  0  0
  -21.0188  -37.8780   -7.4886 C   0  0  0  0  0  0  0  0  0  0  0  0
  -20.9048  -37.7318   -6.0346 C   0  0  0  0  0  0  0  0  0  0  0  0
  -21.3180  -38.8815   -5.1762 C   0  0  0  0  0  0  0  0  0  0  0  0
  -22.5748  -39.5746   -5.5515 C   0  0  0  0  0  0  0  0  0  0  0  0
  -22.2674  -40.9021   -6.2036 C   0  0  0  0  0  0  0  0  0  0  0  0
  -21.7375  -41.8770   -5.1749 C   0  0  0  0  0  0  0  0  0  0  0  0
  -21.3414  -43.1998   -5.8086 C   0  0  0  0  0  0  0  0  0  0  0  0
  -19.8400  -43.3877   -5.7726 C   0  0  0  0  0  0  0  0  0  0  0  0
  -19.3634  -44.2906   -6.8470 C   0  0  0  0  0  0  0  0  0  0  0  0
  -20.1285  -45.2815   -7.1134 O   0  0  0  0  0  0  0  0  0  0  0  0
  -18.1876  -44.1863   -7.5944 N   0  0  0  0  0  0  0  0  0  0  0  0
  -17.3660  -45.3606   -7.8451 C   0  0  0  0  0  0  0  0  0  0  0  0
  -17.6688  -42.9439   -8.1874 C   0  0  1  0  0  0  0  0  0  0  0  0
  -17.3152  -43.1620   -9.6521 C   0  0  0  0  0  0  0  0  0  0  0  0
  -18.7010  -41.8751   -8.1408 C   0  0  0  0  0  0  0  0  0  0  0  0
  -19.8313  -42.2354   -8.6411 O   0  0  0  0  0  0  0  0  0  0  0  0
  -18.5810  -40.5907   -7.6374 N   0  0  0  0  0  0  0  0  0  0  0  0
  -17.7243  -39.4971   -8.0271 C   0  0  1  0  0  0  0  0  0  0  0  0
  -18.5199  -38.1818   -7.8605 C   0  0  0  0  0  0  0  0  0  0  0  0
  -16.4737  -39.4407   -7.1548 C   0  0  2  0  0  0  0  0  0  0  0  0
  -15.7858  -38.2545   -7.3200 O   0  0  0  0  0  0  0  0  0  0  0  0
  -15.5463  -40.5761   -7.4316 C   0  0  0  0  0  0  0  0  0  0  0  0
  -14.2578  -40.1616   -7.7604 O   0  0  0  0  0  0  0  0  0  0  0  0
  2  1  1  6
  2  3  1  0
  3  4  1  0
  4  5  1  0
  5  6  1  0
  6  7  1  0
  7  8  1  0
  8  9  1  0
  9 10  1  0
 10 11  1  0
 11 12  2  0
 11 13  1  0
 13 14  1  0
 13 15  1  0
 15 16  1  6
 15 17  1  0
 17 18  2  0
 17 19  1  0
 19 20  1  0
 20 21  1  1
 20 22  1  0
 22 23  1  6
 22 24  1  0
 24 25  1  0
 21  2  1  0
M  END
$$$$
