
     RDKit          3D

 25 25  0  0  0  0  0  0  0  0999 V2000
  -19.3205  -38.2315  -10.6549 C   0  0  0  0  0  0  0  0  0  0  0  0
  -19.3316  -38.4294   -9.1229 C   0  0  2  0  0  0  0  0  0  0  0  0
  -20.3396  -37.5276   -8.5683 C   0  0  0  0  0  0  0  0  0  0  0  0
  -20.2535  -37.0472   -7.1861 C   0  0  0  0  0  0  0  0  0  0  0  0
  -20.9093  -37.8568   -6.1165 C   0  0  0  0  0  0  0  0  0  0  0  0
  -22.2604  -38.3897   -6.4189 C   0  0  0  0  0  0  0  0  0  0  0  0
  -22.1875  -39.8702   -6.7099 C   0  0  0  0  0  0  0  0  0  0  0  0
  -21.8911  -40.6365   -5.4394 C   0  0  0  0  0  0  0  0  0  0  0  0
  -21.7309  -42.1235   -5.7064 C   0  0  0  0  0  0  0  0  0  0  0  0
  -20.2951  -42.5571   -5.5033 C   0  0  0  0  0  0  0  0  0  0  0  0
  -19.9598  -43.7677   -6.2900 C   0  0  0  0  0  0  0  0  0  0  0  0
  -20.8892  -44.6435   -6.3757 O   0  0  0  0  0  0  0  0  0  0  0  0
  -18.7589  -44.0603   -6.9413 N   0  0  0  0  0  0  0  0  0  0  0  0
  -18.1672  -45.3854   -6.8379 C   0  0  0  0  0  0  0  0  0  0  0  0
  -17.9917  -43.1151   -7.7673 C   0  0  1  0  0  0  0  0  0  0  0  0
  -17.6324  -43.7487   -9.1042 C   0  0  0  0  0  0  0  0  0  0  0  0
  -18.8026  -41.9041   -8.0607 C   0  0  0  0  0  0  0  0  0  0  0  0
  -19.9616  -42.1733   -8.5526 O   0  0  0  0  0  0  0  0  0  0  0  0
  -18.4589  -40.5767   -7.8681 N   0  0  0  0  0  0  0  0  0  0  0  0
  -17.3960  -39.7820   -8.4342 C   0  0  1  0  0  0  0  0  0  0  0  0
  -17.9323  -38.3480   -8.6504 C   0  0  0  0  0  0  0  0  0  0  0  0
  -16.1905  -39.7311   -7.5003 C   0  0  2  0  0  0  0  0  0  0  0  0
  -15.0582  -39.2774   -8.1481 O   0  0  0  0  0  0  0  0  0  0  0  0
  -15.8958  -41.0617   -6.8934 C   0  0  0  0  0  0  0  0  0  0  0  0
  -14.5542  -41.2234   -6.5556 O   0  0  0  0  0  0  0  0  0  0  0  0
  2  1  1  6
  2  3  1  0
  3  4  1  0
  4  5  1  0
  5  6  1  0
  6  7  1  0
  7  8  1  0
  8  9  1  0
  9 10  1  0
 10 11  1  0
 11 12  2  0
 11 13  1  0
 13 14  1  0
 13 15  1  0
 15 16  1  6
 15 17  1  0
 17 18  2  0
 17 19  1  0
 19 20  1  0
 20 21  1  1
 20 22  1  0
 22 23  1  6
 22 24  1  0
 24 25  1  0
 21  2  1  0
M  END
$$$$
