
     RDKit          3D

 25 25  0  0  0  0  0  0  0  0999 V2000
  -20.7151  -38.2768   -9.7234 C   0  0  0  0  0  0  0  0  0  0  0  0
  -20.5665  -38.8919   -8.3142 C   0  0  2  0  0  0  0  0  0  0  0  0
  -21.7537  -38.5247   -7.5444 C   0  0  0  0  0  0  0  0  0  0  0  0
  -21.7191  -38.4499   -6.0809 C   0  0  0  0  0  0  0  0  0  0  0  0
  -22.0391  -39.6845   -5.3045 C   0  0  0  0  0  0  0  0  0  0  0  0
  -23.1943  -40.4869   -5.7762 C   0  0  0  0  0  0  0  0  0  0  0  0
  -22.7143  -41.7341   -6.4803 C   0  0  0  0  0  0  0  0  0  0  0  0
  -22.1245  -42.7030   -5.4789 C   0  0  0  0  0  0  0  0  0  0  0  0
  -21.5577  -43.9370   -6.1601 C   0  0  0  0  0  0  0  0  0  0  0  0
  -20.0477  -43.9633   -6.0605 C   0  0  0  0  0  0  0  0  0  0  0  0
  -19.4284  -44.7469   -7.1557 C   0  0  0  0  0  0  0  0  0  0  0  0
  -20.0672  -45.7979   -7.5101 O   0  0  0  0  0  0  0  0  0  0  0  0
  -18.2404  -44.4738   -7.8383 N   0  0  0  0  0  0  0  0  0  0  0  0
  -17.2840  -45.5363   -8.1090 C   0  0  0  0  0  0  0  0  0  0  0  0
  -17.8372  -43.1509   -8.3400 C   0  0  1  0  0  0  0  0  0  0  0  0
  -17.3991  -43.2459   -9.7950 C   0  0  0  0  0  0  0  0  0  0  0  0
  -18.9823  -42.2043   -8.2886 C   0  0  0  0  0  0  0  0  0  0  0  0
  -20.0432  -42.6557   -8.8616 O   0  0  0  0  0  0  0  0  0  0  0  0
  -19.0268  -40.9452   -7.7141 N   0  0  0  0  0  0  0  0  0  0  0  0
  -18.2803  -39.7450   -8.0043 C   0  0  1  0  0  0  0  0  0  0  0  0
  -19.2229  -38.5350   -7.8089 C   0  0  0  0  0  0  0  0  0  0  0  0
  -17.0823  -39.6035   -7.0701 C   0  0  2  0  0  0  0  0  0  0  0  0
  -16.6070  -38.3070   -7.0378 O   0  0  0  0  0  0  0  0  0  0  0  0
  -15.9645  -40.5152   -7.4510 C   0  0  0  0  0  0  0  0  0  0  0  0
  -15.2264  -40.0510   -8.5372 O   0  0  0  0  0  0  0  0  0  0  0  0
  2  1  1  6
  2  3  1  0
  3  4  1  0
  4  5  1  0
  5  6  1  0
  6  7  1  0
  7  8  1  0
  8  9  1  0
  9 10  1  0
 10 11  1  0
 11 12  2  0
 11 13  1  0
 13 14  1  0
 13 15  1  0
 15 16  1  6
 15 17  1  0
 17 18  2  0
 17 19  1  0
 19 20  1  0
 20 21  1  1
 20 22  1  0
 22 23  1  6
 22 24  1  0
 24 25  1  0
 21  2  1  0
M  END
$$$$
