
     RDKit          3D

 25 25  0  0  0  0  0  0  0  0999 V2000
  -16.6745  -35.5192   -9.0965 C   0  0  0  0  0  0  0  0  0  0  0  0
  -16.0319  -36.2728  -10.2820 C   0  0  2  0  0  0  0  0  0  0  0  0
  -15.1936  -35.3207  -11.0085 C   0  0  0  0  0  0  0  0  0  0  0  0
  -14.8874  -35.5060  -12.4300 C   0  0  0  0  0  0  0  0  0  0  0  0
  -13.6753  -36.2991  -12.7923 C   0  0  0  0  0  0  0  0  0  0  0  0
  -12.4458  -36.0323  -12.0062 C   0  0  0  0  0  0  0  0  0  0  0  0
  -12.1951  -37.1549  -11.0270 C   0  0  0  0  0  0  0  0  0  0  0  0
  -11.7588  -38.4017  -11.7650 C   0  0  0  0  0  0  0  0  0  0  0  0
  -11.5741  -39.5765  -10.8197 C   0  0  0  0  0  0  0  0  0  0  0  0
  -12.6386  -40.6275  -11.0499 C   0  0  0  0  0  0  0  0  0  0  0  0
  -12.8829  -41.4504   -9.8416 C   0  0  0  0  0  0  0  0  0  0  0  0
  -11.8451  -41.7289   -9.1461 O   0  0  0  0  0  0  0  0  0  0  0  0
  -14.1020  -41.9522   -9.3793 N   0  0  0  0  0  0  0  0  0  0  0  0
  -14.2047  -43.3259   -8.9110 C   0  0  0  0  0  0  0  0  0  0  0  0
  -15.3597  -41.1917   -9.3120 C   0  0  1  0  0  0  0  0  0  0  0  0
  -15.9973  -41.3408   -7.9376 C   0  0  0  0  0  0  0  0  0  0  0  0
  -15.1025  -39.7424   -9.5204 C   0  0  0  0  0  0  0  0  0  0  0  0
  -14.1891  -39.2700   -8.7457 O   0  0  0  0  0  0  0  0  0  0  0  0
  -15.7135  -38.8855  -10.4203 N   0  0  0  0  0  0  0  0  0  0  0  0
  -17.0907  -38.4764  -10.5527 C   0  0  1  0  0  0  0  0  0  0  0  0
  -17.1105  -36.9941  -10.9921 C   0  0  0  0  0  0  0  0  0  0  0  0
  -17.8163  -39.3189  -11.5976 C   0  0  2  0  0  0  0  0  0  0  0  0
  -19.0535  -38.7919  -11.9129 O   0  0  0  0  0  0  0  0  0  0  0  0
  -17.9955  -40.7313  -11.1519 C   0  0  0  0  0  0  0  0  0  0  0  0
  -19.0515  -40.8926  -10.2580 O   0  0  0  0  0  0  0  0  0  0  0  0
  2  1  1  1
  2  3  1  0
  3  4  1  0
  4  5  1  0
  5  6  1  0
  6  7  1  0
  7  8  1  0
  8  9  1  0
  9 10  1  0
 10 11  1  0
 11 12  2  0
 11 13  1  0
 13 14  1  0
 13 15  1  0
 15 16  1  1
 15 17  1  0
 17 18  2  0
 17 19  1  0
 19 20  1  0
 20 21  1  6
 20 22  1  0
 22 23  1  1
 22 24  1  0
 24 25  1  0
 21  2  1  0
M  END
$$$$
