
     RDKit          3D

 25 25  0  0  0  0  0  0  0  0999 V2000
  -18.7723  -37.7490  -11.3011 C   0  0  0  0  0  0  0  0  0  0  0  0
  -18.9537  -38.1553   -9.8218 C   0  0  2  0  0  0  0  0  0  0  0  0
  -20.1296  -37.4526   -9.3117 C   0  0  0  0  0  0  0  0  0  0  0  0
  -20.2816  -37.1600   -7.8834 C   0  0  0  0  0  0  0  0  0  0  0  0
  -20.9613  -38.1750   -7.0246 C   0  0  0  0  0  0  0  0  0  0  0  0
  -22.1848  -38.8043   -7.5793 C   0  0  0  0  0  0  0  0  0  0  0  0
  -21.8896  -40.2142   -8.0343 C   0  0  0  0  0  0  0  0  0  0  0  0
  -21.6636  -41.1110   -6.8368 C   0  0  0  0  0  0  0  0  0  0  0  0
  -21.2847  -42.5212   -7.2565 C   0  0  0  0  0  0  0  0  0  0  0  0
  -19.8435  -42.8206   -6.9045 C   0  0  0  0  0  0  0  0  0  0  0  0
  -19.2609  -43.8683   -7.7761 C   0  0  0  0  0  0  0  0  0  0  0  0
  -20.0541  -44.8194   -8.0993 O   0  0  0  0  0  0  0  0  0  0  0  0
  -17.9596  -43.9371   -8.2799 N   0  0  0  0  0  0  0  0  0  0  0  0
  -17.2238  -45.1920   -8.2544 C   0  0  0  0  0  0  0  0  0  0  0  0
  -17.2184  -42.8100   -8.8670 C   0  0  1  0  0  0  0  0  0  0  0  0
  -16.6147  -43.2114  -10.2058 C   0  0  0  0  0  0  0  0  0  0  0  0
  -18.1312  -41.6652   -9.1242 C   0  0  0  0  0  0  0  0  0  0  0  0
  -19.1748  -41.9881   -9.8056 O   0  0  0  0  0  0  0  0  0  0  0  0
  -17.9848  -40.3473   -8.7250 N   0  0  0  0  0  0  0  0  0  0  0  0
  -16.9669  -39.3722   -9.0329 C   0  0  1  0  0  0  0  0  0  0  0  0
  -17.6475  -37.9886   -9.1480 C   0  0  0  0  0  0  0  0  0  0  0  0
  -15.9065  -39.3199   -7.9371 C   0  0  2  0  0  0  0  0  0  0  0  0
  -15.0509  -40.4024   -7.9988 O   0  0  0  0  0  0  0  0  0  0  0  0
  -16.5115  -39.2632   -6.5746 C   0  0  0  0  0  0  0  0  0  0  0  0
  -15.9164  -40.1446   -5.6752 O   0  0  0  0  0  0  0  0  0  0  0  0
  2  1  1  6
  2  3  1  0
  3  4  1  0
  4  5  1  0
  5  6  1  0
  6  7  1  0
  7  8  1  0
  8  9  1  0
  9 10  1  0
 10 11  1  0
 11 12  2  0
 11 13  1  0
 13 14  1  0
 13 15  1  0
 15 16  1  6
 15 17  1  0
 17 18  2  0
 17 19  1  0
 19 20  1  0
 20 21  1  1
 20 22  1  0
 22 23  1  1
 22 24  1  0
 24 25  1  0
 21  2  1  0
M  END
$$$$
