
     RDKit          3D

 25 25  0  0  0  0  0  0  0  0999 V2000
  -19.4426  -38.6774  -11.0301 C   0  0  0  0  0  0  0  0  0  0  0  0
  -19.4401  -38.7222   -9.4860 C   0  0  2  0  0  0  0  0  0  0  0  0
  -20.4376  -37.7634   -9.0145 C   0  0  0  0  0  0  0  0  0  0  0  0
  -20.3355  -37.1488   -7.6876 C   0  0  0  0  0  0  0  0  0  0  0  0
  -20.9854  -37.8441   -6.5371 C   0  0  0  0  0  0  0  0  0  0  0  0
  -22.3423  -38.3956   -6.7729 C   0  0  0  0  0  0  0  0  0  0  0  0
  -22.2805  -39.8980   -6.9162 C   0  0  0  0  0  0  0  0  0  0  0  0
  -21.9761  -40.5365   -5.5786 C   0  0  0  0  0  0  0  0  0  0  0  0
  -21.8268  -42.0436   -5.6982 C   0  0  0  0  0  0  0  0  0  0  0  0
  -20.3915  -42.4642   -5.4661 C   0  0  0  0  0  0  0  0  0  0  0  0
  -20.0705  -43.7491   -6.1317 C   0  0  0  0  0  0  0  0  0  0  0  0
  -21.0056  -44.6230   -6.1217 O   0  0  0  0  0  0  0  0  0  0  0  0
  -18.8777  -44.1127   -6.7617 N   0  0  0  0  0  0  0  0  0  0  0  0
  -18.2924  -45.4248   -6.5325 C   0  0  0  0  0  0  0  0  0  0  0  0
  -18.1131  -43.2589   -7.6843 C   0  0  1  0  0  0  0  0  0  0  0  0
  -17.7704  -44.0243   -8.9549 C   0  0  0  0  0  0  0  0  0  0  0  0
  -18.9201  -42.0779   -8.0890 C   0  0  0  0  0  0  0  0  0  0  0  0
  -20.0853  -42.3870   -8.5412 O   0  0  0  0  0  0  0  0  0  0  0  0
  -18.5672  -40.7401   -8.0322 N   0  0  0  0  0  0  0  0  0  0  0  0
  -17.5054  -40.0124   -8.6840 C   0  0  1  0  0  0  0  0  0  0  0  0
  -18.0358  -38.6035   -9.0366 C   0  0  0  0  0  0  0  0  0  0  0  0
  -16.2907  -39.8770   -7.7706 C   0  0  2  0  0  0  0  0  0  0  0  0
  -15.1127  -40.1441   -8.4404 O   0  0  0  0  0  0  0  0  0  0  0  0
  -16.3812  -40.7739   -6.5819 C   0  0  0  0  0  0  0  0  0  0  0  0
  -15.1536  -40.9776   -5.9561 O   0  0  0  0  0  0  0  0  0  0  0  0
  2  1  1  6
  2  3  1  0
  3  4  1  0
  4  5  1  0
  5  6  1  0
  6  7  1  0
  7  8  1  0
  8  9  1  0
  9 10  1  0
 10 11  1  0
 11 12  2  0
 11 13  1  0
 13 14  1  0
 13 15  1  0
 15 16  1  6
 15 17  1  0
 17 18  2  0
 17 19  1  0
 19 20  1  0
 20 21  1  1
 20 22  1  0
 22 23  1  6
 22 24  1  0
 24 25  1  0
 21  2  1  0
M  END
$$$$
