
     RDKit          3D

 40 43  0  0  0  0  0  0  0  0999 V2000
  -14.2972  -41.7121   -6.7067 C   0  0  0  0  0  0  0  0  0  0  0  0
  -15.6465  -41.8412   -7.3257 C   0  0  0  0  0  0  0  0  0  0  0  0
  -15.8636  -41.5064   -8.6336 C   0  0  0  0  0  0  0  0  0  0  0  0
  -17.1216  -41.6007   -9.2993 C   0  0  0  0  0  0  0  0  0  0  0  0
  -18.1707  -42.0621   -8.5591 C   0  0  0  0  0  0  0  0  0  0  0  0
  -17.9724  -42.4085   -7.2228 C   0  0  0  0  0  0  0  0  0  0  0  0
  -16.7095  -42.2769   -6.6785 N   0  0  0  0  0  0  0  0  0  0  0  0
  -18.8425  -42.8840   -6.2911 O   0  0  0  0  0  0  0  0  0  0  0  0
  -19.8984  -42.5799   -5.5142 C   0  0  0  0  0  0  0  0  0  0  0  0
  -19.9552  -41.1199   -5.1361 C   0  0  0  0  0  0  0  0  0  0  0  0
  -21.3265  -40.5136   -5.4582 C   0  0  0  0  0  0  0  0  0  0  0  0
  -21.3853  -39.0852   -5.0132 C   0  0  0  0  0  0  0  0  0  0  0  0
  -21.1687  -38.1874   -6.0611 O   0  0  0  0  0  0  0  0  0  0  0  0
  -21.1900  -38.2777   -7.4441 C   0  0  0  0  0  0  0  0  0  0  0  0
  -20.4493  -39.1083   -8.2643 C   0  0  0  0  0  0  0  0  0  0  0  0
  -20.6564  -39.0113   -9.6169 C   0  0  0  0  0  0  0  0  0  0  0  0
  -20.0472  -39.7668  -10.7565 C   0  0  0  0  0  0  0  0  0  0  0  0
  -18.6836  -39.2799  -11.1167 C   0  0  2  0  0  0  0  0  0  0  0  0
  -17.7921  -40.3391  -11.5299 N   0  0  0  0  0  0  0  0  0  0  0  0
  -17.0025  -41.1594  -10.6898 C   0  0  0  0  0  0  0  0  0  0  0  0
  -15.9456  -41.5849  -11.3575 O   0  0  0  0  0  0  0  0  0  0  0  0
  -18.0162  -38.3745  -10.1101 C   0  0  2  0  0  0  0  0  0  0  0  0
  -18.9770  -37.6959   -9.3413 O   0  0  0  0  0  0  0  0  0  0  0  0
  -17.2783  -37.2739  -10.8486 C   0  0  0  0  0  0  0  0  0  0  0  0
  -17.3000  -37.4048  -12.2781 N   0  0  0  0  0  0  0  0  0  0  0  0
  -16.0836  -38.0101  -12.7908 C   0  0  0  0  0  0  0  0  0  0  0  0
  -16.0162  -39.4893  -12.6296 C   0  0  0  0  0  0  0  0  0  0  0  0
  -16.0343  -37.6915  -14.2725 C   0  0  0  0  0  0  0  0  0  0  0  0
  -14.8891  -37.3154  -12.1378 C   0  0  0  0  0  0  0  0  0  0  0  0
  -14.8797  -35.9929  -11.8472 C   0  0  0  0  0  0  0  0  0  0  0  0
  -13.7401  -35.5040  -11.2597 C   0  0  0  0  0  0  0  0  0  0  0  0
  -12.7571  -36.8835  -11.1433 S   0  0  0  0  0  0  0  0  0  0  0  0
  -13.7887  -38.0091  -11.8232 N   0  0  0  0  0  0  0  0  0  0  0  0
  -13.4741  -34.0766  -10.8389 C   0  0  0  0  0  0  0  0  0  0  0  0
  -14.7769  -33.4722  -10.3707 C   0  0  0  0  0  0  0  0  0  0  0  0
  -12.4824  -34.1315   -9.7081 C   0  0  0  0  0  0  0  0  0  0  0  0
  -12.9366  -33.3379  -12.0281 C   0  0  0  0  0  0  0  0  0  0  0  0
  -21.5968  -38.0836  -10.1210 C   0  0  0  0  0  0  0  0  0  0  0  0
  -22.3430  -37.2466   -9.3338 C   0  0  0  0  0  0  0  0  0  0  0  0
  -22.1136  -37.3697   -7.9870 C   0  0  0  0  0  0  0  0  0  0  0  0
  1  2  1  0
  2  3  2  0
  3  4  1  0
  4  5  2  0
  5  6  1  0
  6  7  2  0
  6  8  1  0
  8  9  1  0
  9 10  1  0
 10 11  1  0
 11 12  1  0
 12 13  1  0
 13 14  1  0
 14 15  2  0
 15 16  1  0
 16 17  1  0
 18 17  1  1
 18 19  1  0
 19 20  1  0
 20 21  2  0
 18 22  1  0
 22 23  1  1
 22 24  1  0
 24 25  1  0
 25 26  1  0
 26 27  1  0
 26 28  1  0
 26 29  1  0
 29 30  1  0
 30 31  2  0
 31 32  1  0
 32 33  1  0
 31 34  1  0
 34 35  1  0
 34 36  1  0
 34 37  1  0
 16 38  2  0
 38 39  1  0
 39 40  2  0
  7  2  1  0
 20  4  1  0
 33 29  2  0
 40 14  1  0
M  END
$$$$
