
     RDKit          3D

 40 43  0  0  0  0  0  0  0  0999 V2000
  -17.1818  -45.2327   -7.2425 C   0  0  0  0  0  0  0  0  0  0  0  0
  -18.3549  -44.5098   -7.8099 C   0  0  0  0  0  0  0  0  0  0  0  0
  -18.2323  -43.7116   -8.9133 C   0  0  0  0  0  0  0  0  0  0  0  0
  -19.3031  -42.9877   -9.5165 C   0  0  0  0  0  0  0  0  0  0  0  0
  -20.5306  -43.1162   -8.9349 C   0  0  0  0  0  0  0  0  0  0  0  0
  -20.6786  -43.9244   -7.8080 C   0  0  0  0  0  0  0  0  0  0  0  0
  -19.5714  -44.5809   -7.3061 N   0  0  0  0  0  0  0  0  0  0  0  0
  -21.7781  -44.2099   -7.0592 O   0  0  0  0  0  0  0  0  0  0  0  0
  -22.6702  -43.7166   -6.1807 C   0  0  0  0  0  0  0  0  0  0  0  0
  -22.1078  -42.6094   -5.3232 C   0  0  0  0  0  0  0  0  0  0  0  0
  -23.0049  -41.3661   -5.3590 C   0  0  0  0  0  0  0  0  0  0  0  0
  -22.4668  -40.3055   -4.4494 C   0  0  0  0  0  0  0  0  0  0  0  0
  -21.7391  -39.3297   -5.1346 O   0  0  0  0  0  0  0  0  0  0  0  0
  -21.6263  -38.9488   -6.4626 C   0  0  0  0  0  0  0  0  0  0  0  0
  -21.2452  -39.7146   -7.5487 C   0  0  0  0  0  0  0  0  0  0  0  0
  -21.2157  -39.1025   -8.7759 C   0  0  0  0  0  0  0  0  0  0  0  0
  -20.8770  -39.6422  -10.1303 C   0  0  0  0  0  0  0  0  0  0  0  0
  -19.4075  -39.7618  -10.3601 C   0  0  2  0  0  0  0  0  0  0  0  0
  -19.0472  -40.9173  -11.1489 N   0  0  0  0  0  0  0  0  0  0  0  0
  -18.8252  -42.2320  -10.6754 C   0  0  0  0  0  0  0  0  0  0  0  0
  -18.0007  -42.8609  -11.4930 O   0  0  0  0  0  0  0  0  0  0  0  0
  -18.5343  -39.6517   -9.1337 C   0  0  2  0  0  0  0  0  0  0  0  0
  -18.9858  -38.6179   -8.2959 O   0  0  0  0  0  0  0  0  0  0  0  0
  -17.1438  -39.2156   -9.5550 C   0  0  0  0  0  0  0  0  0  0  0  0
  -16.8512  -39.4358  -10.9432 N   0  0  0  0  0  0  0  0  0  0  0  0
  -15.5828  -40.1166  -11.1339 C   0  0  0  0  0  0  0  0  0  0  0  0
  -15.4813  -41.4341  -10.4465 C   0  0  0  0  0  0  0  0  0  0  0  0
  -15.4365  -40.3471  -12.6255 C   0  0  0  0  0  0  0  0  0  0  0  0
  -14.4607  -39.1698  -10.7095 C   0  0  0  0  0  0  0  0  0  0  0  0
  -14.0642  -38.1183  -11.4650 C   0  0  0  0  0  0  0  0  0  0  0  0
  -13.0455  -37.3510  -10.9587 C   0  0  0  0  0  0  0  0  0  0  0  0
  -12.6969  -38.1171   -9.4840 S   0  0  0  0  0  0  0  0  0  0  0  0
  -13.8200  -39.3530   -9.5489 N   0  0  0  0  0  0  0  0  0  0  0  0
  -12.4210  -36.1316  -11.5978 C   0  0  0  0  0  0  0  0  0  0  0  0
  -10.9455  -36.3984  -11.7807 C   0  0  0  0  0  0  0  0  0  0  0  0
  -13.0921  -35.9450  -12.9320 C   0  0  0  0  0  0  0  0  0  0  0  0
  -12.6460  -34.9652  -10.6826 C   0  0  0  0  0  0  0  0  0  0  0  0
  -21.5643  -37.7370   -8.8909 C   0  0  0  0  0  0  0  0  0  0  0  0
  -21.9432  -36.9528   -7.8334 C   0  0  0  0  0  0  0  0  0  0  0  0
  -21.9641  -37.5950   -6.6215 C   0  0  0  0  0  0  0  0  0  0  0  0
  1  2  1  0
  2  3  2  0
  3  4  1  0
  4  5  2  0
  5  6  1  0
  6  7  2  0
  6  8  1  0
  8  9  1  0
  9 10  1  0
 10 11  1  0
 11 12  1  0
 12 13  1  0
 13 14  1  0
 14 15  2  0
 15 16  1  0
 16 17  1  0
 18 17  1  1
 18 19  1  0
 19 20  1  0
 20 21  2  0
 18 22  1  0
 22 23  1  1
 22 24  1  0
 24 25  1  0
 25 26  1  0
 26 27  1  0
 26 28  1  0
 26 29  1  0
 29 30  1  0
 30 31  2  0
 31 32  1  0
 32 33  1  0
 31 34  1  0
 34 35  1  0
 34 36  1  0
 34 37  1  0
 16 38  2  0
 38 39  1  0
 39 40  2  0
  7  2  1  0
 20  4  1  0
 33 29  2  0
 40 14  1  0
M  END
$$$$
