
     RDKit          3D

 40 43  0  0  0  0  0  0  0  0999 V2000
  -18.0679  -45.8787   -8.6868 C   0  0  0  0  0  0  0  0  0  0  0  0
  -19.0349  -44.7520   -8.8143 C   0  0  0  0  0  0  0  0  0  0  0  0
  -18.6417  -43.5268   -9.2768 C   0  0  0  0  0  0  0  0  0  0  0  0
  -19.5029  -42.3999   -9.4281 C   0  0  0  0  0  0  0  0  0  0  0  0
  -20.8102  -42.5798   -9.0816 C   0  0  0  0  0  0  0  0  0  0  0  0
  -21.2331  -43.8210   -8.6064 C   0  0  0  0  0  0  0  0  0  0  0  0
  -20.3120  -44.8451   -8.4996 N   0  0  0  0  0  0  0  0  0  0  0  0
  -22.4612  -44.2447   -8.2022 O   0  0  0  0  0  0  0  0  0  0  0  0
  -23.4019  -44.1408   -7.2456 C   0  0  0  0  0  0  0  0  0  0  0  0
  -22.8327  -43.8057   -5.8885 C   0  0  0  0  0  0  0  0  0  0  0  0
  -23.5402  -42.5932   -5.2711 C   0  0  0  0  0  0  0  0  0  0  0  0
  -23.0090  -42.3197   -3.8983 C   0  0  0  0  0  0  0  0  0  0  0  0
  -22.0626  -41.2925   -3.8840 O   0  0  0  0  0  0  0  0  0  0  0  0
  -21.7008  -40.2861   -4.7658 C   0  0  0  0  0  0  0  0  0  0  0  0
  -21.2657  -40.4018   -6.0729 C   0  0  0  0  0  0  0  0  0  0  0  0
  -20.9699  -39.2441   -6.7466 C   0  0  0  0  0  0  0  0  0  0  0  0
  -20.5055  -39.0216   -8.1521 C   0  0  0  0  0  0  0  0  0  0  0  0
  -19.0475  -39.2817   -8.3331 C   0  0  2  0  0  0  0  0  0  0  0  0
  -18.7296  -39.8730   -9.6124 N   0  0  0  0  0  0  0  0  0  0  0  0
  -18.7590  -41.2487   -9.9419 C   0  0  0  0  0  0  0  0  0  0  0  0
  -17.9119  -41.4835  -10.9274 O   0  0  0  0  0  0  0  0  0  0  0  0
  -18.3626  -40.0231   -7.2107 C   0  0  2  0  0  0  0  0  0  0  0  0
  -18.7677  -39.5171   -5.9638 O   0  0  0  0  0  0  0  0  0  0  0  0
  -16.8736  -39.7390   -7.2673 C   0  0  0  0  0  0  0  0  0  0  0  0
  -16.5317  -38.5103   -7.9264 N   0  0  0  0  0  0  0  0  0  0  0  0
  -15.7738  -38.7352   -9.1446 C   0  0  0  0  0  0  0  0  0  0  0  0
  -14.8117  -37.6490   -9.4810 C   0  0  0  0  0  0  0  0  0  0  0  0
  -14.9893  -40.0157   -8.9346 C   0  0  0  0  0  0  0  0  0  0  0  0
  -16.7600  -38.9896  -10.2840 C   0  0  0  0  0  0  0  0  0  0  0  0
  -17.4182  -37.9914  -10.9198 C   0  0  0  0  0  0  0  0  0  0  0  0
  -18.2724  -38.3662  -11.9262 C   0  0  0  0  0  0  0  0  0  0  0  0
  -18.1197  -40.0572  -11.9371 S   0  0  0  0  0  0  0  0  0  0  0  0
  -17.0092  -40.2366  -10.7010 N   0  0  0  0  0  0  0  0  0  0  0  0
  -19.1207  -37.4563  -12.7853 C   0  0  0  0  0  0  0  0  0  0  0  0
  -18.8250  -37.7647  -14.2341 C   0  0  0  0  0  0  0  0  0  0  0  0
  -20.5580  -37.7658  -12.4634 C   0  0  0  0  0  0  0  0  0  0  0  0
  -18.7586  -36.0394  -12.4535 C   0  0  0  0  0  0  0  0  0  0  0  0
  -21.1118  -37.9956   -6.0984 C   0  0  0  0  0  0  0  0  0  0  0  0
  -21.5380  -37.8497   -4.8045 C   0  0  0  0  0  0  0  0  0  0  0  0
  -21.8272  -39.0255   -4.1598 C   0  0  0  0  0  0  0  0  0  0  0  0
  1  2  1  0
  2  3  2  0
  3  4  1  0
  4  5  2  0
  5  6  1  0
  6  7  2  0
  6  8  1  0
  8  9  1  0
  9 10  1  0
 10 11  1  0
 11 12  1  0
 12 13  1  0
 13 14  1  0
 14 15  2  0
 15 16  1  0
 16 17  1  0
 18 17  1  1
 18 19  1  0
 19 20  1  0
 20 21  2  0
 18 22  1  0
 22 23  1  1
 22 24  1  0
 24 25  1  0
 25 26  1  0
 26 27  1  0
 26 28  1  0
 26 29  1  0
 29 30  1  0
 30 31  2  0
 31 32  1  0
 32 33  1  0
 31 34  1  0
 34 35  1  0
 34 36  1  0
 34 37  1  0
 16 38  2  0
 38 39  1  0
 39 40  2  0
  7  2  1  0
 20  4  1  0
 33 29  2  0
 40 14  1  0
M  END
$$$$
