
     RDKit          3D

 40 43  0  0  0  0  0  0  0  0999 V2000
  -16.1589  -42.6524   -4.9713 C   0  0  0  0  0  0  0  0  0  0  0  0
  -17.4050  -43.1981   -5.5797 C   0  0  0  0  0  0  0  0  0  0  0  0
  -17.4774  -43.4856   -6.9145 C   0  0  0  0  0  0  0  0  0  0  0  0
  -18.6297  -44.0090   -7.5724 C   0  0  0  0  0  0  0  0  0  0  0  0
  -19.7278  -44.2328   -6.7944 C   0  0  0  0  0  0  0  0  0  0  0  0
  -19.6767  -43.9459   -5.4305 C   0  0  0  0  0  0  0  0  0  0  0  0
  -18.5068  -43.4406   -4.8971 N   0  0  0  0  0  0  0  0  0  0  0  0
  -20.6211  -44.0784   -4.4601 O   0  0  0  0  0  0  0  0  0  0  0  0
  -21.7871  -43.6022   -3.9862 C   0  0  0  0  0  0  0  0  0  0  0  0
  -21.9993  -42.1401   -4.2944 C   0  0  0  0  0  0  0  0  0  0  0  0
  -23.3593  -41.9028   -4.9624 C   0  0  0  0  0  0  0  0  0  0  0  0
  -23.5796  -40.4406   -5.1971 C   0  0  0  0  0  0  0  0  0  0  0  0
  -23.2979  -40.0597   -6.5111 O   0  0  0  0  0  0  0  0  0  0  0  0
  -23.1357  -40.7360   -7.7101 C   0  0  0  0  0  0  0  0  0  0  0  0
  -22.2371  -41.7406   -8.0174 C   0  0  0  0  0  0  0  0  0  0  0  0
  -22.2765  -42.2588   -9.2869 C   0  0  0  0  0  0  0  0  0  0  0  0
  -21.4727  -43.3492   -9.9237 C   0  0  0  0  0  0  0  0  0  0  0  0
  -20.1139  -42.9013  -10.3472 C   0  0  2  0  0  0  0  0  0  0  0  0
  -19.1012  -43.9177  -10.1775 N   0  0  0  0  0  0  0  0  0  0  0  0
  -18.3670  -44.1954   -9.0003 C   0  0  0  0  0  0  0  0  0  0  0  0
  -17.2050  -44.7335   -9.3230 O   0  0  0  0  0  0  0  0  0  0  0  0
  -19.6491  -41.5778   -9.7897 C   0  0  2  0  0  0  0  0  0  0  0  0
  -20.7300  -40.8624   -9.2470 O   0  0  0  0  0  0  0  0  0  0  0  0
  -19.1554  -40.7075  -10.9299 C   0  0  0  0  0  0  0  0  0  0  0  0
  -18.0838  -41.2843  -11.6916 N   0  0  0  0  0  0  0  0  0  0  0  0
  -16.7938  -40.7206  -11.3352 C   0  0  0  0  0  0  0  0  0  0  0  0
  -15.9261  -41.6268  -10.5324 C   0  0  0  0  0  0  0  0  0  0  0  0
  -16.0820  -40.4136  -12.6384 C   0  0  0  0  0  0  0  0  0  0  0  0
  -17.0313  -39.3890  -10.6239 C   0  0  0  0  0  0  0  0  0  0  0  0
  -17.7219  -38.3699  -11.1881 C   0  0  0  0  0  0  0  0  0  0  0  0
  -17.8595  -37.2325  -10.4330 C   0  0  0  0  0  0  0  0  0  0  0  0
  -17.0362  -37.6306   -9.0024 S   0  0  0  0  0  0  0  0  0  0  0  0
  -16.5546  -39.1833   -9.3904 N   0  0  0  0  0  0  0  0  0  0  0  0
  -18.5775  -35.9613  -10.8255 C   0  0  0  0  0  0  0  0  0  0  0  0
  -19.8185  -35.8381   -9.9731 C   0  0  0  0  0  0  0  0  0  0  0  0
  -17.6332  -34.8224  -10.5491 C   0  0  0  0  0  0  0  0  0  0  0  0
  -18.9327  -36.0625  -12.2789 C   0  0  0  0  0  0  0  0  0  0  0  0
  -23.2107  -41.7593  -10.2233 C   0  0  0  0  0  0  0  0  0  0  0  0
  -24.1110  -40.7637   -9.9488 C   0  0  0  0  0  0  0  0  0  0  0  0
  -24.0469  -40.2687   -8.6712 C   0  0  0  0  0  0  0  0  0  0  0  0
  1  2  1  0
  2  3  2  0
  3  4  1  0
  4  5  2  0
  5  6  1  0
  6  7  2  0
  6  8  1  0
  8  9  1  0
  9 10  1  0
 10 11  1  0
 11 12  1  0
 12 13  1  0
 13 14  1  0
 14 15  2  0
 15 16  1  0
 16 17  1  0
 18 17  1  1
 18 19  1  0
 19 20  1  0
 20 21  2  0
 18 22  1  0
 22 23  1  6
 22 24  1  0
 24 25  1  0
 25 26  1  0
 26 27  1  0
 26 28  1  0
 26 29  1  0
 29 30  1  0
 30 31  2  0
 31 32  1  0
 32 33  1  0
 31 34  1  0
 34 35  1  0
 34 36  1  0
 34 37  1  0
 16 38  2  0
 38 39  1  0
 39 40  2  0
  7  2  1  0
 20  4  1  0
 33 29  2  0
 40 14  1  0
M  END
$$$$
