
     RDKit          3D

 40 43  0  0  0  0  0  0  0  0999 V2000
  -17.8293  -46.4684   -6.4740 C   0  0  0  0  0  0  0  0  0  0  0  0
  -18.7866  -45.4661   -7.0212 C   0  0  0  0  0  0  0  0  0  0  0  0
  -18.3901  -44.5297   -7.9353 C   0  0  0  0  0  0  0  0  0  0  0  0
  -19.2422  -43.5385   -8.5061 C   0  0  0  0  0  0  0  0  0  0  0  0
  -20.5439  -43.5437   -8.0974 C   0  0  0  0  0  0  0  0  0  0  0  0
  -20.9700  -44.4893   -7.1649 C   0  0  0  0  0  0  0  0  0  0  0  0
  -20.0579  -45.4046   -6.6764 N   0  0  0  0  0  0  0  0  0  0  0  0
  -22.1940  -44.6972   -6.6082 O   0  0  0  0  0  0  0  0  0  0  0  0
  -23.1134  -44.2076   -5.7563 C   0  0  0  0  0  0  0  0  0  0  0  0
  -22.5128  -43.3751   -4.6500 C   0  0  0  0  0  0  0  0  0  0  0  0
  -23.1944  -42.0048   -4.5506 C   0  0  0  0  0  0  0  0  0  0  0  0
  -22.6319  -41.2219   -3.4050 C   0  0  0  0  0  0  0  0  0  0  0  0
  -21.6746  -40.2893   -3.8111 O   0  0  0  0  0  0  0  0  0  0  0  0
  -21.3204  -39.7188   -5.0237 C   0  0  0  0  0  0  0  0  0  0  0  0
  -20.9137  -40.3482   -6.1855 C   0  0  0  0  0  0  0  0  0  0  0  0
  -20.6196  -39.5553   -7.2655 C   0  0  0  0  0  0  0  0  0  0  0  0
  -20.1821  -39.9133   -8.6516 C   0  0  0  0  0  0  0  0  0  0  0  0
  -18.7310  -40.2499   -8.7369 C   0  0  2  0  0  0  0  0  0  0  0  0
  -18.4460  -41.3032   -9.6837 N   0  0  0  0  0  0  0  0  0  0  0  0
  -18.4969  -42.6966   -9.4434 C   0  0  0  0  0  0  0  0  0  0  0  0
  -17.6729  -43.3160  -10.2688 O   0  0  0  0  0  0  0  0  0  0  0  0
  -18.0310  -40.5009   -7.4233 C   0  0  2  0  0  0  0  0  0  0  0  0
  -18.7953  -40.0062   -6.3528 O   0  0  0  0  0  0  0  0  0  0  0  0
  -16.7520  -39.6863   -7.3816 C   0  0  0  0  0  0  0  0  0  0  0  0
  -16.6510  -38.6926   -8.4129 N   0  0  0  0  0  0  0  0  0  0  0  0
  -15.7814  -39.1150   -9.4966 C   0  0  0  0  0  0  0  0  0  0  0  0
  -14.6394  -38.1968   -9.7636 C   0  0  0  0  0  0  0  0  0  0  0  0
  -15.2207  -40.4664   -9.0983 C   0  0  0  0  0  0  0  0  0  0  0  0
  -16.6378  -39.3294  -10.7441 C   0  0  0  0  0  0  0  0  0  0  0  0
  -17.9255  -38.9188  -10.8283 C   0  0  0  0  0  0  0  0  0  0  0  0
  -18.5733  -39.1761  -12.0102 C   0  0  0  0  0  0  0  0  0  0  0  0
  -17.3804  -39.9620  -12.9280 S   0  0  0  0  0  0  0  0  0  0  0  0
  -16.1297  -39.9428  -11.8195 N   0  0  0  0  0  0  0  0  0  0  0  0
  -20.0018  -38.8257  -12.3596 C   0  0  0  0  0  0  0  0  0  0  0  0
  -20.4676  -39.7696  -13.4429 C   0  0  0  0  0  0  0  0  0  0  0  0
  -20.8171  -39.0156  -11.1088 C   0  0  0  0  0  0  0  0  0  0  0  0
  -20.0238  -37.4051  -12.8396 C   0  0  0  0  0  0  0  0  0  0  0  0
  -20.7348  -38.1500   -7.1604 C   0  0  0  0  0  0  0  0  0  0  0  0
  -21.1325  -37.4983   -6.0228 C   0  0  0  0  0  0  0  0  0  0  0  0
  -21.4207  -38.3193   -4.9623 C   0  0  0  0  0  0  0  0  0  0  0  0
  1  2  1  0
  2  3  2  0
  3  4  1  0
  4  5  2  0
  5  6  1  0
  6  7  2  0
  6  8  1  0
  8  9  1  0
  9 10  1  0
 10 11  1  0
 11 12  1  0
 12 13  1  0
 13 14  1  0
 14 15  2  0
 15 16  1  0
 16 17  1  0
 18 17  1  1
 18 19  1  0
 19 20  1  0
 20 21  2  0
 18 22  1  0
 22 23  1  1
 22 24  1  0
 24 25  1  0
 25 26  1  0
 26 27  1  0
 26 28  1  0
 26 29  1  0
 29 30  1  0
 30 31  2  0
 31 32  1  0
 32 33  1  0
 31 34  1  0
 34 35  1  0
 34 36  1  0
 34 37  1  0
 16 38  2  0
 38 39  1  0
 39 40  2  0
  7  2  1  0
 20  4  1  0
 33 29  2  0
 40 14  1  0
M  END
$$$$
