
     RDKit          3D

 40 43  0  0  0  0  0  0  0  0999 V2000
  -18.9305  -47.6670   -6.5383 C   0  0  0  0  0  0  0  0  0  0  0  0
  -18.8551  -47.0007   -7.8690 C   0  0  0  0  0  0  0  0  0  0  0  0
  -18.1856  -45.8202   -8.0359 C   0  0  0  0  0  0  0  0  0  0  0  0
  -18.0670  -45.1203   -9.2731 C   0  0  0  0  0  0  0  0  0  0  0  0
  -18.6721  -45.6882  -10.3561 C   0  0  0  0  0  0  0  0  0  0  0  0
  -19.3615  -46.8916  -10.2086 C   0  0  0  0  0  0  0  0  0  0  0  0
  -19.4133  -47.4839   -8.9616 N   0  0  0  0  0  0  0  0  0  0  0  0
  -20.0367  -47.6445  -11.1188 O   0  0  0  0  0  0  0  0  0  0  0  0
  -21.1342  -47.7119  -11.8946 C   0  0  0  0  0  0  0  0  0  0  0  0
  -22.3107  -46.9583  -11.3240 C   0  0  0  0  0  0  0  0  0  0  0  0
  -22.9026  -45.9870  -12.3526 C   0  0  0  0  0  0  0  0  0  0  0  0
  -24.1089  -45.3005  -11.7912 C   0  0  0  0  0  0  0  0  0  0  0  0
  -23.8236  -44.0191  -11.3141 O   0  0  0  0  0  0  0  0  0  0  0  0
  -22.7769  -43.1259  -11.4812 C   0  0  0  0  0  0  0  0  0  0  0  0
  -21.4342  -43.3120  -11.2094 C   0  0  0  0  0  0  0  0  0  0  0  0
  -20.5850  -42.2661  -11.4673 C   0  0  0  0  0  0  0  0  0  0  0  0
  -19.1010  -42.1494  -11.3105 C   0  0  0  0  0  0  0  0  0  0  0  0
  -18.6809  -41.9018   -9.9003 C   0  0  2  0  0  0  0  0  0  0  0  0
  -17.4435  -42.5609   -9.5513 N   0  0  0  0  0  0  0  0  0  0  0  0
  -17.2902  -43.8922   -9.0975 C   0  0  0  0  0  0  0  0  0  0  0  0
  -16.1976  -43.9832   -8.3612 O   0  0  0  0  0  0  0  0  0  0  0  0
  -19.7339  -42.1364   -8.8446 C   0  0  2  0  0  0  0  0  0  0  0  0
  -20.8886  -41.3849   -9.1219 O   0  0  0  0  0  0  0  0  0  0  0  0
  -19.2364  -41.5886   -7.5204 C   0  0  0  0  0  0  0  0  0  0  0  0
  -17.8826  -41.1115   -7.5501 N   0  0  0  0  0  0  0  0  0  0  0  0
  -17.7713  -39.7498   -7.0578 C   0  0  0  0  0  0  0  0  0  0  0  0
  -16.3724  -39.2821   -6.8505 C   0  0  0  0  0  0  0  0  0  0  0  0
  -18.4197  -38.8596   -8.1001 C   0  0  0  0  0  0  0  0  0  0  0  0
  -18.6020  -39.6313   -5.7804 C   0  0  0  0  0  0  0  0  0  0  0  0
  -18.7627  -38.4618   -5.1169 C   0  0  0  0  0  0  0  0  0  0  0  0
  -19.5369  -38.5025   -3.9848 C   0  0  0  0  0  0  0  0  0  0  0  0
  -19.9939  -40.1357   -3.9019 S   0  0  0  0  0  0  0  0  0  0  0  0
  -19.2131  -40.7048   -5.2656 N   0  0  0  0  0  0  0  0  0  0  0  0
  -19.8704  -37.3470   -3.0688 C   0  0  0  0  0  0  0  0  0  0  0  0
  -19.0385  -36.1578   -3.4875 C   0  0  0  0  0  0  0  0  0  0  0  0
  -21.3358  -37.0547   -3.2492 C   0  0  0  0  0  0  0  0  0  0  0  0
  -19.5445  -37.7624   -1.6652 C   0  0  0  0  0  0  0  0  0  0  0  0
  -21.0964  -41.0551  -11.9880 C   0  0  0  0  0  0  0  0  0  0  0  0
  -22.4209  -40.8404  -12.2647 C   0  0  0  0  0  0  0  0  0  0  0  0
  -23.2427  -41.9058  -11.9976 C   0  0  0  0  0  0  0  0  0  0  0  0
  1  2  1  0
  2  3  2  0
  3  4  1  0
  4  5  2  0
  5  6  1  0
  6  7  2  0
  6  8  1  0
  8  9  1  0
  9 10  1  0
 10 11  1  0
 11 12  1  0
 12 13  1  0
 13 14  1  0
 14 15  2  0
 15 16  1  0
 16 17  1  0
 18 17  1  6
 18 19  1  0
 19 20  1  0
 20 21  2  0
 18 22  1  0
 22 23  1  6
 22 24  1  0
 24 25  1  0
 25 26  1  0
 26 27  1  0
 26 28  1  0
 26 29  1  0
 29 30  1  0
 30 31  2  0
 31 32  1  0
 32 33  1  0
 31 34  1  0
 34 35  1  0
 34 36  1  0
 34 37  1  0
 16 38  2  0
 38 39  1  0
 39 40  2  0
  7  2  1  0
 20  4  1  0
 33 29  2  0
 40 14  1  0
M  END
$$$$
