
     RDKit          3D

 40 43  0  0  0  0  0  0  0  0999 V2000
  -23.2942  -38.3544   -8.9910 C   0  0  0  0  0  0  0  0  0  0  0  0
  -22.2097  -38.7173   -8.0355 C   0  0  0  0  0  0  0  0  0  0  0  0
  -20.9193  -38.3128   -8.2380 C   0  0  0  0  0  0  0  0  0  0  0  0
  -19.8265  -38.6171   -7.3734 C   0  0  0  0  0  0  0  0  0  0  0  0
  -20.1118  -39.3662   -6.2694 C   0  0  0  0  0  0  0  0  0  0  0  0
  -21.4210  -39.7906   -6.0435 C   0  0  0  0  0  0  0  0  0  0  0  0
  -22.4036  -39.4378   -6.9483 N   0  0  0  0  0  0  0  0  0  0  0  0
  -21.9511  -40.5340   -5.0348 O   0  0  0  0  0  0  0  0  0  0  0  0
  -22.0112  -41.7611   -4.4858 C   0  0  0  0  0  0  0  0  0  0  0  0
  -21.8161  -42.8702   -5.4905 C   0  0  0  0  0  0  0  0  0  0  0  0
  -20.7243  -43.8473   -5.0374 C   0  0  0  0  0  0  0  0  0  0  0  0
  -20.5940  -44.9761   -6.0124 C   0  0  0  0  0  0  0  0  0  0  0  0
  -19.5305  -44.7981   -6.9002 O   0  0  0  0  0  0  0  0  0  0  0  0
  -18.4075  -43.9859   -6.9281 C   0  0  0  0  0  0  0  0  0  0  0  0
  -18.3415  -42.6058   -6.8813 C   0  0  0  0  0  0  0  0  0  0  0  0
  -17.0972  -42.0298   -6.9192 C   0  0  0  0  0  0  0  0  0  0  0  0
  -16.6825  -40.5926   -6.8641 C   0  0  0  0  0  0  0  0  0  0  0  0
  -16.8461  -39.8875   -8.1689 C   0  0  2  0  0  0  0  0  0  0  0  0
  -17.2608  -38.5112   -8.0237 N   0  0  0  0  0  0  0  0  0  0  0  0
  -18.5859  -38.0343   -7.8871 C   0  0  0  0  0  0  0  0  0  0  0  0
  -18.6566  -36.7955   -8.3389 O   0  0  0  0  0  0  0  0  0  0  0  0
  -17.6838  -40.5973   -9.2048 C   0  0  2  0  0  0  0  0  0  0  0  0
  -17.8921  -41.9380   -8.8388 O   0  0  0  0  0  0  0  0  0  0  0  0
  -16.9016  -40.6776  -10.5020 C   0  0  0  0  0  0  0  0  0  0  0  0
  -16.8164  -39.4361  -11.2180 N   0  0  0  0  0  0  0  0  0  0  0  0
  -18.0621  -38.6911  -11.1717 C   0  0  0  0  0  0  0  0  0  0  0  0
  -18.7106  -38.4922  -12.4977 C   0  0  0  0  0  0  0  0  0  0  0  0
  -19.0090  -39.4875  -10.2951 C   0  0  0  0  0  0  0  0  0  0  0  0
  -17.8007  -37.3613  -10.4653 C   0  0  0  0  0  0  0  0  0  0  0  0
  -16.7978  -36.5254  -10.8248 C   0  0  0  0  0  0  0  0  0  0  0  0
  -16.6816  -35.3640  -10.1035 C   0  0  0  0  0  0  0  0  0  0  0  0
  -17.9501  -35.4908   -8.9820 S   0  0  0  0  0  0  0  0  0  0  0  0
  -18.5742  -36.9703   -9.4456 N   0  0  0  0  0  0  0  0  0  0  0  0
  -15.6560  -34.2706  -10.2989 C   0  0  0  0  0  0  0  0  0  0  0  0
  -14.2916  -34.9132  -10.3828 C   0  0  0  0  0  0  0  0  0  0  0  0
  -15.9938  -33.5803  -11.5930 C   0  0  0  0  0  0  0  0  0  0  0  0
  -15.7411  -33.3433   -9.1234 C   0  0  0  0  0  0  0  0  0  0  0  0
  -15.9455  -42.8453   -7.0068 C   0  0  0  0  0  0  0  0  0  0  0  0
  -15.9795  -44.2140   -7.0573 C   0  0  0  0  0  0  0  0  0  0  0  0
  -17.2379  -44.7584   -7.0156 C   0  0  0  0  0  0  0  0  0  0  0  0
  1  2  1  0
  2  3  2  0
  3  4  1  0
  4  5  2  0
  5  6  1  0
  6  7  2  0
  6  8  1  0
  8  9  1  0
  9 10  1  0
 10 11  1  0
 11 12  1  0
 12 13  1  0
 13 14  1  0
 14 15  2  0
 15 16  1  0
 16 17  1  0
 18 17  1  1
 18 19  1  0
 19 20  1  0
 20 21  2  0
 18 22  1  0
 22 23  1  1
 22 24  1  0
 24 25  1  0
 25 26  1  0
 26 27  1  0
 26 28  1  0
 26 29  1  0
 29 30  1  0
 30 31  2  0
 31 32  1  0
 32 33  1  0
 31 34  1  0
 34 35  1  0
 34 36  1  0
 34 37  1  0
 16 38  2  0
 38 39  1  0
 39 40  2  0
  7  2  1  0
 20  4  1  0
 33 29  2  0
 40 14  1  0
M  END
$$$$
