
     RDKit          3D

 40 43  0  0  0  0  0  0  0  0999 V2000
  -17.2775  -45.8216   -6.8309 C   0  0  0  0  0  0  0  0  0  0  0  0
  -18.2417  -44.9171   -7.5185 C   0  0  0  0  0  0  0  0  0  0  0  0
  -17.8133  -43.9363   -8.3695 C   0  0  0  0  0  0  0  0  0  0  0  0
  -18.6694  -43.0318   -9.0648 C   0  0  0  0  0  0  0  0  0  0  0  0
  -20.0095  -43.1739   -8.8519 C   0  0  0  0  0  0  0  0  0  0  0  0
  -20.4688  -44.1670   -7.9871 C   0  0  0  0  0  0  0  0  0  0  0  0
  -19.5494  -44.9891   -7.3648 N   0  0  0  0  0  0  0  0  0  0  0  0
  -21.7334  -44.5042   -7.6153 O   0  0  0  0  0  0  0  0  0  0  0  0
  -22.8133  -44.1195   -6.9105 C   0  0  0  0  0  0  0  0  0  0  0  0
  -22.4701  -43.2407   -5.7326 C   0  0  0  0  0  0  0  0  0  0  0  0
  -23.2957  -41.9482   -5.7419 C   0  0  0  0  0  0  0  0  0  0  0  0
  -22.9907  -41.1231   -4.5304 C   0  0  0  0  0  0  0  0  0  0  0  0
  -22.0848  -40.0937   -4.7964 O   0  0  0  0  0  0  0  0  0  0  0  0
  -21.6168  -39.4783   -5.9468 C   0  0  0  0  0  0  0  0  0  0  0  0
  -20.9815  -40.0515   -7.0327 C   0  0  0  0  0  0  0  0  0  0  0  0
  -20.6148  -39.2223   -8.0620 C   0  0  0  0  0  0  0  0  0  0  0  0
  -19.9442  -39.5203   -9.3667 C   0  0  0  0  0  0  0  0  0  0  0  0
  -18.4695  -39.7061   -9.2358 C   0  0  2  0  0  0  0  0  0  0  0  0
  -17.9422  -40.7156  -10.1247 N   0  0  0  0  0  0  0  0  0  0  0  0
  -17.8847  -42.1092   -9.8868 C   0  0  0  0  0  0  0  0  0  0  0  0
  -16.8894  -42.6331  -10.5786 O   0  0  0  0  0  0  0  0  0  0  0  0
  -17.9480  -39.8970   -7.8322 C   0  0  2  0  0  0  0  0  0  0  0  0
  -18.6277  -39.0576   -6.9333 O   0  0  0  0  0  0  0  0  0  0  0  0
  -16.5073  -39.4259   -7.7722 C   0  0  0  0  0  0  0  0  0  0  0  0
  -15.6153  -40.1423   -8.6396 N   0  0  0  0  0  0  0  0  0  0  0  0
  -15.7370  -39.7160  -10.0225 C   0  0  0  0  0  0  0  0  0  0  0  0
  -14.8801  -40.4722  -10.9779 C   0  0  0  0  0  0  0  0  0  0  0  0
  -17.1863  -39.9290  -10.4140 C   0  0  0  0  0  0  0  0  0  0  0  0
  -15.4660  -38.2133  -10.0878 C   0  0  0  0  0  0  0  0  0  0  0  0
  -14.6686  -37.6527  -11.0278 C   0  0  0  0  0  0  0  0  0  0  0  0
  -14.5165  -36.2904  -10.9672 C   0  0  0  0  0  0  0  0  0  0  0  0
  -15.4728  -35.8657   -9.6301 S   0  0  0  0  0  0  0  0  0  0  0  0
  -16.0229  -37.3835   -9.1977 N   0  0  0  0  0  0  0  0  0  0  0  0
  -13.6874  -35.4258  -11.8895 C   0  0  0  0  0  0  0  0  0  0  0  0
  -14.2077  -35.6027  -13.2964 C   0  0  0  0  0  0  0  0  0  0  0  0
  -13.8693  -34.0024  -11.4355 C   0  0  0  0  0  0  0  0  0  0  0  0
  -12.2607  -35.8757  -11.7844 C   0  0  0  0  0  0  0  0  0  0  0  0
  -20.8875  -37.8373   -7.9826 C   0  0  0  0  0  0  0  0  0  0  0  0
  -21.5127  -37.2406   -6.9195 C   0  0  0  0  0  0  0  0  0  0  0  0
  -21.8678  -38.0970   -5.9085 C   0  0  0  0  0  0  0  0  0  0  0  0
  1  2  1  0
  2  3  2  0
  3  4  1  0
  4  5  2  0
  5  6  1  0
  6  7  2  0
  6  8  1  0
  8  9  1  0
  9 10  1  0
 10 11  1  0
 11 12  1  0
 12 13  1  0
 13 14  1  0
 14 15  2  0
 15 16  1  0
 16 17  1  0
 18 17  1  1
 18 19  1  0
 19 20  1  0
 20 21  2  0
 18 22  1  0
 22 23  1  1
 22 24  1  0
 24 25  1  0
 25 26  1  0
 26 27  1  0
 26 28  1  0
 26 29  1  0
 29 30  1  0
 30 31  2  0
 31 32  1  0
 32 33  1  0
 31 34  1  0
 34 35  1  0
 34 36  1  0
 34 37  1  0
 16 38  2  0
 38 39  1  0
 39 40  2  0
  7  2  1  0
 20  4  1  0
 33 29  2  0
 40 14  1  0
M  END
$$$$
