
     RDKit          3D

 40 43  0  0  0  0  0  0  0  0999 V2000
  -17.7130  -46.2067   -7.9155 C   0  0  0  0  0  0  0  0  0  0  0  0
  -18.3720  -44.9869   -8.4616 C   0  0  0  0  0  0  0  0  0  0  0  0
  -17.6388  -43.9311   -8.9278 C   0  0  0  0  0  0  0  0  0  0  0  0
  -18.1916  -42.7309   -9.4647 C   0  0  0  0  0  0  0  0  0  0  0  0
  -19.5530  -42.6519   -9.5080 C   0  0  0  0  0  0  0  0  0  0  0  0
  -20.3208  -43.7166   -9.0369 C   0  0  0  0  0  0  0  0  0  0  0  0
  -19.6795  -44.8332   -8.5364 N   0  0  0  0  0  0  0  0  0  0  0  0
  -21.6703  -43.8770   -8.9727 O   0  0  0  0  0  0  0  0  0  0  0  0
  -22.7994  -43.4722   -8.3625 C   0  0  0  0  0  0  0  0  0  0  0  0
  -22.5716  -42.9993   -6.9475 C   0  0  0  0  0  0  0  0  0  0  0  0
  -23.1743  -41.6074   -6.7210 C   0  0  0  0  0  0  0  0  0  0  0  0
  -22.9984  -41.1861   -5.2951 C   0  0  0  0  0  0  0  0  0  0  0  0
  -21.9131  -40.3243   -5.1202 O   0  0  0  0  0  0  0  0  0  0  0  0
  -21.1363  -39.5486   -5.9664 C   0  0  0  0  0  0  0  0  0  0  0  0
  -20.3895  -39.9492   -7.0587 C   0  0  0  0  0  0  0  0  0  0  0  0
  -19.7029  -38.9807   -7.7459 C   0  0  0  0  0  0  0  0  0  0  0  0
  -18.8365  -39.0731   -8.9630 C   0  0  0  0  0  0  0  0  0  0  0  0
  -17.4633  -39.5750   -8.6651 C   0  0  2  0  0  0  0  0  0  0  0  0
  -16.9261  -40.4166   -9.7093 N   0  0  0  0  0  0  0  0  0  0  0  0
  -17.1280  -41.8083   -9.8653 C   0  0  0  0  0  0  0  0  0  0  0  0
  -16.1044  -42.3315  -10.5151 O   0  0  0  0  0  0  0  0  0  0  0  0
  -17.2692  -40.2078   -7.3084 C   0  0  2  0  0  0  0  0  0  0  0  0
  -18.1238  -39.6190   -6.3610 O   0  0  0  0  0  0  0  0  0  0  0  0
  -15.8735  -39.8863   -6.8086 C   0  0  0  0  0  0  0  0  0  0  0  0
  -15.2880  -38.7181   -7.4031 N   0  0  0  0  0  0  0  0  0  0  0  0
  -14.2151  -39.0514   -8.3232 C   0  0  0  0  0  0  0  0  0  0  0  0
  -12.9464  -38.3081   -8.0854 C   0  0  0  0  0  0  0  0  0  0  0  0
  -13.9382  -40.5316   -8.1453 C   0  0  0  0  0  0  0  0  0  0  0  0
  -14.7268  -38.8542   -9.7497 C   0  0  0  0  0  0  0  0  0  0  0  0
  -14.5312  -37.7097  -10.4466 C   0  0  0  0  0  0  0  0  0  0  0  0
  -15.0443  -37.6731  -11.7186 C   0  0  0  0  0  0  0  0  0  0  0  0
  -15.7601  -39.2045  -11.8782 S   0  0  0  0  0  0  0  0  0  0  0  0
  -15.3991  -39.8303  -10.3712 N   0  0  0  0  0  0  0  0  0  0  0  0
  -14.9656  -36.5246  -12.6985 C   0  0  0  0  0  0  0  0  0  0  0  0
  -13.5207  -36.0990  -12.8113 C   0  0  0  0  0  0  0  0  0  0  0  0
  -15.4672  -37.0419  -14.0199 C   0  0  0  0  0  0  0  0  0  0  0  0
  -15.8143  -35.4075  -12.1687 C   0  0  0  0  0  0  0  0  0  0  0  0
  -19.7744  -37.6330   -7.3246 C   0  0  0  0  0  0  0  0  0  0  0  0
  -20.5034  -37.2065   -6.2458 C   0  0  0  0  0  0  0  0  0  0  0  0
  -21.1792  -38.1986   -5.5819 C   0  0  0  0  0  0  0  0  0  0  0  0
  1  2  1  0
  2  3  2  0
  3  4  1  0
  4  5  2  0
  5  6  1  0
  6  7  2  0
  6  8  1  0
  8  9  1  0
  9 10  1  0
 10 11  1  0
 11 12  1  0
 12 13  1  0
 13 14  1  0
 14 15  2  0
 15 16  1  0
 16 17  1  0
 18 17  1  6
 18 19  1  0
 19 20  1  0
 20 21  2  0
 18 22  1  0
 22 23  1  1
 22 24  1  0
 24 25  1  0
 25 26  1  0
 26 27  1  0
 26 28  1  0
 26 29  1  0
 29 30  1  0
 30 31  2  0
 31 32  1  0
 32 33  1  0
 31 34  1  0
 34 35  1  0
 34 36  1  0
 34 37  1  0
 16 38  2  0
 38 39  1  0
 39 40  2  0
  7  2  1  0
 20  4  1  0
 33 29  2  0
 40 14  1  0
M  END
$$$$
