
     RDKit          3D

 40 43  0  0  0  0  0  0  0  0999 V2000
  -19.7029  -38.1582  -12.5851 C   0  0  0  0  0  0  0  0  0  0  0  0
  -18.3540  -38.7604  -12.3895 C   0  0  0  0  0  0  0  0  0  0  0  0
  -18.1079  -39.6366  -11.3689 C   0  0  0  0  0  0  0  0  0  0  0  0
  -16.8482  -40.2552  -11.1141 C   0  0  0  0  0  0  0  0  0  0  0  0
  -15.8288  -39.9365  -11.9630 C   0  0  0  0  0  0  0  0  0  0  0  0
  -16.0569  -39.0442  -13.0103 C   0  0  0  0  0  0  0  0  0  0  0  0
  -17.3186  -38.5029  -13.1644 N   0  0  0  0  0  0  0  0  0  0  0  0
  -15.2192  -38.5745  -13.9740 O   0  0  0  0  0  0  0  0  0  0  0  0
  -14.1593  -37.7829  -14.2212 C   0  0  0  0  0  0  0  0  0  0  0  0
  -14.0416  -36.6306  -13.2537 C   0  0  0  0  0  0  0  0  0  0  0  0
  -12.6412  -36.5654  -12.6320 C   0  0  0  0  0  0  0  0  0  0  0  0
  -12.5237  -35.3768  -11.7291 C   0  0  0  0  0  0  0  0  0  0  0  0
  -12.6885  -35.7079  -10.3822 O   0  0  0  0  0  0  0  0  0  0  0  0
  -12.6562  -36.8881   -9.6560 C   0  0  0  0  0  0  0  0  0  0  0  0
  -13.4241  -38.0251   -9.8258 C   0  0  0  0  0  0  0  0  0  0  0  0
  -13.1981  -39.0751   -8.9726 C   0  0  0  0  0  0  0  0  0  0  0  0
  -13.8279  -40.4312   -8.9020 C   0  0  0  0  0  0  0  0  0  0  0  0
  -15.1644  -40.4201   -8.2388 C   0  0  2  0  0  0  0  0  0  0  0  0
  -16.0977  -41.3549   -8.8240 N   0  0  0  0  0  0  0  0  0  0  0  0
  -16.9322  -41.1314   -9.9445 C   0  0  0  0  0  0  0  0  0  0  0  0
  -17.9997  -41.9042   -9.8594 O   0  0  0  0  0  0  0  0  0  0  0  0
  -15.8018  -39.0640   -8.0559 C   0  0  2  0  0  0  0  0  0  0  0  0
  -15.0387  -38.2726   -7.1806 O   0  0  0  0  0  0  0  0  0  0  0  0
  -17.1320  -39.2351   -7.3469 C   0  0  0  0  0  0  0  0  0  0  0  0
  -17.7815  -40.4892   -7.6048 N   0  0  0  0  0  0  0  0  0  0  0  0
  -19.2148  -40.3370   -7.7818 C   0  0  0  0  0  0  0  0  0  0  0  0
  -19.6191  -39.0912   -8.4912 C   0  0  0  0  0  0  0  0  0  0  0  0
  -19.6764  -41.5233   -8.6057 C   0  0  0  0  0  0  0  0  0  0  0  0
  -19.8827  -40.4492   -6.4117 C   0  0  0  0  0  0  0  0  0  0  0  0
  -21.2104  -40.2583   -6.2260 C   0  0  0  0  0  0  0  0  0  0  0  0
  -21.6737  -40.3928   -4.9415 C   0  0  0  0  0  0  0  0  0  0  0  0
  -20.2649  -40.7710   -4.0726 S   0  0  0  0  0  0  0  0  0  0  0  0
  -19.1597  -40.7488   -5.3261 N   0  0  0  0  0  0  0  0  0  0  0  0
  -23.1003  -40.2320   -4.4676 C   0  0  0  0  0  0  0  0  0  0  0  0
  -23.9616  -41.2181   -5.2208 C   0  0  0  0  0  0  0  0  0  0  0  0
  -23.1094  -40.5419   -2.9947 C   0  0  0  0  0  0  0  0  0  0  0  0
  -23.5245  -38.8221   -4.7521 C   0  0  0  0  0  0  0  0  0  0  0  0
  -12.2118  -38.9651   -7.9655 C   0  0  0  0  0  0  0  0  0  0  0  0
  -11.4377  -37.8514   -7.7715 C   0  0  0  0  0  0  0  0  0  0  0  0
  -11.6871  -36.8208   -8.6417 C   0  0  0  0  0  0  0  0  0  0  0  0
  1  2  1  0
  2  3  2  0
  3  4  1  0
  4  5  2  0
  5  6  1  0
  6  7  2  0
  6  8  1  0
  8  9  1  0
  9 10  1  0
 10 11  1  0
 11 12  1  0
 12 13  1  0
 13 14  1  0
 14 15  2  0
 15 16  1  0
 16 17  1  0
 18 17  1  6
 18 19  1  0
 19 20  1  0
 20 21  2  0
 18 22  1  0
 22 23  1  1
 22 24  1  0
 24 25  1  0
 25 26  1  0
 26 27  1  0
 26 28  1  0
 26 29  1  0
 29 30  1  0
 30 31  2  0
 31 32  1  0
 32 33  1  0
 31 34  1  0
 34 35  1  0
 34 36  1  0
 34 37  1  0
 16 38  2  0
 38 39  1  0
 39 40  2  0
  7  2  1  0
 20  4  1  0
 33 29  2  0
 40 14  1  0
M  END
$$$$
