
     RDKit          3D

 40 43  0  0  0  0  0  0  0  0999 V2000
  -19.5280  -45.1936   -7.2363 C   0  0  0  0  0  0  0  0  0  0  0  0
  -19.4050  -44.0342   -8.1643 C   0  0  0  0  0  0  0  0  0  0  0  0
  -18.1850  -43.5055   -8.4835 C   0  0  0  0  0  0  0  0  0  0  0  0
  -17.9824  -42.3996   -9.3612 C   0  0  0  0  0  0  0  0  0  0  0  0
  -19.1004  -41.8447   -9.9122 C   0  0  0  0  0  0  0  0  0  0  0  0
  -20.3552  -42.3673   -9.5998 C   0  0  0  0  0  0  0  0  0  0  0  0
  -20.4354  -43.4423   -8.7359 N   0  0  0  0  0  0  0  0  0  0  0  0
  -21.5979  -41.9969  -10.0116 O   0  0  0  0  0  0  0  0  0  0  0  0
  -22.5485  -41.0481   -9.9270 C   0  0  0  0  0  0  0  0  0  0  0  0
  -22.5244  -40.3000   -8.6165 C   0  0  0  0  0  0  0  0  0  0  0  0
  -22.4847  -38.7834   -8.8408 C   0  0  0  0  0  0  0  0  0  0  0  0
  -22.5307  -38.0588   -7.5315 C   0  0  0  0  0  0  0  0  0  0  0  0
  -21.2678  -37.6429   -7.1037 O   0  0  0  0  0  0  0  0  0  0  0  0
  -20.0325  -37.4886   -7.7132 C   0  0  0  0  0  0  0  0  0  0  0  0
  -19.2775  -38.4348   -8.3810 C   0  0  0  0  0  0  0  0  0  0  0  0
  -18.0768  -38.0308   -8.9069 C   0  0  0  0  0  0  0  0  0  0  0  0
  -17.0495  -38.7848   -9.6922 C   0  0  0  0  0  0  0  0  0  0  0  0
  -16.1770  -39.6432   -8.8389 C   0  0  2  0  0  0  0  0  0  0  0  0
  -15.8095  -40.8885   -9.4727 N   0  0  0  0  0  0  0  0  0  0  0  0
  -16.5565  -42.0901   -9.4787 C   0  0  0  0  0  0  0  0  0  0  0  0
  -15.7378  -43.1166   -9.6203 O   0  0  0  0  0  0  0  0  0  0  0  0
  -16.6556  -39.8770   -7.4265 C   0  0  2  0  0  0  0  0  0  0  0  0
  -15.9250  -39.0903   -6.5199 O   0  0  0  0  0  0  0  0  0  0  0  0
  -16.3378  -41.3056   -7.0275 C   0  0  0  0  0  0  0  0  0  0  0  0
  -16.4060  -42.2494   -8.1072 N   0  0  0  0  0  0  0  0  0  0  0  0
  -17.7422  -42.3433   -8.6683 C   0  0  0  0  0  0  0  0  0  0  0  0
  -18.0793  -43.6784   -9.2363 C   0  0  0  0  0  0  0  0  0  0  0  0
  -18.7074  -42.0521   -7.5357 C   0  0  0  0  0  0  0  0  0  0  0  0
  -17.9082  -41.2307   -9.7028 C   0  0  0  0  0  0  0  0  0  0  0  0
  -19.0411  -41.0660  -10.4261 C   0  0  0  0  0  0  0  0  0  0  0  0
  -19.0510  -40.0232  -11.3179 C   0  0  0  0  0  0  0  0  0  0  0  0
  -17.5120  -39.3370  -11.1091 S   0  0  0  0  0  0  0  0  0  0  0  0
  -16.9163  -40.3619   -9.9310 N   0  0  0  0  0  0  0  0  0  0  0  0
  -20.1813  -39.6251  -12.2395 C   0  0  0  0  0  0  0  0  0  0  0  0
  -20.1432  -40.5280  -13.4500 C   0  0  0  0  0  0  0  0  0  0  0  0
  -21.4613  -39.8248  -11.4734 C   0  0  0  0  0  0  0  0  0  0  0  0
  -19.9737  -38.1927  -12.6317 C   0  0  0  0  0  0  0  0  0  0  0  0
  -17.6544  -36.6905   -8.7510 C   0  0  0  0  0  0  0  0  0  0  0  0
  -18.3791  -35.7319   -8.0928 C   0  0  0  0  0  0  0  0  0  0  0  0
  -19.5748  -36.1675   -7.5808 C   0  0  0  0  0  0  0  0  0  0  0  0
  1  2  1  0
  2  3  2  0
  3  4  1  0
  4  5  2  0
  5  6  1  0
  6  7  2  0
  6  8  1  0
  8  9  1  0
  9 10  1  0
 10 11  1  0
 11 12  1  0
 12 13  1  0
 13 14  1  0
 14 15  2  0
 15 16  1  0
 16 17  1  0
 18 17  1  6
 18 19  1  0
 19 20  1  0
 20 21  2  0
 18 22  1  0
 22 23  1  1
 22 24  1  0
 24 25  1  0
 25 26  1  0
 26 27  1  0
 26 28  1  0
 26 29  1  0
 29 30  1  0
 30 31  2  0
 31 32  1  0
 32 33  1  0
 31 34  1  0
 34 35  1  0
 34 36  1  0
 34 37  1  0
 16 38  2  0
 38 39  1  0
 39 40  2  0
  7  2  1  0
 20  4  1  0
 33 29  2  0
 40 14  1  0
M  END
$$$$
