
     RDKit          3D

 40 43  0  0  0  0  0  0  0  0999 V2000
  -16.9606  -45.6976   -7.0111 C   0  0  0  0  0  0  0  0  0  0  0  0
  -18.0169  -44.8659   -7.6540 C   0  0  0  0  0  0  0  0  0  0  0  0
  -17.7003  -43.8840   -8.5514 C   0  0  0  0  0  0  0  0  0  0  0  0
  -18.6493  -43.0465   -9.2090 C   0  0  0  0  0  0  0  0  0  0  0  0
  -19.9629  -43.2582   -8.9069 C   0  0  0  0  0  0  0  0  0  0  0  0
  -20.3086  -44.2537   -7.9934 C   0  0  0  0  0  0  0  0  0  0  0  0
  -19.3058  -45.0073   -7.4146 N   0  0  0  0  0  0  0  0  0  0  0  0
  -21.5257  -44.6519   -7.5337 O   0  0  0  0  0  0  0  0  0  0  0  0
  -22.5791  -44.3109   -6.7689 C   0  0  0  0  0  0  0  0  0  0  0  0
  -22.2131  -43.3853   -5.6345 C   0  0  0  0  0  0  0  0  0  0  0  0
  -23.1106  -42.1418   -5.6178 C   0  0  0  0  0  0  0  0  0  0  0  0
  -22.7776  -41.2711   -4.4463 C   0  0  0  0  0  0  0  0  0  0  0  0
  -21.9510  -40.1995   -4.7920 O   0  0  0  0  0  0  0  0  0  0  0  0
  -21.5929  -39.5875   -5.9830 C   0  0  0  0  0  0  0  0  0  0  0  0
  -20.9958  -40.1510   -7.0953 C   0  0  0  0  0  0  0  0  0  0  0  0
  -20.7432  -39.3284   -8.1635 C   0  0  0  0  0  0  0  0  0  0  0  0
  -20.1406  -39.6205   -9.5022 C   0  0  0  0  0  0  0  0  0  0  0  0
  -18.6523  -39.7201   -9.4629 C   0  0  2  0  0  0  0  0  0  0  0  0
  -18.1251  -40.7202  -10.3625 N   0  0  0  0  0  0  0  0  0  0  0  0
  -17.9726  -42.1020  -10.0993 C   0  0  0  0  0  0  0  0  0  0  0  0
  -16.9946  -42.5863  -10.8428 O   0  0  0  0  0  0  0  0  0  0  0  0
  -18.0328  -39.8466   -8.0922 C   0  0  2  0  0  0  0  0  0  0  0  0
  -18.4835  -38.8171   -7.2486 O   0  0  0  0  0  0  0  0  0  0  0  0
  -16.5376  -39.6162   -8.2028 C   0  0  0  0  0  0  0  0  0  0  0  0
  -15.9249  -40.2493   -9.3363 N   0  0  0  0  0  0  0  0  0  0  0  0
  -14.5980  -39.7242   -9.6055 C   0  0  0  0  0  0  0  0  0  0  0  0
  -13.8295  -39.3387   -8.3892 C   0  0  0  0  0  0  0  0  0  0  0  0
  -13.8356  -40.8232  -10.3199 C   0  0  0  0  0  0  0  0  0  0  0  0
  -14.7323  -38.5569  -10.5827 C   0  0  0  0  0  0  0  0  0  0  0  0
  -14.8389  -37.2696  -10.1762 C   0  0  0  0  0  0  0  0  0  0  0  0
  -14.9512  -36.3237  -11.1638 C   0  0  0  0  0  0  0  0  0  0  0  0
  -14.9039  -37.2556  -12.5823 S   0  0  0  0  0  0  0  0  0  0  0  0
  -14.7475  -38.7747  -11.9031 N   0  0  0  0  0  0  0  0  0  0  0  0
  -15.0834  -34.8289  -10.9809 C   0  0  0  0  0  0  0  0  0  0  0  0
  -16.5272  -34.5183  -10.6636 C   0  0  0  0  0  0  0  0  0  0  0  0
  -14.1967  -34.4495   -9.8255 C   0  0  0  0  0  0  0  0  0  0  0  0
  -14.6609  -34.1688  -12.2595 C   0  0  0  0  0  0  0  0  0  0  0  0
  -21.0896  -37.9592   -8.0960 C   0  0  0  0  0  0  0  0  0  0  0  0
  -21.6795  -37.3724   -7.0075 C   0  0  0  0  0  0  0  0  0  0  0  0
  -21.9201  -38.2220   -5.9578 C   0  0  0  0  0  0  0  0  0  0  0  0
  1  2  1  0
  2  3  2  0
  3  4  1  0
  4  5  2  0
  5  6  1  0
  6  7  2  0
  6  8  1  0
  8  9  1  0
  9 10  1  0
 10 11  1  0
 11 12  1  0
 12 13  1  0
 13 14  1  0
 14 15  2  0
 15 16  1  0
 16 17  1  0
 18 17  1  1
 18 19  1  0
 19 20  1  0
 20 21  2  0
 18 22  1  0
 22 23  1  1
 22 24  1  0
 24 25  1  0
 25 26  1  0
 26 27  1  0
 26 28  1  0
 26 29  1  0
 29 30  1  0
 30 31  2  0
 31 32  1  0
 32 33  1  0
 31 34  1  0
 34 35  1  0
 34 36  1  0
 34 37  1  0
 16 38  2  0
 38 39  1  0
 39 40  2  0
  7  2  1  0
 20  4  1  0
 33 29  2  0
 40 14  1  0
M  END
$$$$
