
     RDKit          3D

 40 43  0  0  0  0  0  0  0  0999 V2000
  -15.8933  -45.4846   -7.2572 C   0  0  0  0  0  0  0  0  0  0  0  0
  -16.8370  -44.6906   -8.0936 C   0  0  0  0  0  0  0  0  0  0  0  0
  -16.4550  -43.5121   -8.6723 C   0  0  0  0  0  0  0  0  0  0  0  0
  -17.2957  -42.6949   -9.4847 C   0  0  0  0  0  0  0  0  0  0  0  0
  -18.5692  -43.1407   -9.6870 C   0  0  0  0  0  0  0  0  0  0  0  0
  -18.9806  -44.3397   -9.1054 C   0  0  0  0  0  0  0  0  0  0  0  0
  -18.0819  -45.0521   -8.3352 N   0  0  0  0  0  0  0  0  0  0  0  0
  -20.1772  -44.9855   -9.1559 O   0  0  0  0  0  0  0  0  0  0  0  0
  -21.4624  -44.9548   -8.7582 C   0  0  0  0  0  0  0  0  0  0  0  0
  -21.6592  -44.2398   -7.4437 C   0  0  0  0  0  0  0  0  0  0  0  0
  -22.7428  -43.1600   -7.5532 C   0  0  0  0  0  0  0  0  0  0  0  0
  -22.9711  -42.5103   -6.2237 C   0  0  0  0  0  0  0  0  0  0  0  0
  -22.3054  -41.2884   -6.1023 O   0  0  0  0  0  0  0  0  0  0  0  0
  -21.7203  -40.4027   -6.9936 C   0  0  0  0  0  0  0  0  0  0  0  0
  -20.7066  -40.6401   -7.9032 C   0  0  0  0  0  0  0  0  0  0  0  0
  -20.2993  -39.5898   -8.6859 C   0  0  0  0  0  0  0  0  0  0  0  0
  -19.2630  -39.5171   -9.7635 C   0  0  0  0  0  0  0  0  0  0  0  0
  -17.8728  -39.4190   -9.2305 C   0  0  2  0  0  0  0  0  0  0  0  0
  -16.9048  -40.1326  -10.0312 N   0  0  0  0  0  0  0  0  0  0  0  0
  -16.5739  -41.5052   -9.9387 C   0  0  0  0  0  0  0  0  0  0  0  0
  -15.3372  -41.6894  -10.3636 O   0  0  0  0  0  0  0  0  0  0  0  0
  -17.7012  -39.7378   -7.7650 C   0  0  2  0  0  0  0  0  0  0  0  0
  -18.8785  -39.4480   -7.0545 O   0  0  0  0  0  0  0  0  0  0  0  0
  -16.6640  -38.8018   -7.1741 C   0  0  0  0  0  0  0  0  0  0  0  0
  -15.5135  -38.5938   -8.0073 N   0  0  0  0  0  0  0  0  0  0  0  0
  -15.7018  -37.4929   -8.9355 C   0  0  0  0  0  0  0  0  0  0  0  0
  -17.0851  -36.9414   -8.9646 C   0  0  0  0  0  0  0  0  0  0  0  0
  -14.7604  -36.3896   -8.4933 C   0  0  0  0  0  0  0  0  0  0  0  0
  -15.2461  -37.9493  -10.3210 C   0  0  0  0  0  0  0  0  0  0  0  0
  -14.7348  -37.0978  -11.2415 C   0  0  0  0  0  0  0  0  0  0  0  0
  -14.3649  -37.6468  -12.4435 C   0  0  0  0  0  0  0  0  0  0  0  0
  -14.7402  -39.2897  -12.2364 S   0  0  0  0  0  0  0  0  0  0  0  0
  -15.3383  -39.2362  -10.6767 N   0  0  0  0  0  0  0  0  0  0  0  0
  -13.7732  -36.9220  -13.6309 C   0  0  0  0  0  0  0  0  0  0  0  0
  -12.3492  -36.5479  -13.2935 C   0  0  0  0  0  0  0  0  0  0  0  0
  -13.8054  -37.8819  -14.7897 C   0  0  0  0  0  0  0  0  0  0  0  0
  -14.6035  -35.6993  -13.8852 C   0  0  0  0  0  0  0  0  0  0  0  0
  -20.9114  -38.3236   -8.5402 C   0  0  0  0  0  0  0  0  0  0  0  0
  -21.9155  -38.0577   -7.6468 C   0  0  0  0  0  0  0  0  0  0  0  0
  -22.3005  -39.1288   -6.8812 C   0  0  0  0  0  0  0  0  0  0  0  0
  1  2  1  0
  2  3  2  0
  3  4  1  0
  4  5  2  0
  5  6  1  0
  6  7  2  0
  6  8  1  0
  8  9  1  0
  9 10  1  0
 10 11  1  0
 11 12  1  0
 12 13  1  0
 13 14  1  0
 14 15  2  0
 15 16  1  0
 16 17  1  0
 18 17  1  6
 18 19  1  0
 19 20  1  0
 20 21  2  0
 18 22  1  0
 22 23  1  1
 22 24  1  0
 24 25  1  0
 25 26  1  0
 26 27  1  0
 26 28  1  0
 26 29  1  0
 29 30  1  0
 30 31  2  0
 31 32  1  0
 32 33  1  0
 31 34  1  0
 34 35  1  0
 34 36  1  0
 34 37  1  0
 16 38  2  0
 38 39  1  0
 39 40  2  0
  7  2  1  0
 20  4  1  0
 33 29  2  0
 40 14  1  0
M  END
$$$$
