
     RDKit          3D

 40 43  0  0  0  0  0  0  0  0999 V2000
  -19.4247  -40.4072  -12.7126 C   0  0  0  0  0  0  0  0  0  0  0  0
  -19.4486  -39.9559  -11.2926 C   0  0  0  0  0  0  0  0  0  0  0  0
  -18.7984  -40.6548  -10.3136 C   0  0  0  0  0  0  0  0  0  0  0  0
  -18.7727  -40.2906   -8.9348 C   0  0  0  0  0  0  0  0  0  0  0  0
  -19.4516  -39.1586   -8.5897 C   0  0  0  0  0  0  0  0  0  0  0  0
  -20.1228  -38.4306   -9.5719 C   0  0  0  0  0  0  0  0  0  0  0  0
  -20.0817  -38.8757  -10.8790 N   0  0  0  0  0  0  0  0  0  0  0  0
  -20.8582  -37.2894   -9.4831 O   0  0  0  0  0  0  0  0  0  0  0  0
  -22.0084  -36.7529   -9.0359 C   0  0  0  0  0  0  0  0  0  0  0  0
  -23.1443  -37.7452   -8.9832 C   0  0  0  0  0  0  0  0  0  0  0  0
  -23.8135  -37.7539   -7.6033 C   0  0  0  0  0  0  0  0  0  0  0  0
  -24.9795  -38.6931   -7.5925 C   0  0  0  0  0  0  0  0  0  0  0  0
  -24.6666  -39.9303   -7.0247 O   0  0  0  0  0  0  0  0  0  0  0  0
  -23.6389  -40.4055   -6.2250 C   0  0  0  0  0  0  0  0  0  0  0  0
  -22.2793  -40.3981   -6.4752 C   0  0  0  0  0  0  0  0  0  0  0  0
  -21.4559  -40.9289   -5.5150 C   0  0  0  0  0  0  0  0  0  0  0  0
  -19.9650  -41.0522   -5.4642 C   0  0  0  0  0  0  0  0  0  0  0  0
  -19.4455  -42.1908   -6.2766 C   0  0  2  0  0  0  0  0  0  0  0  0
  -18.1831  -41.9031   -6.9175 N   0  0  0  0  0  0  0  0  0  0  0  0
  -17.9911  -41.2569   -8.1615 C   0  0  0  0  0  0  0  0  0  0  0  0
  -16.8479  -41.6526   -8.6911 O   0  0  0  0  0  0  0  0  0  0  0  0
  -20.4186  -42.8062   -7.2528 C   0  0  2  0  0  0  0  0  0  0  0  0
  -21.2870  -43.6927   -6.5934 O   0  0  0  0  0  0  0  0  0  0  0  0
  -19.6537  -43.6821   -8.2268 C   0  0  0  0  0  0  0  0  0  0  0  0
  -18.8992  -44.7347   -7.6072 N   0  0  0  0  0  0  0  0  0  0  0  0
  -17.5477  -44.8211   -8.1315 C   0  0  0  0  0  0  0  0  0  0  0  0
  -16.6029  -45.5914   -7.2756 C   0  0  0  0  0  0  0  0  0  0  0  0
  -17.6492  -45.5195   -9.4736 C   0  0  0  0  0  0  0  0  0  0  0  0
  -17.0432  -43.4028   -8.3956 C   0  0  0  0  0  0  0  0  0  0  0  0
  -15.9919  -43.1384   -9.2071 C   0  0  0  0  0  0  0  0  0  0  0  0
  -15.6498  -41.8177   -9.3539 C   0  0  0  0  0  0  0  0  0  0  0  0
  -16.7870  -41.0248   -8.3735 S   0  0  0  0  0  0  0  0  0  0  0  0
  -17.6397  -42.3517   -7.8208 N   0  0  0  0  0  0  0  0  0  0  0  0
  -14.5252  -41.2574  -10.1946 C   0  0  0  0  0  0  0  0  0  0  0  0
  -13.5645  -40.5375   -9.2778 C   0  0  0  0  0  0  0  0  0  0  0  0
  -13.8471  -42.4280  -10.8542 C   0  0  0  0  0  0  0  0  0  0  0  0
  -15.1232  -40.3126  -11.1939 C   0  0  0  0  0  0  0  0  0  0  0  0
  -22.0092  -41.4590   -4.3268 C   0  0  0  0  0  0  0  0  0  0  0  0
  -23.3513  -41.4825   -4.0522 C   0  0  0  0  0  0  0  0  0  0  0  0
  -24.1466  -40.9429   -5.0309 C   0  0  0  0  0  0  0  0  0  0  0  0
  1  2  1  0
  2  3  2  0
  3  4  1  0
  4  5  2  0
  5  6  1  0
  6  7  2  0
  6  8  1  0
  8  9  1  0
  9 10  1  0
 10 11  1  0
 11 12  1  0
 12 13  1  0
 13 14  1  0
 14 15  2  0
 15 16  1  0
 16 17  1  0
 18 17  1  6
 18 19  1  0
 19 20  1  0
 20 21  2  0
 18 22  1  0
 22 23  1  1
 22 24  1  0
 24 25  1  0
 25 26  1  0
 26 27  1  0
 26 28  1  0
 26 29  1  0
 29 30  1  0
 30 31  2  0
 31 32  1  0
 32 33  1  0
 31 34  1  0
 34 35  1  0
 34 36  1  0
 34 37  1  0
 16 38  2  0
 38 39  1  0
 39 40  2  0
  7  2  1  0
 20  4  1  0
 33 29  2  0
 40 14  1  0
M  END
$$$$
