
     RDKit          3D

 40 43  0  0  0  0  0  0  0  0999 V2000
  -23.0161  -38.8831   -8.2532 C   0  0  0  0  0  0  0  0  0  0  0  0
  -21.8257  -39.4932   -8.9098 C   0  0  0  0  0  0  0  0  0  0  0  0
  -20.9557  -40.2836   -8.2112 C   0  0  0  0  0  0  0  0  0  0  0  0
  -19.7962  -40.9032   -8.7645 C   0  0  0  0  0  0  0  0  0  0  0  0
  -19.5573  -40.6788  -10.0888 C   0  0  0  0  0  0  0  0  0  0  0  0
  -20.4310  -39.8749  -10.8206 C   0  0  0  0  0  0  0  0  0  0  0  0
  -21.5253  -39.3237  -10.1825 N   0  0  0  0  0  0  0  0  0  0  0  0
  -20.4111  -39.5062  -12.1301 O   0  0  0  0  0  0  0  0  0  0  0  0
  -19.7785  -38.7601  -13.0543 C   0  0  0  0  0  0  0  0  0  0  0  0
  -19.1200  -37.5318  -12.4752 C   0  0  0  0  0  0  0  0  0  0  0  0
  -17.6461  -37.4417  -12.8891 C   0  0  0  0  0  0  0  0  0  0  0  0
  -17.0300  -36.1829  -12.3623 C   0  0  0  0  0  0  0  0  0  0  0  0
  -16.2925  -36.3941  -11.1951 O   0  0  0  0  0  0  0  0  0  0  0  0
  -15.7621  -37.5083  -10.5637 C   0  0  0  0  0  0  0  0  0  0  0  0
  -16.4194  -38.6400  -10.1182 C   0  0  0  0  0  0  0  0  0  0  0  0
  -15.6640  -39.6175   -9.5220 C   0  0  0  0  0  0  0  0  0  0  0  0
  -16.0538  -40.9497   -8.9618 C   0  0  0  0  0  0  0  0  0  0  0  0
  -16.6683  -40.8552   -7.6054 C   0  0  2  0  0  0  0  0  0  0  0  0
  -17.7241  -41.8178   -7.3908 N   0  0  0  0  0  0  0  0  0  0  0  0
  -19.0872  -41.6744   -7.7421 C   0  0  0  0  0  0  0  0  0  0  0  0
  -19.8289  -42.4155   -6.9393 O   0  0  0  0  0  0  0  0  0  0  0  0
  -17.0981  -39.4760   -7.1676 C   0  0  2  0  0  0  0  0  0  0  0  0
  -16.0420  -38.5600   -7.3103 O   0  0  0  0  0  0  0  0  0  0  0  0
  -17.3808  -39.4965   -5.6774 C   0  0  0  0  0  0  0  0  0  0  0  0
  -17.9555  -40.7234   -5.2023 N   0  0  0  0  0  0  0  0  0  0  0  0
  -19.1439  -40.4962   -4.3992 C   0  0  0  0  0  0  0  0  0  0  0  0
  -18.9770  -40.8035   -2.9513 C   0  0  0  0  0  0  0  0  0  0  0  0
  -19.4824  -39.0245   -4.5359 C   0  0  0  0  0  0  0  0  0  0  0  0
  -20.2983  -41.2859   -5.0151 C   0  0  0  0  0  0  0  0  0  0  0  0
  -21.2866  -40.7001   -5.7319 C   0  0  0  0  0  0  0  0  0  0  0  0
  -22.2583  -41.5325   -6.2275 C   0  0  0  0  0  0  0  0  0  0  0  0
  -21.7574  -43.0602   -5.6815 S   0  0  0  0  0  0  0  0  0  0  0  0
  -20.3700  -42.6137   -4.8636 N   0  0  0  0  0  0  0  0  0  0  0  0
  -23.4617  -41.1360   -7.0522 C   0  0  0  0  0  0  0  0  0  0  0  0
  -24.6164  -42.0277   -6.6608 C   0  0  0  0  0  0  0  0  0  0  0  0
  -23.7676  -39.7007   -6.7177 C   0  0  0  0  0  0  0  0  0  0  0  0
  -23.1097  -41.3177   -8.4985 C   0  0  0  0  0  0  0  0  0  0  0  0
  -14.2683  -39.4415   -9.3805 C   0  0  0  0  0  0  0  0  0  0  0  0
  -13.5901  -38.3311   -9.8094 C   0  0  0  0  0  0  0  0  0  0  0  0
  -14.3736  -37.3739  -10.4024 C   0  0  0  0  0  0  0  0  0  0  0  0
  1  2  1  0
  2  3  2  0
  3  4  1  0
  4  5  2  0
  5  6  1  0
  6  7  2  0
  6  8  1  0
  8  9  1  0
  9 10  1  0
 10 11  1  0
 11 12  1  0
 12 13  1  0
 13 14  1  0
 14 15  2  0
 15 16  1  0
 16 17  1  0
 18 17  1  6
 18 19  1  0
 19 20  1  0
 20 21  2  0
 18 22  1  0
 22 23  1  1
 22 24  1  0
 24 25  1  0
 25 26  1  0
 26 27  1  0
 26 28  1  0
 26 29  1  0
 29 30  1  0
 30 31  2  0
 31 32  1  0
 32 33  1  0
 31 34  1  0
 34 35  1  0
 34 36  1  0
 34 37  1  0
 16 38  2  0
 38 39  1  0
 39 40  2  0
  7  2  1  0
 20  4  1  0
 33 29  2  0
 40 14  1  0
M  END
$$$$
