
     RDKit          3D

 40 43  0  0  0  0  0  0  0  0999 V2000
  -17.6314  -43.9914  -11.3863 C   0  0  0  0  0  0  0  0  0  0  0  0
  -18.3995  -42.7480  -11.0956 C   0  0  0  0  0  0  0  0  0  0  0  0
  -17.7649  -41.5704  -10.8119 C   0  0  0  0  0  0  0  0  0  0  0  0
  -18.4254  -40.3395  -10.5235 C   0  0  0  0  0  0  0  0  0  0  0  0
  -19.7894  -40.3607  -10.5383 C   0  0  0  0  0  0  0  0  0  0  0  0
  -20.4576  -41.5510  -10.8241 C   0  0  0  0  0  0  0  0  0  0  0  0
  -19.7167  -42.6865  -11.0890 N   0  0  0  0  0  0  0  0  0  0  0  0
  -21.7881  -41.8259  -10.8980 O   0  0  0  0  0  0  0  0  0  0  0  0
  -22.9244  -41.9655  -10.1907 C   0  0  0  0  0  0  0  0  0  0  0  0
  -22.6876  -42.4288   -8.7741 C   0  0  0  0  0  0  0  0  0  0  0  0
  -23.3877  -41.5120   -7.7634 C   0  0  0  0  0  0  0  0  0  0  0  0
  -23.1983  -42.0269   -6.3703 C   0  0  0  0  0  0  0  0  0  0  0  0
  -22.1772  -41.3626   -5.6869 O   0  0  0  0  0  0  0  0  0  0  0  0
  -21.4901  -40.1734   -5.8742 C   0  0  0  0  0  0  0  0  0  0  0  0
  -20.7507  -39.7695   -6.9703 C   0  0  0  0  0  0  0  0  0  0  0  0
  -20.1631  -38.5312   -6.9163 C   0  0  0  0  0  0  0  0  0  0  0  0
  -19.3322  -37.7980   -7.9226 C   0  0  0  0  0  0  0  0  0  0  0  0
  -17.9156  -38.2649   -7.9612 C   0  0  2  0  0  0  0  0  0  0  0  0
  -17.3497  -38.2563   -9.2905 N   0  0  0  0  0  0  0  0  0  0  0  0
  -17.4493  -39.2806  -10.2615 C   0  0  0  0  0  0  0  0  0  0  0  0
  -16.4102  -39.2192  -11.0742 O   0  0  0  0  0  0  0  0  0  0  0  0
  -17.6295  -39.5714   -7.2612 C   0  0  2  0  0  0  0  0  0  0  0  0
  -18.1108  -39.5413   -5.9412 O   0  0  0  0  0  0  0  0  0  0  0  0
  -16.1287  -39.7334   -7.1118 C   0  0  0  0  0  0  0  0  0  0  0  0
  -15.5255  -40.5842   -8.0984 N   0  0  0  0  0  0  0  0  0  0  0  0
  -15.2052  -39.8652   -9.3188 C   0  0  0  0  0  0  0  0  0  0  0  0
  -14.6038  -38.5200   -9.1015 C   0  0  0  0  0  0  0  0  0  0  0  0
  -14.2019  -40.7176  -10.0712 C   0  0  0  0  0  0  0  0  0  0  0  0
  -16.4677  -39.7880  -10.1765 C   0  0  0  0  0  0  0  0  0  0  0  0
  -16.4901  -39.2002  -11.3963 C   0  0  0  0  0  0  0  0  0  0  0  0
  -17.6933  -39.2057  -12.0558 C   0  0  0  0  0  0  0  0  0  0  0  0
  -18.7143  -40.0135  -10.9659 S   0  0  0  0  0  0  0  0  0  0  0  0
  -17.6187  -40.3130   -9.7398 N   0  0  0  0  0  0  0  0  0  0  0  0
  -17.9863  -38.6207  -13.4186 C   0  0  0  0  0  0  0  0  0  0  0  0
  -16.7217  -37.9784  -13.9381 C   0  0  0  0  0  0  0  0  0  0  0  0
  -18.3993  -39.7642  -14.3058 C   0  0  0  0  0  0  0  0  0  0  0  0
  -19.0779  -37.6048  -13.2593 C   0  0  0  0  0  0  0  0  0  0  0  0
  -20.3240  -37.7244   -5.7665 C   0  0  0  0  0  0  0  0  0  0  0  0
  -21.0481  -38.0982   -4.6651 C   0  0  0  0  0  0  0  0  0  0  0  0
  -21.6238  -39.3403   -4.7516 C   0  0  0  0  0  0  0  0  0  0  0  0
  1  2  1  0
  2  3  2  0
  3  4  1  0
  4  5  2  0
  5  6  1  0
  6  7  2  0
  6  8  1  0
  8  9  1  0
  9 10  1  0
 10 11  1  0
 11 12  1  0
 12 13  1  0
 13 14  1  0
 14 15  2  0
 15 16  1  0
 16 17  1  0
 18 17  1  6
 18 19  1  0
 19 20  1  0
 20 21  2  0
 18 22  1  0
 22 23  1  1
 22 24  1  0
 24 25  1  0
 25 26  1  0
 26 27  1  0
 26 28  1  0
 26 29  1  0
 29 30  1  0
 30 31  2  0
 31 32  1  0
 32 33  1  0
 31 34  1  0
 34 35  1  0
 34 36  1  0
 34 37  1  0
 16 38  2  0
 38 39  1  0
 39 40  2  0
  7  2  1  0
 20  4  1  0
 33 29  2  0
 40 14  1  0
M  END
$$$$
