
     RDKit          3D

 40 43  0  0  0  0  0  0  0  0999 V2000
  -23.2190  -43.1154   -5.9826 C   0  0  0  0  0  0  0  0  0  0  0  0
  -22.1122  -43.2673   -6.9688 C   0  0  0  0  0  0  0  0  0  0  0  0
  -20.8091  -43.0548   -6.6132 C   0  0  0  0  0  0  0  0  0  0  0  0
  -19.6948  -43.1791   -7.4949 C   0  0  0  0  0  0  0  0  0  0  0  0
  -19.9717  -43.5383   -8.7816 C   0  0  0  0  0  0  0  0  0  0  0  0
  -21.2939  -43.7592   -9.1666 C   0  0  0  0  0  0  0  0  0  0  0  0
  -22.2971  -43.6096   -8.2287 N   0  0  0  0  0  0  0  0  0  0  0  0
  -21.8195  -44.1187  -10.3690 O   0  0  0  0  0  0  0  0  0  0  0  0
  -22.0679  -43.7126  -11.6277 C   0  0  0  0  0  0  0  0  0  0  0  0
  -22.2754  -42.2220  -11.7395 C   0  0  0  0  0  0  0  0  0  0  0  0
  -21.3726  -41.6128  -12.8193 C   0  0  0  0  0  0  0  0  0  0  0  0
  -21.6426  -40.1471  -12.9621 C   0  0  0  0  0  0  0  0  0  0  0  0
  -20.7104  -39.3610  -12.2810 O   0  0  0  0  0  0  0  0  0  0  0  0
  -19.4522  -39.5840  -11.7437 C   0  0  0  0  0  0  0  0  0  0  0  0
  -19.0754  -40.5096  -10.7884 C   0  0  0  0  0  0  0  0  0  0  0  0
  -17.7542  -40.5382  -10.4208 C   0  0  0  0  0  0  0  0  0  0  0  0
  -17.0275  -41.4165   -9.4507 C   0  0  0  0  0  0  0  0  0  0  0  0
  -17.2230  -41.0037   -8.0302 C   0  0  2  0  0  0  0  0  0  0  0  0
  -17.2956  -42.1214   -7.1178 N   0  0  0  0  0  0  0  0  0  0  0  0
  -18.4464  -42.8776   -6.7925 C   0  0  0  0  0  0  0  0  0  0  0  0
  -18.3070  -43.3940   -5.5852 O   0  0  0  0  0  0  0  0  0  0  0  0
  -18.3418  -40.0235   -7.7733 C   0  0  2  0  0  0  0  0  0  0  0  0
  -18.1186  -38.8239   -8.4704 O   0  0  0  0  0  0  0  0  0  0  0  0
  -18.3188  -39.6199   -6.3112 C   0  0  0  0  0  0  0  0  0  0  0  0
  -18.9077  -38.3383   -6.0431 N   0  0  0  0  0  0  0  0  0  0  0  0
  -20.3185  -38.4422   -5.7146 C   0  0  0  0  0  0  0  0  0  0  0  0
  -20.6223  -38.3310   -4.2606 C   0  0  0  0  0  0  0  0  0  0  0  0
  -21.0141  -37.3025   -6.4332 C   0  0  0  0  0  0  0  0  0  0  0  0
  -20.8548  -39.7455   -6.3059 C   0  0  0  0  0  0  0  0  0  0  0  0
  -21.1453  -39.8885   -7.6208 C   0  0  0  0  0  0  0  0  0  0  0  0
  -21.6176  -41.1158   -8.0126 C   0  0  0  0  0  0  0  0  0  0  0  0
  -21.6336  -41.9928   -6.5588 S   0  0  0  0  0  0  0  0  0  0  0  0
  -21.0576  -40.8129   -5.5247 N   0  0  0  0  0  0  0  0  0  0  0  0
  -22.0140  -41.5340   -9.4103 C   0  0  0  0  0  0  0  0  0  0  0  0
  -22.7775  -42.8338   -9.3150 C   0  0  0  0  0  0  0  0  0  0  0  0
  -22.8950  -40.4444   -9.9596 C   0  0  0  0  0  0  0  0  0  0  0  0
  -20.7592  -41.7063  -10.2132 C   0  0  0  0  0  0  0  0  0  0  0  0
  -16.8383  -39.6386  -11.0132 C   0  0  0  0  0  0  0  0  0  0  0  0
  -17.1822  -38.7096  -11.9596 C   0  0  0  0  0  0  0  0  0  0  0  0
  -18.5095  -38.7082  -12.3062 C   0  0  0  0  0  0  0  0  0  0  0  0
  1  2  1  0
  2  3  2  0
  3  4  1  0
  4  5  2  0
  5  6  1  0
  6  7  2  0
  6  8  1  0
  8  9  1  0
  9 10  1  0
 10 11  1  0
 11 12  1  0
 12 13  1  0
 13 14  1  0
 14 15  2  0
 15 16  1  0
 16 17  1  0
 18 17  1  6
 18 19  1  0
 19 20  1  0
 20 21  2  0
 18 22  1  0
 22 23  1  6
 22 24  1  0
 24 25  1  0
 25 26  1  0
 26 27  1  0
 26 28  1  0
 26 29  1  0
 29 30  1  0
 30 31  2  0
 31 32  1  0
 32 33  1  0
 31 34  1  0
 34 35  1  0
 34 36  1  0
 34 37  1  0
 16 38  2  0
 38 39  1  0
 39 40  2  0
  7  2  1  0
 20  4  1  0
 33 29  2  0
 40 14  1  0
M  END
$$$$
