
     RDKit          3D

 40 43  0  0  0  0  0  0  0  0999 V2000
  -17.2273  -45.3947   -6.8886 C   0  0  0  0  0  0  0  0  0  0  0  0
  -18.3091  -44.5566   -7.4784 C   0  0  0  0  0  0  0  0  0  0  0  0
  -18.0386  -43.6144   -8.4317 C   0  0  0  0  0  0  0  0  0  0  0  0
  -19.0145  -42.7739   -9.0446 C   0  0  0  0  0  0  0  0  0  0  0  0
  -20.3057  -42.9396   -8.6362 C   0  0  0  0  0  0  0  0  0  0  0  0
  -20.6045  -43.8941   -7.6642 C   0  0  0  0  0  0  0  0  0  0  0  0
  -19.5789  -44.6548   -7.1368 N   0  0  0  0  0  0  0  0  0  0  0  0
  -21.7919  -44.2434   -7.0993 O   0  0  0  0  0  0  0  0  0  0  0  0
  -22.7747  -43.8484   -6.2692 C   0  0  0  0  0  0  0  0  0  0  0  0
  -22.2999  -42.8955   -5.1995 C   0  0  0  0  0  0  0  0  0  0  0  0
  -23.1626  -41.6282   -5.1589 C   0  0  0  0  0  0  0  0  0  0  0  0
  -22.7191  -40.7280   -4.0478 C   0  0  0  0  0  0  0  0  0  0  0  0
  -21.8956  -39.6915   -4.4933 O   0  0  0  0  0  0  0  0  0  0  0  0
  -21.6153  -39.1298   -5.7291 C   0  0  0  0  0  0  0  0  0  0  0  0
  -21.1195  -39.7464   -6.8628 C   0  0  0  0  0  0  0  0  0  0  0  0
  -20.9299  -38.9672   -7.9758 C   0  0  0  0  0  0  0  0  0  0  0  0
  -20.4393  -39.3205   -9.3451 C   0  0  0  0  0  0  0  0  0  0  0  0
  -18.9554  -39.4591   -9.4157 C   0  0  2  0  0  0  0  0  0  0  0  0
  -18.5237  -40.5028  -10.3166 N   0  0  0  0  0  0  0  0  0  0  0  0
  -18.3854  -41.8786  -10.0168 C   0  0  0  0  0  0  0  0  0  0  0  0
  -17.4796  -42.4141  -10.8148 O   0  0  0  0  0  0  0  0  0  0  0  0
  -18.2356  -39.5563   -8.0924 C   0  0  2  0  0  0  0  0  0  0  0  0
  -18.7492  -38.6194   -7.1797 O   0  0  0  0  0  0  0  0  0  0  0  0
  -16.7893  -39.1412   -8.2852 C   0  0  0  0  0  0  0  0  0  0  0  0
  -16.1288  -39.7936   -9.3803 N   0  0  0  0  0  0  0  0  0  0  0  0
  -16.6335  -39.3487  -10.6673 C   0  0  0  0  0  0  0  0  0  0  0  0
  -17.6964  -40.2172  -11.2458 C   0  0  0  0  0  0  0  0  0  0  0  0
  -17.2174  -37.9667  -10.4476 C   0  0  0  0  0  0  0  0  0  0  0  0
  -15.4490  -39.1940  -11.6206 C   0  0  0  0  0  0  0  0  0  0  0  0
  -14.5884  -38.1505  -11.5566 C   0  0  0  0  0  0  0  0  0  0  0  0
  -13.5688  -38.1415  -12.4748 C   0  0  0  0  0  0  0  0  0  0  0  0
  -13.8535  -39.5592  -13.3647 S   0  0  0  0  0  0  0  0  0  0  0  0
  -15.2179  -40.1079  -12.5706 N   0  0  0  0  0  0  0  0  0  0  0  0
  -12.4828  -37.0996  -12.6180 C   0  0  0  0  0  0  0  0  0  0  0  0
  -11.5853  -37.5080  -13.7623 C   0  0  0  0  0  0  0  0  0  0  0  0
  -13.1667  -35.7944  -12.9247 C   0  0  0  0  0  0  0  0  0  0  0  0
  -11.7191  -37.0494  -11.3285 C   0  0  0  0  0  0  0  0  0  0  0  0
  -21.2363  -37.5877   -7.9308 C   0  0  0  0  0  0  0  0  0  0  0  0
  -21.7261  -36.9488   -6.8222 C   0  0  0  0  0  0  0  0  0  0  0  0
  -21.9060  -37.7558   -5.7277 C   0  0  0  0  0  0  0  0  0  0  0  0
  1  2  1  0
  2  3  2  0
  3  4  1  0
  4  5  2  0
  5  6  1  0
  6  7  2  0
  6  8  1  0
  8  9  1  0
  9 10  1  0
 10 11  1  0
 11 12  1  0
 12 13  1  0
 13 14  1  0
 14 15  2  0
 15 16  1  0
 16 17  1  0
 18 17  1  1
 18 19  1  0
 19 20  1  0
 20 21  2  0
 18 22  1  0
 22 23  1  1
 22 24  1  0
 24 25  1  0
 25 26  1  0
 26 27  1  0
 26 28  1  0
 26 29  1  0
 29 30  1  0
 30 31  2  0
 31 32  1  0
 32 33  1  0
 31 34  1  0
 34 35  1  0
 34 36  1  0
 34 37  1  0
 16 38  2  0
 38 39  1  0
 39 40  2  0
  7  2  1  0
 20  4  1  0
 33 29  2  0
 40 14  1  0
M  END
$$$$
