
     RDKit          3D

 40 43  0  0  0  0  0  0  0  0999 V2000
  -17.1850  -45.5429   -5.8516 C   0  0  0  0  0  0  0  0  0  0  0  0
  -18.1717  -44.8566   -6.7324 C   0  0  0  0  0  0  0  0  0  0  0  0
  -17.7689  -44.1150   -7.8083 C   0  0  0  0  0  0  0  0  0  0  0  0
  -18.6477  -43.4289   -8.6980 C   0  0  0  0  0  0  0  0  0  0  0  0
  -19.9830  -43.5345   -8.4391 C   0  0  0  0  0  0  0  0  0  0  0  0
  -20.4164  -44.2850   -7.3464 C   0  0  0  0  0  0  0  0  0  0  0  0
  -19.4764  -44.9087   -6.5489 N   0  0  0  0  0  0  0  0  0  0  0  0
  -21.6713  -44.5381   -6.8856 O   0  0  0  0  0  0  0  0  0  0  0  0
  -22.7524  -44.0057   -6.2867 C   0  0  0  0  0  0  0  0  0  0  0  0
  -22.4162  -42.8530   -5.3725 C   0  0  0  0  0  0  0  0  0  0  0  0
  -23.2661  -41.6182   -5.6965 C   0  0  0  0  0  0  0  0  0  0  0  0
  -22.9668  -40.5095   -4.7357 C   0  0  0  0  0  0  0  0  0  0  0  0
  -22.0827  -39.5659   -5.2638 O   0  0  0  0  0  0  0  0  0  0  0  0
  -21.6359  -39.2526   -6.5380 C   0  0  0  0  0  0  0  0  0  0  0  0
  -20.9989  -40.0707   -7.4525 C   0  0  0  0  0  0  0  0  0  0  0  0
  -20.6564  -39.5218   -8.6621 C   0  0  0  0  0  0  0  0  0  0  0  0
  -19.9911  -40.1279   -9.8581 C   0  0  0  0  0  0  0  0  0  0  0  0
  -18.5121  -40.2508   -9.7034 C   0  0  2  0  0  0  0  0  0  0  0  0
  -17.9731  -41.4430  -10.3162 N   0  0  0  0  0  0  0  0  0  0  0  0
  -17.8874  -42.7306   -9.7358 C   0  0  0  0  0  0  0  0  0  0  0  0
  -16.8880  -43.3957  -10.2860 O   0  0  0  0  0  0  0  0  0  0  0  0
  -17.9755  -40.0734   -8.3037 C   0  0  2  0  0  0  0  0  0  0  0  0
  -18.8162  -39.2330   -7.5543 O   0  0  0  0  0  0  0  0  0  0  0  0
  -16.6575  -39.3254   -8.3711 C   0  0  0  0  0  0  0  0  0  0  0  0
  -15.5842  -40.0726   -8.9635 N   0  0  0  0  0  0  0  0  0  0  0  0
  -15.4111  -39.7596  -10.3710 C   0  0  0  0  0  0  0  0  0  0  0  0
  -14.2687  -40.4596  -11.0218 C   0  0  0  0  0  0  0  0  0  0  0  0
  -16.6882  -40.1860  -11.0683 C   0  0  0  0  0  0  0  0  0  0  0  0
  -15.3006  -38.2422  -10.5157 C   0  0  0  0  0  0  0  0  0  0  0  0
  -14.4585  -37.6494  -11.3951 C   0  0  0  0  0  0  0  0  0  0  0  0
  -14.4655  -36.2775  -11.4187 C   0  0  0  0  0  0  0  0  0  0  0  0
  -15.6220  -35.8883  -10.2380 S   0  0  0  0  0  0  0  0  0  0  0  0
  -16.0518  -37.4314   -9.7612 N   0  0  0  0  0  0  0  0  0  0  0  0
  -13.6277  -35.3786  -12.2993 C   0  0  0  0  0  0  0  0  0  0  0  0
  -14.5282  -34.3127  -12.8777 C   0  0  0  0  0  0  0  0  0  0  0  0
  -12.5767  -34.7591  -11.4178 C   0  0  0  0  0  0  0  0  0  0  0  0
  -13.0303  -36.2234  -13.3847 C   0  0  0  0  0  0  0  0  0  0  0  0
  -20.9546  -38.1660   -8.9305 C   0  0  0  0  0  0  0  0  0  0  0  0
  -21.5821  -37.3309   -8.0440 C   0  0  0  0  0  0  0  0  0  0  0  0
  -21.9127  -37.9106   -6.8455 C   0  0  0  0  0  0  0  0  0  0  0  0
  1  2  1  0
  2  3  2  0
  3  4  1  0
  4  5  2  0
  5  6  1  0
  6  7  2  0
  6  8  1  0
  8  9  1  0
  9 10  1  0
 10 11  1  0
 11 12  1  0
 12 13  1  0
 13 14  1  0
 14 15  2  0
 15 16  1  0
 16 17  1  0
 18 17  1  1
 18 19  1  0
 19 20  1  0
 20 21  2  0
 18 22  1  0
 22 23  1  1
 22 24  1  0
 24 25  1  0
 25 26  1  0
 26 27  1  0
 26 28  1  0
 26 29  1  0
 29 30  1  0
 30 31  2  0
 31 32  1  0
 32 33  1  0
 31 34  1  0
 34 35  1  0
 34 36  1  0
 34 37  1  0
 16 38  2  0
 38 39  1  0
 39 40  2  0
  7  2  1  0
 20  4  1  0
 33 29  2  0
 40 14  1  0
M  END
$$$$
