
     RDKit          3D

 40 43  0  0  0  0  0  0  0  0999 V2000
  -18.3397  -46.1143   -6.2544 C   0  0  0  0  0  0  0  0  0  0  0  0
  -19.1898  -45.0607   -6.8772 C   0  0  0  0  0  0  0  0  0  0  0  0
  -18.7027  -44.2423   -7.8583 C   0  0  0  0  0  0  0  0  0  0  0  0
  -19.4495  -43.2125   -8.5036 C   0  0  0  0  0  0  0  0  0  0  0  0
  -20.7420  -43.0502   -8.0979 C   0  0  0  0  0  0  0  0  0  0  0  0
  -21.2594  -43.8731   -7.0978 C   0  0  0  0  0  0  0  0  0  0  0  0
  -20.4454  -44.8402   -6.5403 N   0  0  0  0  0  0  0  0  0  0  0  0
  -22.4950  -43.9089   -6.5293 O   0  0  0  0  0  0  0  0  0  0  0  0
  -23.3527  -43.2629   -5.7182 C   0  0  0  0  0  0  0  0  0  0  0  0
  -22.6612  -42.4176   -4.6766 C   0  0  0  0  0  0  0  0  0  0  0  0
  -23.1945  -40.9797   -4.6817 C   0  0  0  0  0  0  0  0  0  0  0  0
  -22.5460  -40.1766   -3.5971 C   0  0  0  0  0  0  0  0  0  0  0  0
  -21.4985  -39.3830   -4.0704 O   0  0  0  0  0  0  0  0  0  0  0  0
  -21.0938  -38.9453   -5.3218 C   0  0  0  0  0  0  0  0  0  0  0  0
  -20.7625  -39.6993   -6.4323 C   0  0  0  0  0  0  0  0  0  0  0  0
  -20.3934  -39.0249   -7.5683 C   0  0  0  0  0  0  0  0  0  0  0  0
  -20.0044  -39.5297   -8.9227 C   0  0  0  0  0  0  0  0  0  0  0  0
  -18.5972  -40.0225   -8.9799 C   0  0  2  0  0  0  0  0  0  0  0  0
  -18.4302  -41.1679   -9.8444 N   0  0  0  0  0  0  0  0  0  0  0  0
  -18.6256  -42.5263   -9.5001 C   0  0  0  0  0  0  0  0  0  0  0  0
  -17.8763  -43.2890  -10.2751 O   0  0  0  0  0  0  0  0  0  0  0  0
  -17.9194  -40.2467   -7.6498 C   0  0  2  0  0  0  0  0  0  0  0  0
  -17.3723  -39.0466   -7.1648 O   0  0  0  0  0  0  0  0  0  0  0  0
  -16.7200  -41.1529   -7.8532 C   0  0  0  0  0  0  0  0  0  0  0  0
  -15.9318  -40.8381   -9.0112 N   0  0  0  0  0  0  0  0  0  0  0  0
  -15.6964  -39.4111   -9.1415 C   0  0  0  0  0  0  0  0  0  0  0  0
  -15.8998  -38.6359   -7.8859 C   0  0  0  0  0  0  0  0  0  0  0  0
  -14.2509  -39.2494   -9.5701 C   0  0  0  0  0  0  0  0  0  0  0  0
  -16.5685  -38.8822  -10.2797 C   0  0  0  0  0  0  0  0  0  0  0  0
  -17.4973  -39.6433  -10.9055 C   0  0  0  0  0  0  0  0  0  0  0  0
  -18.2095  -39.0368  -11.9093 C   0  0  0  0  0  0  0  0  0  0  0  0
  -17.5630  -37.4669  -11.9317 S   0  0  0  0  0  0  0  0  0  0  0  0
  -16.4402  -37.6191  -10.7031 N   0  0  0  0  0  0  0  0  0  0  0  0
  -19.2943  -39.6588  -12.7590 C   0  0  0  0  0  0  0  0  0  0  0  0
  -20.6132  -39.0312  -12.3739 C   0  0  0  0  0  0  0  0  0  0  0  0
  -18.9604  -39.3456  -14.1927 C   0  0  0  0  0  0  0  0  0  0  0  0
  -19.3027  -41.1339  -12.4887 C   0  0  0  0  0  0  0  0  0  0  0  0
  -20.3597  -37.6114   -7.5692 C   0  0  0  0  0  0  0  0  0  0  0  0
  -20.6799  -36.8381   -6.4846 C   0  0  0  0  0  0  0  0  0  0  0  0
  -21.0462  -37.5424   -5.3660 C   0  0  0  0  0  0  0  0  0  0  0  0
  1  2  1  0
  2  3  2  0
  3  4  1  0
  4  5  2  0
  5  6  1  0
  6  7  2  0
  6  8  1  0
  8  9  1  0
  9 10  1  0
 10 11  1  0
 11 12  1  0
 12 13  1  0
 13 14  1  0
 14 15  2  0
 15 16  1  0
 16 17  1  0
 18 17  1  1
 18 19  1  0
 19 20  1  0
 20 21  2  0
 18 22  1  0
 22 23  1  6
 22 24  1  0
 24 25  1  0
 25 26  1  0
 26 27  1  0
 26 28  1  0
 26 29  1  0
 29 30  1  0
 30 31  2  0
 31 32  1  0
 32 33  1  0
 31 34  1  0
 34 35  1  0
 34 36  1  0
 34 37  1  0
 16 38  2  0
 38 39  1  0
 39 40  2  0
  7  2  1  0
 20  4  1  0
 33 29  2  0
 40 14  1  0
M  END
$$$$
