
     RDKit          3D

 28 30  0  0  0  0  0  0  0  0999 V2000
  -15.0480  -38.2140   -8.2372 N   0  0  0  0  0  0  0  0  0  0  0  0
  -15.3609  -39.6242   -8.0898 C   0  0  0  0  0  0  0  0  0  0  0  0
  -16.6831  -39.7398   -7.3083 C   0  0  1  0  0  0  0  0  0  0  0  0
  -16.4338  -39.2315   -6.0053 O   0  0  0  0  0  0  0  0  0  0  0  0
  -17.6855  -38.8501   -7.9642 C   0  0  2  0  0  0  0  0  0  0  0  0
  -18.7314  -38.2677   -7.0659 C   0  0  0  0  0  0  0  0  0  0  0  0
  -20.0219  -39.0476   -7.0261 C   0  0  0  0  0  0  0  0  0  0  0  0
  -20.9919  -38.4141   -7.8297 C   0  0  0  0  0  0  0  0  0  0  0  0
  -22.2841  -38.8570   -7.9631 C   0  0  0  0  0  0  0  0  0  0  0  0
  -22.5639  -39.9847   -7.2391 C   0  0  0  0  0  0  0  0  0  0  0  0
  -21.6422  -40.6627   -6.4209 C   0  0  0  0  0  0  0  0  0  0  0  0
  -20.3387  -40.1682   -6.3228 C   0  0  0  0  0  0  0  0  0  0  0  0
  -22.1810  -41.7626   -5.8021 O   0  0  0  0  0  0  0  0  0  0  0  0
  -22.0607  -43.0961   -5.5928 C   0  0  0  0  0  0  0  0  0  0  0  0
  -21.9731  -43.9290   -6.8494 C   0  0  0  0  0  0  0  0  0  0  0  0
  -21.1999  -44.7265   -7.4493 C   0  0  0  0  0  0  0  0  0  0  0  0
  -19.8677  -45.3976   -7.3643 C   0  0  0  0  0  0  0  0  0  0  0  0
  -19.1050  -45.1948   -8.5733 N   0  0  0  0  0  0  0  0  0  0  0  0
  -18.4599  -44.0336   -9.1116 C   0  0  0  0  0  0  0  0  0  0  0  0
  -18.7884  -42.6982   -9.1451 C   0  0  0  0  0  0  0  0  0  0  0  0
  -17.8964  -41.8533   -9.7912 C   0  0  0  0  0  0  0  0  0  0  0  0
  -16.7182  -42.3981  -10.3730 C   0  0  0  0  0  0  0  0  0  0  0  0
  -16.4069  -43.7331  -10.3303 C   0  0  0  0  0  0  0  0  0  0  0  0
  -14.9400  -44.3656  -11.0605 Cl  0  0  0  0  0  0  0  0  0  0  0  0
  -17.2801  -44.4897   -9.7072 N   0  0  0  0  0  0  0  0  0  0  0  0
  -17.9090  -40.4016  -10.0177 C   0  0  0  0  0  0  0  0  0  0  0  0
  -17.5597  -40.0411  -11.2429 O   0  0  0  0  0  0  0  0  0  0  0  0
  -18.2078  -39.2893   -9.2253 N   0  0  0  0  0  0  0  0  0  0  0  0
  1  2  1  0
  2  3  1  0
  3  4  1  1
  3  5  1  0
  5  6  1  1
  6  7  1  0
  7  8  1  0
  8  9  2  0
  9 10  1  0
 10 11  2  0
 11 12  1  0
 11 13  1  0
 13 14  1  0
 14 15  1  0
 15 16  2  0
 16 17  1  0
 17 18  1  0
 18 19  1  0
 19 20  1  0
 20 21  2  0
 21 22  1  0
 22 23  2  0
 23 24  1  0
 23 25  1  0
 21 26  1  0
 26 27  2  0
 26 28  1  0
 12  7  2  0
 25 19  2  0
 28  5  1  0
M  END
$$$$
