
     RDKit          3D

 28 30  0  0  0  0  0  0  0  0999 V2000
  -14.8725  -38.8299   -8.9112 N   0  0  0  0  0  0  0  0  0  0  0  0
  -15.0335  -39.3952   -7.5835 C   0  0  0  0  0  0  0  0  0  0  0  0
  -16.5375  -39.6241   -7.3422 C   0  0  1  0  0  0  0  0  0  0  0  0
  -16.8339  -39.0804   -6.0636 O   0  0  0  0  0  0  0  0  0  0  0  0
  -17.2926  -38.8385   -8.3616 C   0  0  2  0  0  0  0  0  0  0  0  0
  -18.2799  -37.8490   -7.8265 C   0  0  0  0  0  0  0  0  0  0  0  0
  -19.6943  -38.3659   -7.7398 C   0  0  0  0  0  0  0  0  0  0  0  0
  -20.4542  -37.8715   -8.8197 C   0  0  0  0  0  0  0  0  0  0  0  0
  -21.7913  -38.1264   -8.9956 C   0  0  0  0  0  0  0  0  0  0  0  0
  -22.3413  -38.9136   -8.0199 C   0  0  0  0  0  0  0  0  0  0  0  0
  -21.6383  -39.4376   -6.9200 C   0  0  0  0  0  0  0  0  0  0  0  0
  -20.2773  -39.1472   -6.7909 C   0  0  0  0  0  0  0  0  0  0  0  0
  -22.4275  -40.1912   -6.0878 O   0  0  0  0  0  0  0  0  0  0  0  0
  -22.5822  -41.3944   -5.4837 C   0  0  0  0  0  0  0  0  0  0  0  0
  -22.5498  -42.5807   -6.4175 C   0  0  0  0  0  0  0  0  0  0  0  0
  -21.8954  -43.6359   -6.6452 C   0  0  0  0  0  0  0  0  0  0  0  0
  -20.7279  -44.4464   -6.1844 C   0  0  0  0  0  0  0  0  0  0  0  0
  -19.8414  -44.7527   -7.2820 N   0  0  0  0  0  0  0  0  0  0  0  0
  -18.9434  -43.9333   -8.0411 C   0  0  0  0  0  0  0  0  0  0  0  0
  -19.0067  -42.6409   -8.5083 C   0  0  0  0  0  0  0  0  0  0  0  0
  -17.9186  -42.1900   -9.2428 C   0  0  0  0  0  0  0  0  0  0  0  0
  -16.8215  -43.0661   -9.4711 C   0  0  0  0  0  0  0  0  0  0  0  0
  -16.7755  -44.3525   -8.9978 C   0  0  0  0  0  0  0  0  0  0  0  0
  -15.4003  -45.4022   -9.3009 Cl  0  0  0  0  0  0  0  0  0  0  0  0
  -17.8266  -44.7308   -8.3081 N   0  0  0  0  0  0  0  0  0  0  0  0
  -17.6345  -40.8983   -9.8828 C   0  0  0  0  0  0  0  0  0  0  0  0
  -17.1208  -40.9973  -11.0992 O   0  0  0  0  0  0  0  0  0  0  0  0
  -17.7810  -39.5620   -9.4991 N   0  0  0  0  0  0  0  0  0  0  0  0
  1  2  1  0
  2  3  1  0
  3  4  1  1
  3  5  1  0
  5  6  1  1
  6  7  1  0
  7  8  1  0
  8  9  2  0
  9 10  1  0
 10 11  2  0
 11 12  1  0
 11 13  1  0
 13 14  1  0
 14 15  1  0
 15 16  2  0
 16 17  1  0
 17 18  1  0
 18 19  1  0
 19 20  1  0
 20 21  2  0
 21 22  1  0
 22 23  2  0
 23 24  1  0
 23 25  1  0
 21 26  1  0
 26 27  2  0
 26 28  1  0
 12  7  2  0
 25 19  2  0
 28  5  1  0
M  END
$$$$
