
     RDKit          3D

 28 30  0  0  0  0  0  0  0  0999 V2000
  -14.8241  -39.4034   -9.3234 N   0  0  0  0  0  0  0  0  0  0  0  0
  -14.9704  -39.8493   -7.9494 C   0  0  0  0  0  0  0  0  0  0  0  0
  -16.4706  -39.8344   -7.6006 C   0  0  1  0  0  0  0  0  0  0  0  0
  -16.6019  -39.1018   -6.3905 O   0  0  0  0  0  0  0  0  0  0  0  0
  -17.1856  -39.0822   -8.6728 C   0  0  2  0  0  0  0  0  0  0  0  0
  -18.0832  -37.9774   -8.2106 C   0  0  0  0  0  0  0  0  0  0  0  0
  -19.5306  -38.3739   -8.0586 C   0  0  0  0  0  0  0  0  0  0  0  0
  -20.2737  -37.9157   -9.1658 C   0  0  0  0  0  0  0  0  0  0  0  0
  -21.6298  -38.0803   -9.2991 C   0  0  0  0  0  0  0  0  0  0  0  0
  -22.2169  -38.7367   -8.2510 C   0  0  0  0  0  0  0  0  0  0  0  0
  -21.5324  -39.2182   -7.1204 C   0  0  0  0  0  0  0  0  0  0  0  0
  -20.1508  -39.0241   -7.0372 C   0  0  0  0  0  0  0  0  0  0  0  0
  -22.3584  -39.8349   -6.2147 O   0  0  0  0  0  0  0  0  0  0  0  0
  -22.5910  -40.9667   -5.5066 C   0  0  0  0  0  0  0  0  0  0  0  0
  -22.6687  -42.2271   -6.3348 C   0  0  0  0  0  0  0  0  0  0  0  0
  -22.1014  -43.3454   -6.4801 C   0  0  0  0  0  0  0  0  0  0  0  0
  -20.9891  -44.2017   -5.9683 C   0  0  0  0  0  0  0  0  0  0  0  0
  -20.1521  -44.6680   -7.0484 N   0  0  0  0  0  0  0  0  0  0  0  0
  -19.2111  -43.9880   -7.8887 C   0  0  0  0  0  0  0  0  0  0  0  0
  -19.1861  -42.7391   -8.4648 C   0  0  0  0  0  0  0  0  0  0  0  0
  -18.0828  -42.4380   -9.2516 C   0  0  0  0  0  0  0  0  0  0  0  0
  -17.0605  -43.4126   -9.4195 C   0  0  0  0  0  0  0  0  0  0  0  0
  -17.1022  -44.6538   -8.8376 C   0  0  0  0  0  0  0  0  0  0  0  0
  -15.8175  -45.8288   -9.0692 Cl  0  0  0  0  0  0  0  0  0  0  0  0
  -18.1639  -44.8895   -8.1023 N   0  0  0  0  0  0  0  0  0  0  0  0
  -17.7154  -41.2312  -10.0050 C   0  0  0  0  0  0  0  0  0  0  0  0
  -17.2368  -41.4728  -11.2158 O   0  0  0  0  0  0  0  0  0  0  0  0
  -17.7518  -39.8598   -9.7361 N   0  0  0  0  0  0  0  0  0  0  0  0
  1  2  1  0
  2  3  1  0
  3  4  1  1
  3  5  1  0
  5  6  1  1
  6  7  1  0
  7  8  1  0
  8  9  2  0
  9 10  1  0
 10 11  2  0
 11 12  1  0
 11 13  1  0
 13 14  1  0
 14 15  1  0
 15 16  2  0
 16 17  1  0
 17 18  1  0
 18 19  1  0
 19 20  1  0
 20 21  2  0
 21 22  1  0
 22 23  2  0
 23 24  1  0
 23 25  1  0
 21 26  1  0
 26 27  2  0
 26 28  1  0
 12  7  2  0
 25 19  2  0
 28  5  1  0
M  END
$$$$
