
     RDKit          3D

 28 30  0  0  0  0  0  0  0  0999 V2000
  -19.1205  -36.7904   -7.5278 N   0  0  0  0  0  0  0  0  0  0  0  0
  -17.7525  -36.9748   -7.9780 C   0  0  0  0  0  0  0  0  0  0  0  0
  -17.4416  -38.4832   -7.9523 C   0  0  1  0  0  0  0  0  0  0  0  0
  -17.1800  -38.8238   -6.5981 O   0  0  0  0  0  0  0  0  0  0  0  0
  -18.6698  -39.2143   -8.3807 C   0  0  2  0  0  0  0  0  0  0  0  0
  -19.0006  -40.4503   -7.6043 C   0  0  0  0  0  0  0  0  0  0  0  0
  -18.4913  -41.7284   -8.2225 C   0  0  0  0  0  0  0  0  0  0  0  0
  -19.5433  -42.3964   -8.8821 C   0  0  0  0  0  0  0  0  0  0  0  0
  -19.4076  -43.6118   -9.5050 C   0  0  0  0  0  0  0  0  0  0  0  0
  -18.1451  -44.1365   -9.4336 C   0  0  0  0  0  0  0  0  0  0  0  0
  -17.0549  -43.5207   -8.7924 C   0  0  0  0  0  0  0  0  0  0  0  0
  -17.2495  -42.2821   -8.1750 C   0  0  0  0  0  0  0  0  0  0  0  0
  -15.9019  -44.2613   -8.8634 O   0  0  0  0  0  0  0  0  0  0  0  0
  -14.5972  -44.2627   -9.2301 C   0  0  0  0  0  0  0  0  0  0  0  0
  -14.3407  -43.8496  -10.6597 C   0  0  0  0  0  0  0  0  0  0  0  0
  -13.7399  -42.9698  -11.3369 C   0  0  0  0  0  0  0  0  0  0  0  0
  -12.8857  -41.7487  -11.2288 C   0  0  0  0  0  0  0  0  0  0  0  0
  -13.4332  -40.6605  -12.0037 N   0  0  0  0  0  0  0  0  0  0  0  0
  -14.5917  -39.8391  -11.8104 C   0  0  0  0  0  0  0  0  0  0  0  0
  -15.8607  -40.0876  -11.3412 C   0  0  0  0  0  0  0  0  0  0  0  0
  -16.7380  -39.0120  -11.3181 C   0  0  0  0  0  0  0  0  0  0  0  0
  -16.2918  -37.7397  -11.7714 C   0  0  0  0  0  0  0  0  0  0  0  0
  -15.0222  -37.5102  -12.2366 C   0  0  0  0  0  0  0  0  0  0  0  0
  -14.5103  -35.9226  -12.7861 Cl  0  0  0  0  0  0  0  0  0  0  0  0
  -14.2306  -38.5575  -12.2368 N   0  0  0  0  0  0  0  0  0  0  0  0
  -18.1386  -38.8977  -10.8890 C   0  0  0  0  0  0  0  0  0  0  0  0
  -18.9016  -38.1934  -11.7106 O   0  0  0  0  0  0  0  0  0  0  0  0
  -18.8683  -39.3665   -9.7925 N   0  0  0  0  0  0  0  0  0  0  0  0
  1  2  1  0
  2  3  1  0
  3  4  1  1
  3  5  1  0
  5  6  1  1
  6  7  1  0
  7  8  1  0
  8  9  2  0
  9 10  1  0
 10 11  2  0
 11 12  1  0
 11 13  1  0
 13 14  1  0
 14 15  1  0
 15 16  2  0
 16 17  1  0
 17 18  1  0
 18 19  1  0
 19 20  1  0
 20 21  2  0
 21 22  1  0
 22 23  2  0
 23 24  1  0
 23 25  1  0
 21 26  1  0
 26 27  2  0
 26 28  1  0
 12  7  2  0
 25 19  2  0
 28  5  1  0
M  END
$$$$
