
     RDKit          3D

 28 30  0  0  0  0  0  0  0  0999 V2000
  -21.9892  -41.6260   -3.5213 N   0  0  0  0  0  0  0  0  0  0  0  0
  -21.7257  -42.4034   -4.7189 C   0  0  0  0  0  0  0  0  0  0  0  0
  -21.7249  -41.4409   -5.9214 C   0  0  1  0  0  0  0  0  0  0  0  0
  -23.0259  -40.8745   -5.9927 O   0  0  0  0  0  0  0  0  0  0  0  0
  -20.7603  -40.3403   -5.6302 C   0  0  2  0  0  0  0  0  0  0  0  0
  -21.0796  -39.0112   -6.2398 C   0  0  0  0  0  0  0  0  0  0  0  0
  -20.3887  -38.7475   -7.5544 C   0  0  0  0  0  0  0  0  0  0  0  0
  -19.2849  -37.8932   -7.3550 C   0  0  0  0  0  0  0  0  0  0  0  0
  -18.4808  -37.4317   -8.3671 C   0  0  0  0  0  0  0  0  0  0  0  0
  -18.8424  -37.8738   -9.6113 C   0  0  0  0  0  0  0  0  0  0  0  0
  -19.9299  -38.7258   -9.8759 C   0  0  0  0  0  0  0  0  0  0  0  0
  -20.7148  -39.1667   -8.8069 C   0  0  0  0  0  0  0  0  0  0  0  0
  -20.0754  -39.0124  -11.2100 O   0  0  0  0  0  0  0  0  0  0  0  0
  -20.1693  -39.9973  -12.1361 C   0  0  0  0  0  0  0  0  0  0  0  0
  -19.0390  -40.9983  -12.1128 C   0  0  0  0  0  0  0  0  0  0  0  0
  -18.8181  -42.2290  -11.9395 C   0  0  0  0  0  0  0  0  0  0  0  0
  -19.4782  -43.5359  -11.6414 C   0  0  0  0  0  0  0  0  0  0  0  0
  -18.8370  -44.2016  -10.5323 N   0  0  0  0  0  0  0  0  0  0  0  0
  -18.8202  -43.9161   -9.1279 C   0  0  0  0  0  0  0  0  0  0  0  0
  -18.7748  -42.7500   -8.3994 C   0  0  0  0  0  0  0  0  0  0  0  0
  -18.7529  -42.8793   -7.0175 C   0  0  0  0  0  0  0  0  0  0  0  0
  -18.7761  -44.1787   -6.4393 C   0  0  0  0  0  0  0  0  0  0  0  0
  -18.8210  -45.3311   -7.1815 C   0  0  0  0  0  0  0  0  0  0  0  0
  -18.8498  -46.9174   -6.4280 Cl  0  0  0  0  0  0  0  0  0  0  0  0
  -18.8420  -45.1560   -8.4824 N   0  0  0  0  0  0  0  0  0  0  0  0
  -18.7105  -41.8818   -5.9395 C   0  0  0  0  0  0  0  0  0  0  0  0
  -17.8676  -42.1758   -4.9616 O   0  0  0  0  0  0  0  0  0  0  0  0
  -19.3669  -40.6711   -5.6992 N   0  0  0  0  0  0  0  0  0  0  0  0
  1  2  1  0
  2  3  1  0
  3  4  1  1
  3  5  1  0
  5  6  1  6
  6  7  1  0
  7  8  1  0
  8  9  2  0
  9 10  1  0
 10 11  2  0
 11 12  1  0
 11 13  1  0
 13 14  1  0
 14 15  1  0
 15 16  2  0
 16 17  1  0
 17 18  1  0
 18 19  1  0
 19 20  1  0
 20 21  2  0
 21 22  1  0
 22 23  2  0
 23 24  1  0
 23 25  1  0
 21 26  1  0
 26 27  2  0
 26 28  1  0
 12  7  2  0
 25 19  2  0
 28  5  1  0
M  END
$$$$
