
     RDKit          3D

 28 30  0  0  0  0  0  0  0  0999 V2000
  -15.3040  -38.1368   -5.3909 N   0  0  0  0  0  0  0  0  0  0  0  0
  -14.9260  -39.0251   -6.4754 C   0  0  0  0  0  0  0  0  0  0  0  0
  -16.2159  -39.5423   -7.1395 C   0  0  1  0  0  0  0  0  0  0  0  0
  -16.6166  -40.6949   -6.4119 O   0  0  0  0  0  0  0  0  0  0  0  0
  -17.2715  -38.5015   -6.9687 C   0  0  2  0  0  0  0  0  0  0  0  0
  -18.5711  -38.9744   -6.3967 C   0  0  0  0  0  0  0  0  0  0  0  0
  -19.6176  -39.3153   -7.4281 C   0  0  0  0  0  0  0  0  0  0  0  0
  -20.5533  -38.2654   -7.5294 C   0  0  0  0  0  0  0  0  0  0  0  0
  -21.6527  -38.2958   -8.3503 C   0  0  0  0  0  0  0  0  0  0  0  0
  -21.7733  -39.4495   -9.0774 C   0  0  0  0  0  0  0  0  0  0  0  0
  -20.8754  -40.5309   -9.0220 C   0  0  0  0  0  0  0  0  0  0  0  0
  -19.7714  -40.4458   -8.1692 C   0  0  0  0  0  0  0  0  0  0  0  0
  -21.2307  -41.5669   -9.8487 O   0  0  0  0  0  0  0  0  0  0  0  0
  -20.8276  -42.3808  -10.8545 C   0  0  0  0  0  0  0  0  0  0  0  0
  -20.3160  -41.6650  -12.0819 C   0  0  0  0  0  0  0  0  0  0  0  0
  -19.2770  -41.5437  -12.7885 C   0  0  0  0  0  0  0  0  0  0  0  0
  -17.8585  -41.9933  -12.9230 C   0  0  0  0  0  0  0  0  0  0  0  0
  -16.9650  -40.8661  -13.0478 N   0  0  0  0  0  0  0  0  0  0  0  0
  -16.5378  -39.8773  -12.1023 C   0  0  0  0  0  0  0  0  0  0  0  0
  -17.1712  -39.2083  -11.0807 C   0  0  0  0  0  0  0  0  0  0  0  0
  -16.4120  -38.2836  -10.3768 C   0  0  0  0  0  0  0  0  0  0  0  0
  -15.0521  -38.0786  -10.7398 C   0  0  0  0  0  0  0  0  0  0  0  0
  -14.4367  -38.7547  -11.7622 C   0  0  0  0  0  0  0  0  0  0  0  0
  -12.7537  -38.4729  -12.1777 Cl  0  0  0  0  0  0  0  0  0  0  0  0
  -15.1955  -39.6187  -12.3954 N   0  0  0  0  0  0  0  0  0  0  0  0
  -16.7383  -37.4041   -9.2459 C   0  0  0  0  0  0  0  0  0  0  0  0
  -16.2744  -36.1699   -9.3675 O   0  0  0  0  0  0  0  0  0  0  0  0
  -17.4365  -37.5699   -8.0461 N   0  0  0  0  0  0  0  0  0  0  0  0
  1  2  1  0
  2  3  1  0
  3  4  1  1
  3  5  1  0
  5  6  1  6
  6  7  1  0
  7  8  1  0
  8  9  2  0
  9 10  1  0
 10 11  2  0
 11 12  1  0
 11 13  1  0
 13 14  1  0
 14 15  1  0
 15 16  2  0
 16 17  1  0
 17 18  1  0
 18 19  1  0
 19 20  1  0
 20 21  2  0
 21 22  1  0
 22 23  2  0
 23 24  1  0
 23 25  1  0
 21 26  1  0
 26 27  2  0
 26 28  1  0
 12  7  2  0
 25 19  2  0
 28  5  1  0
M  END
$$$$
