
     RDKit          3D

 28 30  0  0  0  0  0  0  0  0999 V2000
  -15.1519  -40.8023   -6.5592 N   0  0  0  0  0  0  0  0  0  0  0  0
  -16.4795  -40.7167   -5.9777 C   0  0  0  0  0  0  0  0  0  0  0  0
  -17.2935  -39.6969   -6.7962 C   0  0  1  0  0  0  0  0  0  0  0  0
  -16.6071  -38.4566   -6.7031 O   0  0  0  0  0  0  0  0  0  0  0  0
  -17.2703  -40.1286   -8.2244 C   0  0  2  0  0  0  0  0  0  0  0  0
  -17.1277  -39.0355   -9.2367 C   0  0  0  0  0  0  0  0  0  0  0  0
  -18.4337  -38.5428   -9.8086 C   0  0  0  0  0  0  0  0  0  0  0  0
  -18.6377  -39.0968  -11.0889 C   0  0  0  0  0  0  0  0  0  0  0  0
  -19.7154  -38.8047  -11.8871 C   0  0  0  0  0  0  0  0  0  0  0  0
  -20.5945  -37.9140  -11.3320 C   0  0  0  0  0  0  0  0  0  0  0  0
  -20.4483  -37.3274  -10.0618 C   0  0  0  0  0  0  0  0  0  0  0  0
  -19.3318  -37.6620   -9.2906 C   0  0  0  0  0  0  0  0  0  0  0  0
  -21.4688  -36.4654   -9.7477 O   0  0  0  0  0  0  0  0  0  0  0  0
  -22.4317  -36.1576   -8.8451 C   0  0  0  0  0  0  0  0  0  0  0  0
  -23.3756  -37.2892   -8.5153 C   0  0  0  0  0  0  0  0  0  0  0  0
  -23.7618  -37.9968   -7.5438 C   0  0  0  0  0  0  0  0  0  0  0  0
  -23.5768  -38.2269   -6.0791 C   0  0  0  0  0  0  0  0  0  0  0  0
  -23.3122  -39.6186   -5.8004 N   0  0  0  0  0  0  0  0  0  0  0  0
  -22.1655  -40.4411   -6.0510 C   0  0  0  0  0  0  0  0  0  0  0  0
  -21.2673  -40.5220   -7.0897 C   0  0  0  0  0  0  0  0  0  0  0  0
  -20.2727  -41.4841   -6.9797 C   0  0  0  0  0  0  0  0  0  0  0  0
  -20.2350  -42.3180   -5.8280 C   0  0  0  0  0  0  0  0  0  0  0  0
  -21.1397  -42.2235   -4.8015 C   0  0  0  0  0  0  0  0  0  0  0  0
  -21.0571  -43.2722   -3.3950 Cl  0  0  0  0  0  0  0  0  0  0  0  0
  -22.0586  -41.2981   -4.9516 N   0  0  0  0  0  0  0  0  0  0  0  0
  -19.1614  -41.8520   -7.8677 C   0  0  0  0  0  0  0  0  0  0  0  0
  -18.9926  -43.1573   -8.0126 O   0  0  0  0  0  0  0  0  0  0  0  0
  -18.2202  -41.1314   -8.6088 N   0  0  0  0  0  0  0  0  0  0  0  0
  1  2  1  0
  2  3  1  0
  3  4  1  6
  3  5  1  0
  5  6  1  6
  6  7  1  0
  7  8  1  0
  8  9  2  0
  9 10  1  0
 10 11  2  0
 11 12  1  0
 11 13  1  0
 13 14  1  0
 14 15  1  0
 15 16  2  0
 16 17  1  0
 17 18  1  0
 18 19  1  0
 19 20  1  0
 20 21  2  0
 21 22  1  0
 22 23  2  0
 23 24  1  0
 23 25  1  0
 21 26  1  0
 26 27  2  0
 26 28  1  0
 12  7  2  0
 25 19  2  0
 28  5  1  0
M  END
$$$$
