
     RDKit          3D

 28 30  0  0  0  0  0  0  0  0999 V2000
  -19.4557  -44.2600   -6.5730 N   0  0  0  0  0  0  0  0  0  0  0  0
  -19.5009  -44.0098   -8.0026 C   0  0  0  0  0  0  0  0  0  0  0  0
  -19.2844  -42.5018   -8.2296 C   0  0  1  0  0  0  0  0  0  0  0  0
  -19.4803  -42.2648   -9.6166 O   0  0  0  0  0  0  0  0  0  0  0  0
  -20.3467  -41.7661   -7.4834 C   0  0  2  0  0  0  0  0  0  0  0  0
  -21.5269  -41.3235   -8.2904 C   0  0  0  0  0  0  0  0  0  0  0  0
  -21.4389  -39.9047   -8.7950 C   0  0  0  0  0  0  0  0  0  0  0  0
  -22.2310  -39.0585   -7.9922 C   0  0  0  0  0  0  0  0  0  0  0  0
  -22.3941  -37.7155   -8.2235 C   0  0  0  0  0  0  0  0  0  0  0  0
  -21.7146  -37.2522   -9.3179 C   0  0  0  0  0  0  0  0  0  0  0  0
  -20.9090  -38.0434  -10.1569 C   0  0  0  0  0  0  0  0  0  0  0  0
  -20.7771  -39.4056   -9.8737 C   0  0  0  0  0  0  0  0  0  0  0  0
  -20.3445  -37.3322  -11.1858 O   0  0  0  0  0  0  0  0  0  0  0  0
  -19.1880  -36.9955  -11.8069 C   0  0  0  0  0  0  0  0  0  0  0  0
  -18.1355  -36.3970  -10.9045 C   0  0  0  0  0  0  0  0  0  0  0  0
  -16.9612  -36.6044  -10.4903 C   0  0  0  0  0  0  0  0  0  0  0  0
  -15.8067  -37.5485  -10.5802 C   0  0  0  0  0  0  0  0  0  0  0  0
  -15.3583  -37.9487   -9.2675 N   0  0  0  0  0  0  0  0  0  0  0  0
  -15.9472  -38.7996   -8.2758 C   0  0  0  0  0  0  0  0  0  0  0  0
  -17.2393  -39.0044   -7.8506 C   0  0  0  0  0  0  0  0  0  0  0  0
  -17.4196  -39.9224   -6.8251 C   0  0  0  0  0  0  0  0  0  0  0  0
  -16.2869  -40.5868   -6.2783 C   0  0  0  0  0  0  0  0  0  0  0  0
  -15.0049  -40.3697   -6.7146 C   0  0  0  0  0  0  0  0  0  0  0  0
  -13.6329  -41.2124   -6.0131 Cl  0  0  0  0  0  0  0  0  0  0  0  0
  -14.8872  -39.4949   -7.6863 N   0  0  0  0  0  0  0  0  0  0  0  0
  -18.6259  -40.3936   -6.1312 C   0  0  0  0  0  0  0  0  0  0  0  0
  -18.4945  -40.4846   -4.8168 O   0  0  0  0  0  0  0  0  0  0  0  0
  -19.9054  -40.7780   -6.5429 N   0  0  0  0  0  0  0  0  0  0  0  0
  1  2  1  0
  2  3  1  0
  3  4  1  6
  3  5  1  0
  5  6  1  6
  6  7  1  0
  7  8  1  0
  8  9  2  0
  9 10  1  0
 10 11  2  0
 11 12  1  0
 11 13  1  0
 13 14  1  0
 14 15  1  0
 15 16  2  0
 16 17  1  0
 17 18  1  0
 18 19  1  0
 19 20  1  0
 20 21  2  0
 21 22  1  0
 22 23  2  0
 23 24  1  0
 23 25  1  0
 21 26  1  0
 26 27  2  0
 26 28  1  0
 12  7  2  0
 25 19  2  0
 28  5  1  0
M  END
$$$$
