
     RDKit          3D

 28 30  0  0  0  0  0  0  0  0999 V2000
  -16.0247  -41.5026   -5.9910 N   0  0  0  0  0  0  0  0  0  0  0  0
  -16.9757  -40.4443   -6.2802 C   0  0  0  0  0  0  0  0  0  0  0  0
  -16.3175  -39.4710   -7.2761 C   0  0  1  0  0  0  0  0  0  0  0  0
  -15.3775  -38.7036   -6.5373 O   0  0  0  0  0  0  0  0  0  0  0  0
  -15.5638  -40.2782   -8.2796 C   0  0  2  0  0  0  0  0  0  0  0  0
  -14.2329  -39.7324   -8.6930 C   0  0  0  0  0  0  0  0  0  0  0  0
  -14.2641  -38.9049   -9.9538 C   0  0  0  0  0  0  0  0  0  0  0  0
  -13.7922  -39.6676  -11.0416 C   0  0  0  0  0  0  0  0  0  0  0  0
  -13.6568  -39.1800  -12.3175 C   0  0  0  0  0  0  0  0  0  0  0  0
  -14.0222  -37.8677  -12.4540 C   0  0  0  0  0  0  0  0  0  0  0  0
  -14.5002  -37.0547  -11.4103 C   0  0  0  0  0  0  0  0  0  0  0  0
  -14.6194  -37.6036  -10.1305 C   0  0  0  0  0  0  0  0  0  0  0  0
  -14.7906  -35.7762  -11.8153 O   0  0  0  0  0  0  0  0  0  0  0  0
  -15.7394  -34.8099  -11.8659 C   0  0  0  0  0  0  0  0  0  0  0  0
  -17.0431  -35.2350  -12.4985 C   0  0  0  0  0  0  0  0  0  0  0  0
  -18.2708  -35.3598  -12.2330 C   0  0  0  0  0  0  0  0  0  0  0  0
  -19.2874  -35.1909  -11.1511 C   0  0  0  0  0  0  0  0  0  0  0  0
  -20.0667  -36.3937  -10.9769 N   0  0  0  0  0  0  0  0  0  0  0  0
  -19.7333  -37.6766  -10.4317 C   0  0  0  0  0  0  0  0  0  0  0  0
  -18.6071  -38.4646  -10.4859 C   0  0  0  0  0  0  0  0  0  0  0  0
  -18.6697  -39.6866   -9.8303 C   0  0  0  0  0  0  0  0  0  0  0  0
  -19.8662  -40.0535   -9.1542 C   0  0  0  0  0  0  0  0  0  0  0  0
  -20.9804  -39.2549   -9.1108 C   0  0  0  0  0  0  0  0  0  0  0  0
  -22.4384  -39.7449   -8.2631 Cl  0  0  0  0  0  0  0  0  0  0  0  0
  -20.8706  -38.1100   -9.7436 N   0  0  0  0  0  0  0  0  0  0  0  0
  -17.6854  -40.7657   -9.6707 C   0  0  0  0  0  0  0  0  0  0  0  0
  -18.1822  -41.9817   -9.8373 O   0  0  0  0  0  0  0  0  0  0  0  0
  -16.3195  -40.8096   -9.3762 N   0  0  0  0  0  0  0  0  0  0  0  0
  1  2  1  0
  2  3  1  0
  3  4  1  1
  3  5  1  0
  5  6  1  6
  6  7  1  0
  7  8  1  0
  8  9  2  0
  9 10  1  0
 10 11  2  0
 11 12  1  0
 11 13  1  0
 13 14  1  0
 14 15  1  0
 15 16  2  0
 16 17  1  0
 17 18  1  0
 18 19  1  0
 19 20  1  0
 20 21  2  0
 21 22  1  0
 22 23  2  0
 23 24  1  0
 23 25  1  0
 21 26  1  0
 26 27  2  0
 26 28  1  0
 12  7  2  0
 25 19  2  0
 28  5  1  0
M  END
$$$$
