
     RDKit          3D

 28 30  0  0  0  0  0  0  0  0999 V2000
  -17.2514  -44.2277   -7.8728 N   0  0  0  0  0  0  0  0  0  0  0  0
  -18.5221  -43.9858   -8.5323 C   0  0  0  0  0  0  0  0  0  0  0  0
  -18.6228  -42.4789   -8.8349 C   0  0  1  0  0  0  0  0  0  0  0  0
  -19.5354  -42.3388   -9.9146 O   0  0  0  0  0  0  0  0  0  0  0  0
  -19.2166  -41.8079   -7.6417 C   0  0  2  0  0  0  0  0  0  0  0  0
  -20.5617  -41.1832   -7.8432 C   0  0  0  0  0  0  0  0  0  0  0  0
  -20.5215  -39.7113   -8.1703 C   0  0  0  0  0  0  0  0  0  0  0  0
  -20.8339  -38.9547   -7.0223 C   0  0  0  0  0  0  0  0  0  0  0  0
  -20.9239  -37.5852   -7.0086 C   0  0  0  0  0  0  0  0  0  0  0  0
  -20.6827  -36.9990   -8.2220 C   0  0  0  0  0  0  0  0  0  0  0  0
  -20.3660  -37.6965   -9.4018 C   0  0  0  0  0  0  0  0  0  0  0  0
  -20.2863  -39.0911   -9.3581 C   0  0  0  0  0  0  0  0  0  0  0  0
  -20.1762  -36.8693  -10.4801 O   0  0  0  0  0  0  0  0  0  0  0  0
  -19.3278  -36.5063  -11.4725 C   0  0  0  0  0  0  0  0  0  0  0  0
  -17.9454  -36.1110  -11.0108 C   0  0  0  0  0  0  0  0  0  0  0  0
  -16.7340  -36.4434  -11.1354 C   0  0  0  0  0  0  0  0  0  0  0  0
  -15.8212  -37.4251  -11.7954 C   0  0  0  0  0  0  0  0  0  0  0  0
  -14.9402  -38.0444  -10.8337 N   0  0  0  0  0  0  0  0  0  0  0  0
  -15.1824  -39.0024   -9.7956 C   0  0  0  0  0  0  0  0  0  0  0  0
  -16.2171  -39.1980   -8.9105 C   0  0  0  0  0  0  0  0  0  0  0  0
  -16.0806  -40.2500   -8.0151 C   0  0  0  0  0  0  0  0  0  0  0  0
  -14.9060  -41.0512   -8.0562 C   0  0  0  0  0  0  0  0  0  0  0  0
  -13.8835  -40.8413   -8.9459 C   0  0  0  0  0  0  0  0  0  0  0  0
  -12.4495  -41.8553   -8.9646 Cl  0  0  0  0  0  0  0  0  0  0  0  0
  -14.0607  -39.8367   -9.7721 N   0  0  0  0  0  0  0  0  0  0  0  0
  -16.9610  -40.7540   -6.9523 C   0  0  0  0  0  0  0  0  0  0  0  0
  -16.3341  -41.0510   -5.8244 O   0  0  0  0  0  0  0  0  0  0  0  0
  -18.3335  -41.0002   -6.8521 N   0  0  0  0  0  0  0  0  0  0  0  0
  1  2  1  0
  2  3  1  0
  3  4  1  6
  3  5  1  0
  5  6  1  6
  6  7  1  0
  7  8  1  0
  8  9  2  0
  9 10  1  0
 10 11  2  0
 11 12  1  0
 11 13  1  0
 13 14  1  0
 14 15  1  0
 15 16  2  0
 16 17  1  0
 17 18  1  0
 18 19  1  0
 19 20  1  0
 20 21  2  0
 21 22  1  0
 22 23  2  0
 23 24  1  0
 23 25  1  0
 21 26  1  0
 26 27  2  0
 26 28  1  0
 12  7  2  0
 25 19  2  0
 28  5  1  0
M  END
$$$$
