
     RDKit          3D

 28 30  0  0  0  0  0  0  0  0999 V2000
  -14.7534  -40.2662   -7.1323 N   0  0  0  0  0  0  0  0  0  0  0  0
  -15.5733  -39.5210   -8.0706 C   0  0  0  0  0  0  0  0  0  0  0  0
  -17.0201  -39.5189   -7.5422 C   0  0  1  0  0  0  0  0  0  0  0  0
  -17.0294  -38.7031   -6.3791 O   0  0  0  0  0  0  0  0  0  0  0  0
  -17.8846  -38.8657   -8.5682 C   0  0  2  0  0  0  0  0  0  0  0  0
  -18.8427  -37.8354   -8.0576 C   0  0  0  0  0  0  0  0  0  0  0  0
  -20.2300  -38.3588   -7.7810 C   0  0  0  0  0  0  0  0  0  0  0  0
  -21.0976  -38.0018   -8.8335 C   0  0  0  0  0  0  0  0  0  0  0  0
  -22.4385  -38.2939   -8.8534 C   0  0  0  0  0  0  0  0  0  0  0  0
  -22.8773  -38.9719   -7.7479 C   0  0  0  0  0  0  0  0  0  0  0  0
  -22.0638  -39.3568   -6.6668 C   0  0  0  0  0  0  0  0  0  0  0  0
  -20.7043  -39.0344   -6.6996 C   0  0  0  0  0  0  0  0  0  0  0  0
  -22.7547  -40.0211   -5.6848 O   0  0  0  0  0  0  0  0  0  0  0  0
  -22.8237  -41.1494   -4.9372 C   0  0  0  0  0  0  0  0  0  0  0  0
  -22.8478  -42.4341   -5.7303 C   0  0  0  0  0  0  0  0  0  0  0  0
  -22.1913  -43.4992   -5.8982 C   0  0  0  0  0  0  0  0  0  0  0  0
  -20.9669  -44.2352   -5.4605 C   0  0  0  0  0  0  0  0  0  0  0  0
  -20.1775  -44.6527   -6.5950 N   0  0  0  0  0  0  0  0  0  0  0  0
  -19.3733  -43.9129   -7.5225 C   0  0  0  0  0  0  0  0  0  0  0  0
  -19.5109  -42.6835   -8.1242 C   0  0  0  0  0  0  0  0  0  0  0  0
  -18.5060  -42.3045   -9.0037 C   0  0  0  0  0  0  0  0  0  0  0  0
  -17.4132  -43.1855   -9.2337 C   0  0  0  0  0  0  0  0  0  0  0  0
  -17.2925  -44.4085   -8.6250 C   0  0  0  0  0  0  0  0  0  0  0  0
  -15.9255  -45.4666   -8.9356 Cl  0  0  0  0  0  0  0  0  0  0  0  0
  -18.2663  -44.7200   -7.8016 N   0  0  0  0  0  0  0  0  0  0  0  0
  -18.3137  -41.0906   -9.8089 C   0  0  0  0  0  0  0  0  0  0  0  0
  -17.9113  -41.3209  -11.0491 O   0  0  0  0  0  0  0  0  0  0  0  0
  -18.4572  -39.7214   -9.5660 N   0  0  0  0  0  0  0  0  0  0  0  0
  1  2  1  0
  2  3  1  0
  3  4  1  1
  3  5  1  0
  5  6  1  1
  6  7  1  0
  7  8  1  0
  8  9  2  0
  9 10  1  0
 10 11  2  0
 11 12  1  0
 11 13  1  0
 13 14  1  0
 14 15  1  0
 15 16  2  0
 16 17  1  0
 17 18  1  0
 18 19  1  0
 19 20  1  0
 20 21  2  0
 21 22  1  0
 22 23  2  0
 23 24  1  0
 23 25  1  0
 21 26  1  0
 26 27  2  0
 26 28  1  0
 12  7  2  0
 25 19  2  0
 28  5  1  0
M  END
$$$$
