
     RDKit          3D

 28 30  0  0  0  0  0  0  0  0999 V2000
  -14.0615  -39.3661   -7.1087 N   0  0  0  0  0  0  0  0  0  0  0  0
  -14.8999  -39.1612   -8.2763 C   0  0  0  0  0  0  0  0  0  0  0  0
  -16.3709  -39.2369   -7.8261 C   0  0  1  0  0  0  0  0  0  0  0  0
  -16.4848  -38.4288   -6.6633 O   0  0  0  0  0  0  0  0  0  0  0  0
  -17.2123  -38.6242   -8.8954 C   0  0  2  0  0  0  0  0  0  0  0  0
  -18.2515  -37.6509   -8.4340 C   0  0  0  0  0  0  0  0  0  0  0  0
  -19.6214  -38.2505   -8.2362 C   0  0  0  0  0  0  0  0  0  0  0  0
  -20.4483  -37.9335   -9.3333 C   0  0  0  0  0  0  0  0  0  0  0  0
  -21.7682  -38.2976   -9.4280 C   0  0  0  0  0  0  0  0  0  0  0  0
  -22.2292  -39.0061   -8.3512 C   0  0  0  0  0  0  0  0  0  0  0  0
  -21.4563  -39.3540   -7.2286 C   0  0  0  0  0  0  0  0  0  0  0  0
  -20.1166  -38.9584   -7.1853 C   0  0  0  0  0  0  0  0  0  0  0  0
  -22.1626  -40.0617   -6.2887 O   0  0  0  0  0  0  0  0  0  0  0  0
  -22.2109  -41.1973   -5.5506 C   0  0  0  0  0  0  0  0  0  0  0  0
  -22.1218  -42.4759   -6.3492 C   0  0  0  0  0  0  0  0  0  0  0  0
  -21.4001  -43.5027   -6.4850 C   0  0  0  0  0  0  0  0  0  0  0  0
  -20.1632  -44.1745   -5.9838 C   0  0  0  0  0  0  0  0  0  0  0  0
  -19.2914  -44.5406   -7.0749 N   0  0  0  0  0  0  0  0  0  0  0  0
  -18.4792  -43.7519   -7.9537 C   0  0  0  0  0  0  0  0  0  0  0  0
  -18.6504  -42.5275   -8.5570 C   0  0  0  0  0  0  0  0  0  0  0  0
  -17.6211  -42.0884   -9.3784 C   0  0  0  0  0  0  0  0  0  0  0  0
  -16.4710  -42.9074   -9.5517 C   0  0  0  0  0  0  0  0  0  0  0  0
  -16.3174  -44.1264   -8.9423 C   0  0  0  0  0  0  0  0  0  0  0  0
  -14.8799  -45.1067   -9.1817 Cl  0  0  0  0  0  0  0  0  0  0  0  0
  -17.3164  -44.4959   -8.1749 N   0  0  0  0  0  0  0  0  0  0  0  0
  -17.4513  -40.8603  -10.1669 C   0  0  0  0  0  0  0  0  0  0  0  0
  -16.9698  -41.0597  -11.3841 O   0  0  0  0  0  0  0  0  0  0  0  0
  -17.6821  -39.5025   -9.9267 N   0  0  0  0  0  0  0  0  0  0  0  0
  1  2  1  0
  2  3  1  0
  3  4  1  1
  3  5  1  0
  5  6  1  1
  6  7  1  0
  7  8  1  0
  8  9  2  0
  9 10  1  0
 10 11  2  0
 11 12  1  0
 11 13  1  0
 13 14  1  0
 14 15  1  0
 15 16  2  0
 16 17  1  0
 17 18  1  0
 18 19  1  0
 19 20  1  0
 20 21  2  0
 21 22  1  0
 22 23  2  0
 23 24  1  0
 23 25  1  0
 21 26  1  0
 26 27  2  0
 26 28  1  0
 12  7  2  0
 25 19  2  0
 28  5  1  0
M  END
$$$$
