
     RDKit          3D

 28 30  0  0  0  0  0  0  0  0999 V2000
  -14.6497  -37.4649   -7.9408 N   0  0  0  0  0  0  0  0  0  0  0  0
  -15.2370  -38.0903   -6.7694 C   0  0  0  0  0  0  0  0  0  0  0  0
  -16.4120  -38.9695   -7.2371 C   0  0  1  0  0  0  0  0  0  0  0  0
  -16.8516  -39.7023   -6.1022 O   0  0  0  0  0  0  0  0  0  0  0  0
  -17.5229  -38.0674   -7.6598 C   0  0  2  0  0  0  0  0  0  0  0  0
  -18.8673  -38.3647   -7.0730 C   0  0  0  0  0  0  0  0  0  0  0  0
  -19.7501  -39.2238   -7.9436 C   0  0  0  0  0  0  0  0  0  0  0  0
  -20.7059  -38.4214   -8.5997 C   0  0  0  0  0  0  0  0  0  0  0  0
  -21.6824  -38.9159   -9.4279 C   0  0  0  0  0  0  0  0  0  0  0  0
  -21.6560  -40.2773   -9.5692 C   0  0  0  0  0  0  0  0  0  0  0  0
  -20.7300  -41.1316   -8.9437 C   0  0  0  0  0  0  0  0  0  0  0  0
  -19.7557  -40.5738   -8.1113 C   0  0  0  0  0  0  0  0  0  0  0  0
  -20.9275  -42.4545   -9.2503 O   0  0  0  0  0  0  0  0  0  0  0  0
  -20.3591  -43.5840   -9.7379 C   0  0  0  0  0  0  0  0  0  0  0  0
  -19.7165  -43.4341  -11.0962 C   0  0  0  0  0  0  0  0  0  0  0  0
  -18.5975  -43.5352  -11.6717 C   0  0  0  0  0  0  0  0  0  0  0  0
  -17.1565  -43.8582  -11.4445 C   0  0  0  0  0  0  0  0  0  0  0  0
  -16.3016  -42.8195  -11.9687 N   0  0  0  0  0  0  0  0  0  0  0  0
  -16.0470  -41.4797  -11.5280 C   0  0  0  0  0  0  0  0  0  0  0  0
  -16.8395  -40.4949  -10.9852 C   0  0  0  0  0  0  0  0  0  0  0  0
  -16.2211  -39.2862  -10.6964 C   0  0  0  0  0  0  0  0  0  0  0  0
  -14.8342  -39.1305  -10.9714 C   0  0  0  0  0  0  0  0  0  0  0  0
  -14.0591  -40.1236  -11.5135 C   0  0  0  0  0  0  0  0  0  0  0  0
  -12.3485  -39.8911  -11.8365 Cl  0  0  0  0  0  0  0  0  0  0  0  0
  -14.6893  -41.2471  -11.7667 N   0  0  0  0  0  0  0  0  0  0  0  0
  -16.7330  -38.0357  -10.1193 C   0  0  0  0  0  0  0  0  0  0  0  0
  -16.3083  -36.9418  -10.7326 O   0  0  0  0  0  0  0  0  0  0  0  0
  -17.5793  -37.7246   -9.0509 N   0  0  0  0  0  0  0  0  0  0  0  0
  1  2  1  0
  2  3  1  0
  3  4  1  1
  3  5  1  0
  5  6  1  6
  6  7  1  0
  7  8  1  0
  8  9  2  0
  9 10  1  0
 10 11  2  0
 11 12  1  0
 11 13  1  0
 13 14  1  0
 14 15  1  0
 15 16  2  0
 16 17  1  0
 17 18  1  0
 18 19  1  0
 19 20  1  0
 20 21  2  0
 21 22  1  0
 22 23  2  0
 23 24  1  0
 23 25  1  0
 21 26  1  0
 26 27  2  0
 26 28  1  0
 12  7  2  0
 25 19  2  0
 28  5  1  0
M  END
$$$$
