
     RDKit          3D

 28 30  0  0  0  0  0  0  0  0999 V2000
  -16.0348  -40.9800   -5.1500 N   0  0  0  0  0  0  0  0  0  0  0  0
  -16.1808  -39.5556   -4.9092 C   0  0  0  0  0  0  0  0  0  0  0  0
  -16.8601  -38.9310   -6.1424 C   0  0  1  0  0  0  0  0  0  0  0  0
  -16.4753  -37.5637   -6.1726 O   0  0  0  0  0  0  0  0  0  0  0  0
  -16.3036  -39.5916   -7.3592 C   0  0  2  0  0  0  0  0  0  0  0  0
  -15.6375  -38.6875   -8.3487 C   0  0  0  0  0  0  0  0  0  0  0  0
  -16.5309  -38.2326   -9.4757 C   0  0  0  0  0  0  0  0  0  0  0  0
  -16.2544  -38.9786  -10.6398 C   0  0  0  0  0  0  0  0  0  0  0  0
  -16.8711  -38.7695  -11.8480 C   0  0  0  0  0  0  0  0  0  0  0  0
  -17.7939  -37.7583  -11.8347 C   0  0  0  0  0  0  0  0  0  0  0  0
  -18.1150  -36.9792  -10.7084 C   0  0  0  0  0  0  0  0  0  0  0  0
  -17.4569  -37.2364   -9.5025 C   0  0  0  0  0  0  0  0  0  0  0  0
  -19.0706  -36.0290  -10.9674 O   0  0  0  0  0  0  0  0  0  0  0  0
  -20.2770  -35.5311  -10.6024 C   0  0  0  0  0  0  0  0  0  0  0  0
  -21.3941  -36.5462  -10.5584 C   0  0  0  0  0  0  0  0  0  0  0  0
  -22.2207  -37.0654   -9.7579 C   0  0  0  0  0  0  0  0  0  0  0  0
  -22.6780  -37.0609   -8.3355 C   0  0  0  0  0  0  0  0  0  0  0  0
  -22.7090  -38.3992   -7.7947 N   0  0  0  0  0  0  0  0  0  0  0  0
  -21.6607  -39.3062   -7.4306 C   0  0  0  0  0  0  0  0  0  0  0  0
  -20.4315  -39.5997   -7.9742 C   0  0  0  0  0  0  0  0  0  0  0  0
  -19.6841  -40.5777   -7.3325 C   0  0  0  0  0  0  0  0  0  0  0  0
  -20.2148  -41.2123   -6.1754 C   0  0  0  0  0  0  0  0  0  0  0  0
  -21.4432  -40.9071   -5.6472 C   0  0  0  0  0  0  0  0  0  0  0  0
  -22.0616  -41.7137   -4.2149 Cl  0  0  0  0  0  0  0  0  0  0  0  0
  -22.1099  -39.9755   -6.2883 N   0  0  0  0  0  0  0  0  0  0  0  0
  -18.3560  -41.1397   -7.6140 C   0  0  0  0  0  0  0  0  0  0  0  0
  -18.2908  -42.4576   -7.5049 O   0  0  0  0  0  0  0  0  0  0  0  0
  -17.1195  -40.5967   -7.9755 N   0  0  0  0  0  0  0  0  0  0  0  0
  1  2  1  0
  2  3  1  0
  3  4  1  6
  3  5  1  0
  5  6  1  6
  6  7  1  0
  7  8  1  0
  8  9  2  0
  9 10  1  0
 10 11  2  0
 11 12  1  0
 11 13  1  0
 13 14  1  0
 14 15  1  0
 15 16  2  0
 16 17  1  0
 17 18  1  0
 18 19  1  0
 19 20  1  0
 20 21  2  0
 21 22  1  0
 22 23  2  0
 23 24  1  0
 23 25  1  0
 21 26  1  0
 26 27  2  0
 26 28  1  0
 12  7  2  0
 25 19  2  0
 28  5  1  0
M  END
$$$$
