
     RDKit          3D

 38 39  0  0  0  0  0  0  0  0999 V2000
  -20.4298  -39.5504   -4.6310 C   0  0  0  0  0  0  0  0  0  0  0  0
  -19.8437  -39.2524   -5.9691 C   0  0  2  0  0  0  0  0  0  0  0  0
  -20.7857  -39.4897   -7.0861 C   0  0  0  0  0  0  0  0  0  0  0  0
  -22.0030  -40.2900   -6.7037 C   0  0  0  0  0  0  0  0  0  0  0  0
  -23.2974  -39.5303   -6.9376 C   0  0  0  0  0  0  0  0  0  0  0  0
  -24.1476  -40.3560   -7.9102 C   0  0  0  0  0  0  0  0  0  0  0  0
  -23.3814  -40.7008   -9.1657 C   0  0  0  0  0  0  0  0  0  0  0  0
  -23.4566  -42.1885   -9.3678 C   0  0  0  0  0  0  0  0  0  0  0  0
  -22.4704  -42.7212  -10.3610 C   0  0  0  0  0  0  0  0  0  0  0  0
  -21.0533  -42.7516   -9.8960 C   0  0  0  0  0  0  0  0  0  0  0  0
  -20.6722  -43.9752   -9.1765 C   0  0  0  0  0  0  0  0  0  0  0  0
  -20.6795  -45.0643   -9.8468 O   0  0  0  0  0  0  0  0  0  0  0  0
  -20.2983  -44.0799   -7.8237 N   0  0  0  0  0  0  0  0  0  0  0  0
  -20.7668  -45.1819   -7.0025 C   0  0  0  0  0  0  0  0  0  0  0  0
  -19.4278  -43.1101   -7.1378 C   0  0  1  0  0  0  0  0  0  0  0  0
  -18.5502  -43.9566   -6.2033 C   0  0  0  0  0  0  0  0  0  0  0  0
  -18.5012  -42.4572   -8.0643 C   0  0  0  0  0  0  0  0  0  0  0  0
  -17.7765  -43.2986   -8.7212 O   0  0  0  0  0  0  0  0  0  0  0  0
  -18.2926  -41.1092   -8.3336 N   0  0  0  0  0  0  0  0  0  0  0  0
  -17.9879  -40.0136   -7.4716 C   0  0  1  0  0  0  0  0  0  0  0  0
  -18.5360  -40.0512   -6.0927 C   0  0  0  0  0  0  0  0  0  0  0  0
  -16.5019  -39.7070   -7.5136 C   0  0  2  0  0  0  0  0  0  0  0  0
  -16.3448  -38.3330   -7.4532 O   0  0  0  0  0  0  0  0  0  0  0  0
  -15.8168  -40.2687   -8.7280 C   0  0  0  0  0  0  0  0  0  0  0  0
  -14.4420  -39.8014   -8.7004 N   0  0  0  0  0  0  0  0  0  0  0  0
  -13.7400  -40.2805   -9.8600 C   0  0  0  0  0  0  0  0  0  0  0  0
  -14.5682  -41.3165  -10.6035 C   0  0  0  0  0  0  0  0  0  0  0  0
  -12.4281  -40.9726   -9.5022 C   0  0  0  0  0  0  0  0  0  0  0  0
  -13.3755  -39.1376  -10.7616 C   0  0  0  0  0  0  0  0  0  0  0  0
  -12.2151  -38.5153  -10.9241 N   0  0  0  0  0  0  0  0  0  0  0  0
  -12.1177  -37.5626  -11.7465 N   0  0  0  0  0  0  0  0  0  0  0  0
  -13.1790  -37.1824  -12.4506 C   0  0  0  0  0  0  0  0  0  0  0  0
  -13.2888  -36.0851  -13.4738 C   0  0  0  0  0  0  0  0  0  0  0  0
  -13.5203  -34.7474  -12.7754 C   0  0  0  0  0  0  0  0  0  0  0  0
  -12.4074  -34.4677  -11.7881 C   0  0  0  0  0  0  0  0  0  0  0  0
  -13.4618  -33.6728  -13.8395 C   0  0  0  0  0  0  0  0  0  0  0  0
  -14.8659  -34.7394  -12.0789 C   0  0  0  0  0  0  0  0  0  0  0  0
  -14.3632  -38.2875  -11.8625 S   0  0  0  0  0  0  0  0  0  0  0  0
  2  1  1  1
  2  3  1  0
  3  4  1  0
  4  5  1  0
  5  6  1  0
  6  7  1  0
  7  8  1  0
  8  9  1  0
  9 10  1  0
 10 11  1  0
 11 12  2  0
 11 13  1  0
 13 14  1  0
 13 15  1  0
 15 16  1  1
 15 17  1  0
 17 18  2  0
 17 19  1  0
 19 20  1  0
 20 21  1  1
 20 22  1  0
 22 23  1  6
 22 24  1  0
 24 25  1  0
 25 26  1  0
 26 27  1  0
 26 28  1  0
 26 29  1  0
 29 30  2  0
 30 31  1  0
 31 32  2  0
 32 33  1  0
 33 34  1  0
 34 35  1  0
 34 36  1  0
 34 37  1  0
 32 38  1  0
 21  2  1  0
 38 29  1  0
M  END
$$$$
