
     RDKit          3D

 38 39  0  0  0  0  0  0  0  0999 V2000
  -20.2540  -39.5138   -4.3975 C   0  0  0  0  0  0  0  0  0  0  0  0
  -19.7643  -39.0979   -5.7429 C   0  0  2  0  0  0  0  0  0  0  0  0
  -20.7437  -39.3477   -6.8245 C   0  0  0  0  0  0  0  0  0  0  0  0
  -21.8745  -40.2612   -6.4307 C   0  0  0  0  0  0  0  0  0  0  0  0
  -23.2336  -39.5945   -6.5561 C   0  0  0  0  0  0  0  0  0  0  0  0
  -24.0690  -40.4306   -7.5328 C   0  0  0  0  0  0  0  0  0  0  0  0
  -23.3467  -40.6448   -8.8422 C   0  0  0  0  0  0  0  0  0  0  0  0
  -23.3191  -42.1205   -9.1271 C   0  0  0  0  0  0  0  0  0  0  0  0
  -22.3495  -42.5187  -10.1967 C   0  0  0  0  0  0  0  0  0  0  0  0
  -20.9115  -42.4624   -9.8040 C   0  0  0  0  0  0  0  0  0  0  0  0
  -20.4006  -43.6894   -9.1769 C   0  0  0  0  0  0  0  0  0  0  0  0
  -20.3607  -44.7376   -9.9086 O   0  0  0  0  0  0  0  0  0  0  0  0
  -19.9483  -43.8379   -7.8523 N   0  0  0  0  0  0  0  0  0  0  0  0
  -20.2872  -45.0166   -7.0752 C   0  0  0  0  0  0  0  0  0  0  0  0
  -19.1189  -42.8412   -7.1542 C   0  0  1  0  0  0  0  0  0  0  0  0
  -18.1309  -43.6654   -6.3148 C   0  0  0  0  0  0  0  0  0  0  0  0
  -18.2953  -42.0676   -8.0851 C   0  0  0  0  0  0  0  0  0  0  0  0
  -17.5447  -42.8120   -8.8247 O   0  0  0  0  0  0  0  0  0  0  0  0
  -18.2045  -40.6947   -8.2850 N   0  0  0  0  0  0  0  0  0  0  0  0
  -17.9386  -39.6270   -7.3762 C   0  0  1  0  0  0  0  0  0  0  0  0
  -18.4081  -39.7830   -5.9768 C   0  0  0  0  0  0  0  0  0  0  0  0
  -16.4846  -39.2022   -7.4727 C   0  0  2  0  0  0  0  0  0  0  0  0
  -16.4189  -37.8392   -7.2398 O   0  0  0  0  0  0  0  0  0  0  0  0
  -15.8544  -39.5481   -8.7928 C   0  0  0  0  0  0  0  0  0  0  0  0
  -14.5618  -38.8875   -8.8381 N   0  0  0  0  0  0  0  0  0  0  0  0
  -13.6917  -39.5788   -9.7503 C   0  0  0  0  0  0  0  0  0  0  0  0
  -14.1571  -41.0110   -9.9607 C   0  0  0  0  0  0  0  0  0  0  0  0
  -12.2608  -39.6767   -9.2296 C   0  0  0  0  0  0  0  0  0  0  0  0
  -13.6104  -38.8438  -11.0561 C   0  0  0  0  0  0  0  0  0  0  0  0
  -14.3267  -37.8219  -11.5063 N   0  0  0  0  0  0  0  0  0  0  0  0
  -14.0953  -37.3424  -12.6508 N   0  0  0  0  0  0  0  0  0  0  0  0
  -13.1327  -37.8620  -13.4060 C   0  0  0  0  0  0  0  0  0  0  0  0
  -12.6905  -37.4531  -14.7845 C   0  0  0  0  0  0  0  0  0  0  0  0
  -11.5970  -36.3924  -14.6840 C   0  0  0  0  0  0  0  0  0  0  0  0
  -11.0266  -36.0909  -16.0535 C   0  0  0  0  0  0  0  0  0  0  0  0
  -12.2506  -35.1249  -14.1770 C   0  0  0  0  0  0  0  0  0  0  0  0
  -10.5035  -36.8468  -13.7388 C   0  0  0  0  0  0  0  0  0  0  0  0
  -12.5539  -39.1104  -12.3687 S   0  0  0  0  0  0  0  0  0  0  0  0
  2  1  1  1
  2  3  1  0
  3  4  1  0
  4  5  1  0
  5  6  1  0
  6  7  1  0
  7  8  1  0
  8  9  1  0
  9 10  1  0
 10 11  1  0
 11 12  2  0
 11 13  1  0
 13 14  1  0
 13 15  1  0
 15 16  1  1
 15 17  1  0
 17 18  2  0
 17 19  1  0
 19 20  1  0
 20 21  1  1
 20 22  1  0
 22 23  1  6
 22 24  1  0
 24 25  1  0
 25 26  1  0
 26 27  1  0
 26 28  1  0
 26 29  1  0
 29 30  2  0
 30 31  1  0
 31 32  2  0
 32 33  1  0
 33 34  1  0
 34 35  1  0
 34 36  1  0
 34 37  1  0
 32 38  1  0
 21  2  1  0
 38 29  1  0
M  END
$$$$
