
     RDKit          3D

 38 39  0  0  0  0  0  0  0  0999 V2000
  -19.0716  -37.9182   -5.2704 C   0  0  0  0  0  0  0  0  0  0  0  0
  -19.9992  -38.0195   -6.4332 C   0  0  2  0  0  0  0  0  0  0  0  0
  -21.1073  -38.9768   -6.2156 C   0  0  0  0  0  0  0  0  0  0  0  0
  -20.9040  -39.8949   -5.0391 C   0  0  0  0  0  0  0  0  0  0  0  0
  -21.9954  -39.7518   -3.9923 C   0  0  0  0  0  0  0  0  0  0  0  0
  -22.6563  -41.1250   -3.8244 C   0  0  0  0  0  0  0  0  0  0  0  0
  -23.1199  -41.6860   -5.1484 C   0  0  0  0  0  0  0  0  0  0  0  0
  -22.5439  -43.0661   -5.3008 C   0  0  0  0  0  0  0  0  0  0  0  0
  -22.6234  -43.6113   -6.6934 C   0  0  0  0  0  0  0  0  0  0  0  0
  -21.6793  -42.9968   -7.6713 C   0  0  0  0  0  0  0  0  0  0  0  0
  -20.3545  -43.6310   -7.7234 C   0  0  0  0  0  0  0  0  0  0  0  0
  -20.3092  -44.8383   -8.1428 O   0  0  0  0  0  0  0  0  0  0  0  0
  -19.1241  -43.0520   -7.3602 N   0  0  0  0  0  0  0  0  0  0  0  0
  -18.1298  -43.8117   -6.6237 C   0  0  0  0  0  0  0  0  0  0  0  0
  -18.7457  -41.6655   -7.6810 C   0  0  1  0  0  0  0  0  0  0  0  0
  -17.2487  -41.7311   -8.0195 C   0  0  0  0  0  0  0  0  0  0  0  0
  -19.4042  -41.1872   -8.8980 C   0  0  0  0  0  0  0  0  0  0  0  0
  -19.1776  -41.9436   -9.9184 O   0  0  0  0  0  0  0  0  0  0  0  0
  -20.2117  -40.0757   -9.1113 N   0  0  0  0  0  0  0  0  0  0  0  0
  -19.9942  -38.6901   -8.8480 C   0  0  1  0  0  0  0  0  0  0  0  0
  -19.1532  -38.3371   -7.6770 C   0  0  0  0  0  0  0  0  0  0  0  0
  -19.5783  -37.9709  -10.1184 C   0  0  2  0  0  0  0  0  0  0  0  0
  -20.3877  -38.4168  -11.1491 O   0  0  0  0  0  0  0  0  0  0  0  0
  -18.1270  -38.1644  -10.4588 C   0  0  0  0  0  0  0  0  0  0  0  0
  -17.7241  -37.0359  -11.2794 N   0  0  0  0  0  0  0  0  0  0  0  0
  -16.7192  -37.4505  -12.2203 C   0  0  0  0  0  0  0  0  0  0  0  0
  -16.5792  -36.4357  -13.3439 C   0  0  0  0  0  0  0  0  0  0  0  0
  -17.0634  -38.7754  -12.8944 C   0  0  0  0  0  0  0  0  0  0  0  0
  -15.4069  -37.6657  -11.5250 C   0  0  0  0  0  0  0  0  0  0  0  0
  -15.1335  -37.7686  -10.2310 N   0  0  0  0  0  0  0  0  0  0  0  0
  -13.9446  -37.9513   -9.8478 N   0  0  0  0  0  0  0  0  0  0  0  0
  -12.9654  -38.0407  -10.7423 C   0  0  0  0  0  0  0  0  0  0  0  0
  -11.4942  -38.2545  -10.5124 C   0  0  0  0  0  0  0  0  0  0  0  0
  -10.6919  -37.2179  -11.2950 C   0  0  0  0  0  0  0  0  0  0  0  0
   -9.2250  -37.3004  -10.9302 C   0  0  0  0  0  0  0  0  0  0  0  0
  -10.8143  -37.5732  -12.7611 C   0  0  0  0  0  0  0  0  0  0  0  0
  -11.2290  -35.8254  -11.0342 C   0  0  0  0  0  0  0  0  0  0  0  0
  -13.8531  -37.8448  -12.2062 S   0  0  0  0  0  0  0  0  0  0  0  0
  2  1  1  1
  2  3  1  0
  3  4  1  0
  4  5  1  0
  5  6  1  0
  6  7  1  0
  7  8  1  0
  8  9  1  0
  9 10  1  0
 10 11  1  0
 11 12  2  0
 11 13  1  0
 13 14  1  0
 13 15  1  0
 15 16  1  6
 15 17  1  0
 17 18  2  0
 17 19  1  0
 19 20  1  0
 20 21  1  1
 20 22  1  0
 22 23  1  6
 22 24  1  0
 24 25  1  0
 25 26  1  0
 26 27  1  0
 26 28  1  0
 26 29  1  0
 29 30  2  0
 30 31  1  0
 31 32  2  0
 32 33  1  0
 33 34  1  0
 34 35  1  0
 34 36  1  0
 34 37  1  0
 32 38  1  0
 21  2  1  0
 38 29  1  0
M  END
$$$$
