
     RDKit          3D

 38 39  0  0  0  0  0  0  0  0999 V2000
  -19.3265  -38.8038   -4.5977 C   0  0  0  0  0  0  0  0  0  0  0  0
  -19.0406  -38.7045   -6.0576 C   0  0  2  0  0  0  0  0  0  0  0  0
  -20.1730  -39.1395   -6.9061 C   0  0  0  0  0  0  0  0  0  0  0  0
  -21.2394  -39.9016   -6.1643 C   0  0  0  0  0  0  0  0  0  0  0  0
  -22.5965  -39.2226   -6.2337 C   0  0  0  0  0  0  0  0  0  0  0  0
  -23.5756  -40.2133   -6.8745 C   0  0  0  0  0  0  0  0  0  0  0  0
  -23.0594  -40.7309   -8.1966 C   0  0  0  0  0  0  0  0  0  0  0  0
  -23.0868  -42.2333   -8.1555 C   0  0  0  0  0  0  0  0  0  0  0  0
  -22.2917  -42.8893   -9.2419 C   0  0  0  0  0  0  0  0  0  0  0  0
  -20.8107  -42.8086   -9.0828 C   0  0  0  0  0  0  0  0  0  0  0  0
  -20.2217  -43.8932   -8.2850 C   0  0  0  0  0  0  0  0  0  0  0  0
  -20.3004  -45.0740   -8.7699 O   0  0  0  0  0  0  0  0  0  0  0  0
  -19.5773  -43.7739   -7.0394 N   0  0  0  0  0  0  0  0  0  0  0  0
  -19.8055  -44.7452   -5.9845 C   0  0  0  0  0  0  0  0  0  0  0  0
  -18.6445  -42.6856   -6.7014 C   0  0  1  0  0  0  0  0  0  0  0  0
  -17.5486  -43.3511   -5.8551 C   0  0  0  0  0  0  0  0  0  0  0  0
  -17.9633  -42.1623   -7.8870 C   0  0  0  0  0  0  0  0  0  0  0  0
  -17.3381  -43.0770   -8.5480 O   0  0  0  0  0  0  0  0  0  0  0  0
  -17.8923  -40.8684   -8.3908 N   0  0  0  0  0  0  0  0  0  0  0  0
  -17.4846  -39.6431   -7.7835 C   0  0  1  0  0  0  0  0  0  0  0  0
  -17.7404  -39.4779   -6.3307 C   0  0  0  0  0  0  0  0  0  0  0  0
  -16.0580  -39.3077   -8.1789 C   0  0  2  0  0  0  0  0  0  0  0  0
  -15.8043  -37.9997   -7.8034 O   0  0  0  0  0  0  0  0  0  0  0  0
  -15.7900  -39.5026   -9.6451 C   0  0  0  0  0  0  0  0  0  0  0  0
  -15.1596  -40.8021   -9.7976 N   0  0  0  0  0  0  0  0  0  0  0  0
  -13.9737  -40.6784  -10.6009 C   0  0  0  0  0  0  0  0  0  0  0  0
  -13.7068  -41.9615  -11.3719 C   0  0  0  0  0  0  0  0  0  0  0  0
  -12.7246  -40.4280   -9.7610 C   0  0  0  0  0  0  0  0  0  0  0  0
  -14.0909  -39.5074  -11.5320 C   0  0  0  0  0  0  0  0  0  0  0  0
  -15.1318  -39.0738  -12.2310 N   0  0  0  0  0  0  0  0  0  0  0  0
  -15.0198  -38.0535  -12.9659 N   0  0  0  0  0  0  0  0  0  0  0  0
  -13.8575  -37.4128  -13.0394 C   0  0  0  0  0  0  0  0  0  0  0  0
  -13.5030  -36.1905  -13.8414 C   0  0  0  0  0  0  0  0  0  0  0  0
  -14.0989  -34.9486  -13.1830 C   0  0  0  0  0  0  0  0  0  0  0  0
  -13.6555  -33.6993  -13.9140 C   0  0  0  0  0  0  0  0  0  0  0  0
  -15.6025  -35.0464  -13.3253 C   0  0  0  0  0  0  0  0  0  0  0  0
  -13.7018  -34.8813  -11.7224 C   0  0  0  0  0  0  0  0  0  0  0  0
  -12.8994  -38.3690  -11.9730 S   0  0  0  0  0  0  0  0  0  0  0  0
  2  1  1  1
  2  3  1  0
  3  4  1  0
  4  5  1  0
  5  6  1  0
  6  7  1  0
  7  8  1  0
  8  9  1  0
  9 10  1  0
 10 11  1  0
 11 12  2  0
 11 13  1  0
 13 14  1  0
 13 15  1  0
 15 16  1  1
 15 17  1  0
 17 18  2  0
 17 19  1  0
 19 20  1  0
 20 21  1  1
 20 22  1  0
 22 23  1  6
 22 24  1  0
 24 25  1  0
 25 26  1  0
 26 27  1  0
 26 28  1  0
 26 29  1  0
 29 30  2  0
 30 31  1  0
 31 32  2  0
 32 33  1  0
 33 34  1  0
 34 35  1  0
 34 36  1  0
 34 37  1  0
 32 38  1  0
 21  2  1  0
 38 29  1  0
M  END
$$$$
