
     RDKit          3D

 38 39  0  0  0  0  0  0  0  0999 V2000
  -19.8436  -39.7750   -3.8374 C   0  0  0  0  0  0  0  0  0  0  0  0
  -19.7517  -39.4106   -5.2802 C   0  0  2  0  0  0  0  0  0  0  0  0
  -20.9458  -39.8065   -6.0605 C   0  0  0  0  0  0  0  0  0  0  0  0
  -21.8502  -40.7784   -5.3492 C   0  0  0  0  0  0  0  0  0  0  0  0
  -23.2524  -40.2301   -5.1479 C   0  0  0  0  0  0  0  0  0  0  0  0
  -24.2270  -41.1911   -5.8389 C   0  0  0  0  0  0  0  0  0  0  0  0
  -23.8435  -41.4329   -7.2800 C   0  0  0  0  0  0  0  0  0  0  0  0
  -23.7525  -42.9174   -7.4987 C   0  0  0  0  0  0  0  0  0  0  0  0
  -23.0532  -43.3071   -8.7643 C   0  0  0  0  0  0  0  0  0  0  0  0
  -21.5742  -43.1125   -8.7591 C   0  0  0  0  0  0  0  0  0  0  0  0
  -20.8096  -44.2521   -8.2331 C   0  0  0  0  0  0  0  0  0  0  0  0
  -20.8596  -45.3394   -8.9046 O   0  0  0  0  0  0  0  0  0  0  0  0
  -20.0246  -44.2779   -7.0651 N   0  0  0  0  0  0  0  0  0  0  0  0
  -20.0447  -45.4264   -6.1770 C   0  0  0  0  0  0  0  0  0  0  0  0
  -19.1413  -43.1757   -6.6483 C   0  0  1  0  0  0  0  0  0  0  0  0
  -17.9008  -43.8633   -6.0579 C   0  0  0  0  0  0  0  0  0  0  0  0
  -18.6559  -42.4022   -7.7926 C   0  0  0  0  0  0  0  0  0  0  0  0
  -18.0517  -43.1320   -8.6683 O   0  0  0  0  0  0  0  0  0  0  0  0
  -18.7463  -41.0424   -8.0679 N   0  0  0  0  0  0  0  0  0  0  0  0
  -18.3588  -39.9002   -7.3052 C   0  0  1  0  0  0  0  0  0  0  0  0
  -18.4417  -40.0009   -5.8267 C   0  0  0  0  0  0  0  0  0  0  0  0
  -17.0226  -39.3697   -7.7921 C   0  0  2  0  0  0  0  0  0  0  0  0
  -17.2559  -38.5623   -8.8921 O   0  0  0  0  0  0  0  0  0  0  0  0
  -16.0419  -40.4581   -8.1285 C   0  0  0  0  0  0  0  0  0  0  0  0
  -14.7104  -39.9129   -7.9302 N   0  0  0  0  0  0  0  0  0  0  0  0
  -13.8979  -40.1757   -9.0869 C   0  0  0  0  0  0  0  0  0  0  0  0
  -14.2688  -41.5093   -9.7162 C   0  0  0  0  0  0  0  0  0  0  0  0
  -12.4137  -40.2726   -8.7465 C   0  0  0  0  0  0  0  0  0  0  0  0
  -14.0251  -39.0592  -10.0815 C   0  0  0  0  0  0  0  0  0  0  0  0
  -14.9025  -38.8847  -11.0611 N   0  0  0  0  0  0  0  0  0  0  0  0
  -14.8351  -37.8607  -11.7961 N   0  0  0  0  0  0  0  0  0  0  0  0
  -13.8838  -36.9559  -11.5883 C   0  0  0  0  0  0  0  0  0  0  0  0
  -13.6197  -35.6762  -12.3336 C   0  0  0  0  0  0  0  0  0  0  0  0
  -12.4712  -35.8786  -13.3190 C   0  0  0  0  0  0  0  0  0  0  0  0
  -11.1942  -36.2160  -12.5792 C   0  0  0  0  0  0  0  0  0  0  0  0
  -12.8258  -37.0733  -14.1777 C   0  0  0  0  0  0  0  0  0  0  0  0
  -12.2820  -34.6416  -14.1731 C   0  0  0  0  0  0  0  0  0  0  0  0
  -13.0620  -37.6610  -10.2477 S   0  0  0  0  0  0  0  0  0  0  0  0
  2  1  1  1
  2  3  1  0
  3  4  1  0
  4  5  1  0
  5  6  1  0
  6  7  1  0
  7  8  1  0
  8  9  1  0
  9 10  1  0
 10 11  1  0
 11 12  2  0
 11 13  1  0
 13 14  1  0
 13 15  1  0
 15 16  1  6
 15 17  1  0
 17 18  2  0
 17 19  1  0
 19 20  1  0
 20 21  1  1
 20 22  1  0
 22 23  1  6
 22 24  1  0
 24 25  1  0
 25 26  1  0
 26 27  1  0
 26 28  1  0
 26 29  1  0
 29 30  2  0
 30 31  1  0
 31 32  2  0
 32 33  1  0
 33 34  1  0
 34 35  1  0
 34 36  1  0
 34 37  1  0
 32 38  1  0
 21  2  1  0
 38 29  1  0
M  END
$$$$
