
     RDKit          3D

 38 39  0  0  0  0  0  0  0  0999 V2000
  -19.4886  -39.5353   -3.9222 C   0  0  0  0  0  0  0  0  0  0  0  0
  -19.4146  -39.3331   -5.3975 C   0  0  2  0  0  0  0  0  0  0  0  0
  -20.6967  -39.5971   -6.0889 C   0  0  0  0  0  0  0  0  0  0  0  0
  -21.7087  -40.3301   -5.2481 C   0  0  0  0  0  0  0  0  0  0  0  0
  -22.9902  -39.5377   -5.0551 C   0  0  0  0  0  0  0  0  0  0  0  0
  -24.1434  -40.3843   -5.6067 C   0  0  0  0  0  0  0  0  0  0  0  0
  -23.8809  -40.8255   -7.0275 C   0  0  0  0  0  0  0  0  0  0  0  0
  -24.0448  -42.3183   -7.0932 C   0  0  0  0  0  0  0  0  0  0  0  0
  -23.4860  -42.9406   -8.3355 C   0  0  0  0  0  0  0  0  0  0  0  0
  -21.9969  -42.9970   -8.4036 C   0  0  0  0  0  0  0  0  0  0  0  0
  -21.4017  -44.1921   -7.7892 C   0  0  0  0  0  0  0  0  0  0  0  0
  -21.6635  -45.3155   -8.3414 O   0  0  0  0  0  0  0  0  0  0  0  0
  -20.5710  -44.2356   -6.6538 N   0  0  0  0  0  0  0  0  0  0  0  0
  -20.7313  -45.2729   -5.6506 C   0  0  0  0  0  0  0  0  0  0  0  0
  -19.4991  -43.2619   -6.3862 C   0  0  1  0  0  0  0  0  0  0  0  0
  -18.3580  -44.0871   -5.7721 C   0  0  0  0  0  0  0  0  0  0  0  0
  -18.9550  -42.6954   -7.6216 C   0  0  0  0  0  0  0  0  0  0  0  0
  -18.5248  -43.5975   -8.4375 O   0  0  0  0  0  0  0  0  0  0  0  0
  -18.8369  -41.3728   -8.0339 N   0  0  0  0  0  0  0  0  0  0  0  0
  -18.2287  -40.2431   -7.4090 C   0  0  1  0  0  0  0  0  0  0  0  0
  -18.2490  -40.1847   -5.9260 C   0  0  0  0  0  0  0  0  0  0  0  0
  -16.8514  -39.9938   -7.9961 C   0  0  2  0  0  0  0  0  0  0  0  0
  -16.5422  -38.6568   -7.8138 O   0  0  0  0  0  0  0  0  0  0  0  0
  -16.7508  -40.3707   -9.4478 C   0  0  0  0  0  0  0  0  0  0  0  0
  -16.0260  -39.3061  -10.1189 N   0  0  0  0  0  0  0  0  0  0  0  0
  -14.6505  -39.6863  -10.2933 C   0  0  0  0  0  0  0  0  0  0  0  0
  -14.5465  -41.0371  -10.9837 C   0  0  0  0  0  0  0  0  0  0  0  0
  -13.9151  -39.8382   -8.9650 C   0  0  0  0  0  0  0  0  0  0  0  0
  -13.9085  -38.6324  -11.0619 C   0  0  0  0  0  0  0  0  0  0  0  0
  -12.9578  -38.7553  -11.9789 N   0  0  0  0  0  0  0  0  0  0  0  0
  -12.4569  -37.7270  -12.5129 N   0  0  0  0  0  0  0  0  0  0  0  0
  -12.8825  -36.5194  -12.1558 C   0  0  0  0  0  0  0  0  0  0  0  0
  -12.4318  -35.1741  -12.6558 C   0  0  0  0  0  0  0  0  0  0  0  0
  -13.3623  -34.6970  -13.7681 C   0  0  0  0  0  0  0  0  0  0  0  0
  -12.9480  -33.3229  -14.2498 C   0  0  0  0  0  0  0  0  0  0  0  0
  -13.1957  -35.6528  -14.9296 C   0  0  0  0  0  0  0  0  0  0  0  0
  -14.7990  -34.6830  -13.2872 C   0  0  0  0  0  0  0  0  0  0  0  0
  -14.0726  -36.9363  -10.9814 S   0  0  0  0  0  0  0  0  0  0  0  0
  2  1  1  1
  2  3  1  0
  3  4  1  0
  4  5  1  0
  5  6  1  0
  6  7  1  0
  7  8  1  0
  8  9  1  0
  9 10  1  0
 10 11  1  0
 11 12  2  0
 11 13  1  0
 13 14  1  0
 13 15  1  0
 15 16  1  6
 15 17  1  0
 17 18  2  0
 17 19  1  0
 19 20  1  0
 20 21  1  1
 20 22  1  0
 22 23  1  6
 22 24  1  0
 24 25  1  0
 25 26  1  0
 26 27  1  0
 26 28  1  0
 26 29  1  0
 29 30  2  0
 30 31  1  0
 31 32  2  0
 32 33  1  0
 33 34  1  0
 34 35  1  0
 34 36  1  0
 34 37  1  0
 32 38  1  0
 21  2  1  0
 38 29  1  0
M  END
$$$$
