
     RDKit          3D

 38 39  0  0  0  0  0  0  0  0999 V2000
  -19.6690  -41.1785   -4.4100 C   0  0  0  0  0  0  0  0  0  0  0  0
  -19.1750  -40.1454   -5.3647 C   0  0  2  0  0  0  0  0  0  0  0  0
  -20.1903  -39.7377   -6.3620 C   0  0  0  0  0  0  0  0  0  0  0  0
  -21.3782  -40.6601   -6.4418 C   0  0  0  0  0  0  0  0  0  0  0  0
  -22.6861  -39.9552   -6.1260 C   0  0  0  0  0  0  0  0  0  0  0  0
  -23.5995  -40.1085   -7.3479 C   0  0  0  0  0  0  0  0  0  0  0  0
  -22.9196  -39.6420   -8.6138 C   0  0  0  0  0  0  0  0  0  0  0  0
  -23.0070  -40.7478   -9.6284 C   0  0  0  0  0  0  0  0  0  0  0  0
  -22.0898  -40.5766  -10.7998 C   0  0  0  0  0  0  0  0  0  0  0  0
  -20.6445  -40.8116  -10.5150 C   0  0  0  0  0  0  0  0  0  0  0  0
  -20.2145  -42.2105  -10.6500 C   0  0  0  0  0  0  0  0  0  0  0  0
  -20.2661  -42.7192  -11.8222 O   0  0  0  0  0  0  0  0  0  0  0  0
  -19.7498  -43.0558   -9.6250 N   0  0  0  0  0  0  0  0  0  0  0  0
  -20.1607  -44.4470   -9.5605 C   0  0  0  0  0  0  0  0  0  0  0  0
  -18.8358  -42.6197   -8.5559 C   0  0  1  0  0  0  0  0  0  0  0  0
  -17.8962  -43.8132   -8.3260 C   0  0  0  0  0  0  0  0  0  0  0  0
  -17.9745  -41.5180   -8.9893 C   0  0  0  0  0  0  0  0  0  0  0  0
  -17.2952  -41.8025  -10.0487 O   0  0  0  0  0  0  0  0  0  0  0  0
  -17.7858  -40.2515   -8.4475 N   0  0  0  0  0  0  0  0  0  0  0  0
  -17.4245  -39.8355   -7.1311 C   0  0  1  0  0  0  0  0  0  0  0  0
  -17.8781  -40.6772   -5.9958 C   0  0  0  0  0  0  0  0  0  0  0  0
  -15.9450  -39.5016   -7.0712 C   0  0  2  0  0  0  0  0  0  0  0  0
  -15.8199  -38.1344   -6.8940 O   0  0  0  0  0  0  0  0  0  0  0  0
  -15.1877  -39.9525   -8.2889 C   0  0  0  0  0  0  0  0  0  0  0  0
  -13.7950  -39.5943   -8.0857 N   0  0  0  0  0  0  0  0  0  0  0  0
  -13.0387  -39.8805   -9.2745 C   0  0  0  0  0  0  0  0  0  0  0  0
  -13.0795  -41.3659   -9.5966 C   0  0  0  0  0  0  0  0  0  0  0  0
  -11.5622  -39.5256   -9.1253 C   0  0  0  0  0  0  0  0  0  0  0  0
  -13.5479  -39.0671  -10.4283 C   0  0  0  0  0  0  0  0  0  0  0  0
  -14.1767  -39.4512  -11.5315 N   0  0  0  0  0  0  0  0  0  0  0  0
  -14.5260  -38.5955  -12.3913 N   0  0  0  0  0  0  0  0  0  0  0  0
  -14.2635  -37.3079  -12.1911 C   0  0  0  0  0  0  0  0  0  0  0  0
  -14.5847  -36.1314  -13.0717 C   0  0  0  0  0  0  0  0  0  0  0  0
  -13.3336  -35.6958  -13.8304 C   0  0  0  0  0  0  0  0  0  0  0  0
  -12.0910  -36.2286  -13.1495 C   0  0  0  0  0  0  0  0  0  0  0  0
  -13.4028  -36.3270  -15.2042 C   0  0  0  0  0  0  0  0  0  0  0  0
  -13.2776  -34.1854  -13.9366 C   0  0  0  0  0  0  0  0  0  0  0  0
  -13.4670  -37.3796  -10.6646 S   0  0  0  0  0  0  0  0  0  0  0  0
  2  1  1  1
  2  3  1  0
  3  4  1  0
  4  5  1  0
  5  6  1  0
  6  7  1  0
  7  8  1  0
  8  9  1  0
  9 10  1  0
 10 11  1  0
 11 12  2  0
 11 13  1  0
 13 14  1  0
 13 15  1  0
 15 16  1  6
 15 17  1  0
 17 18  2  0
 17 19  1  0
 19 20  1  0
 20 21  1  1
 20 22  1  0
 22 23  1  6
 22 24  1  0
 24 25  1  0
 25 26  1  0
 26 27  1  0
 26 28  1  0
 26 29  1  0
 29 30  2  0
 30 31  1  0
 31 32  2  0
 32 33  1  0
 33 34  1  0
 34 35  1  0
 34 36  1  0
 34 37  1  0
 32 38  1  0
 21  2  1  0
 38 29  1  0
M  END
$$$$
