
     RDKit          3D

 38 39  0  0  0  0  0  0  0  0999 V2000
  -19.8611  -38.4135   -4.7440 C   0  0  0  0  0  0  0  0  0  0  0  0
  -19.1927  -38.4898   -6.0745 C   0  0  2  0  0  0  0  0  0  0  0  0
  -20.1275  -38.7917   -7.1820 C   0  0  0  0  0  0  0  0  0  0  0  0
  -21.4747  -39.2909   -6.7301 C   0  0  0  0  0  0  0  0  0  0  0  0
  -22.6124  -38.3947   -7.1881 C   0  0  0  0  0  0  0  0  0  0  0  0
  -23.5618  -39.2508   -8.0346 C   0  0  0  0  0  0  0  0  0  0  0  0
  -22.8286  -39.9607   -9.1485 C   0  0  0  0  0  0  0  0  0  0  0  0
  -23.1511  -41.4265   -9.0632 C   0  0  0  0  0  0  0  0  0  0  0  0
  -22.2414  -42.3007   -9.8700 C   0  0  0  0  0  0  0  0  0  0  0  0
  -20.8650  -42.4655   -9.3189 C   0  0  0  0  0  0  0  0  0  0  0  0
  -20.7207  -43.5643   -8.3536 C   0  0  0  0  0  0  0  0  0  0  0  0
  -20.8941  -44.7503   -8.7996 O   0  0  0  0  0  0  0  0  0  0  0  0
  -20.4110  -43.4535   -6.9851 N   0  0  0  0  0  0  0  0  0  0  0  0
  -21.0855  -44.2770   -5.9976 C   0  0  0  0  0  0  0  0  0  0  0  0
  -19.4083  -42.5193   -6.4459 C   0  0  1  0  0  0  0  0  0  0  0  0
  -18.7170  -43.2908   -5.3115 C   0  0  0  0  0  0  0  0  0  0  0  0
  -18.3562  -42.2250   -7.4206 C   0  0  0  0  0  0  0  0  0  0  0  0
  -17.7669  -43.2874   -7.8549 O   0  0  0  0  0  0  0  0  0  0  0  0
  -17.9121  -41.0108   -7.9318 N   0  0  0  0  0  0  0  0  0  0  0  0
  -17.4503  -39.8280   -7.2805 C   0  0  1  0  0  0  0  0  0  0  0  0
  -18.0380  -39.4980   -5.9580 C   0  0  0  0  0  0  0  0  0  0  0  0
  -15.9332  -39.7806   -7.2867 C   0  0  2  0  0  0  0  0  0  0  0  0
  -15.5393  -38.5603   -6.7651 O   0  0  0  0  0  0  0  0  0  0  0  0
  -15.3410  -39.9928   -8.6519 C   0  0  0  0  0  0  0  0  0  0  0  0
  -14.4084  -41.1013   -8.5481 N   0  0  0  0  0  0  0  0  0  0  0  0
  -13.7979  -41.3471   -9.8264 C   0  0  0  0  0  0  0  0  0  0  0  0
  -14.2624  -42.6763  -10.4005 C   0  0  0  0  0  0  0  0  0  0  0  0
  -12.2774  -41.4387   -9.7379 C   0  0  0  0  0  0  0  0  0  0  0  0
  -14.0929  -40.2211  -10.7735 C   0  0  0  0  0  0  0  0  0  0  0  0
  -14.9035  -40.1788  -11.8229 N   0  0  0  0  0  0  0  0  0  0  0  0
  -15.0101  -39.1174  -12.4978 N   0  0  0  0  0  0  0  0  0  0  0  0
  -14.3093  -38.0406  -12.1566 C   0  0  0  0  0  0  0  0  0  0  0  0
  -14.2821  -36.6863  -12.8107 C   0  0  0  0  0  0  0  0  0  0  0  0
  -13.2149  -36.6598  -13.9021 C   0  0  0  0  0  0  0  0  0  0  0  0
  -11.8467  -36.9203  -13.3090 C   0  0  0  0  0  0  0  0  0  0  0  0
  -13.5203  -37.7976  -14.8521 C   0  0  0  0  0  0  0  0  0  0  0  0
  -13.2362  -35.3319  -14.6315 C   0  0  0  0  0  0  0  0  0  0  0  0
  -13.4620  -38.6362  -10.7793 S   0  0  0  0  0  0  0  0  0  0  0  0
  2  1  1  1
  2  3  1  0
  3  4  1  0
  4  5  1  0
  5  6  1  0
  6  7  1  0
  7  8  1  0
  8  9  1  0
  9 10  1  0
 10 11  1  0
 11 12  2  0
 11 13  1  0
 13 14  1  0
 13 15  1  0
 15 16  1  1
 15 17  1  0
 17 18  2  0
 17 19  1  0
 19 20  1  0
 20 21  1  1
 20 22  1  0
 22 23  1  6
 22 24  1  0
 24 25  1  0
 25 26  1  0
 26 27  1  0
 26 28  1  0
 26 29  1  0
 29 30  2  0
 30 31  1  0
 31 32  2  0
 32 33  1  0
 33 34  1  0
 34 35  1  0
 34 36  1  0
 34 37  1  0
 32 38  1  0
 21  2  1  0
 38 29  1  0
M  END
$$$$
