
     RDKit          3D

 38 39  0  0  0  0  0  0  0  0999 V2000
  -20.0169  -39.0271   -4.2739 C   0  0  0  0  0  0  0  0  0  0  0  0
  -19.9532  -38.9239   -5.7598 C   0  0  2  0  0  0  0  0  0  0  0  0
  -21.1658  -39.4397   -6.4344 C   0  0  0  0  0  0  0  0  0  0  0  0
  -22.0609  -40.2620   -5.5450 C   0  0  0  0  0  0  0  0  0  0  0  0
  -23.4552  -39.6731   -5.4163 C   0  0  0  0  0  0  0  0  0  0  0  0
  -24.4500  -40.7315   -5.9074 C   0  0  0  0  0  0  0  0  0  0  0  0
  -24.0984  -41.2275   -7.2904 C   0  0  0  0  0  0  0  0  0  0  0  0
  -24.0210  -42.7280   -7.2452 C   0  0  0  0  0  0  0  0  0  0  0  0
  -23.3509  -43.3418   -8.4356 C   0  0  0  0  0  0  0  0  0  0  0  0
  -21.8710  -43.1637   -8.4938 C   0  0  0  0  0  0  0  0  0  0  0  0
  -21.1025  -44.2000   -7.7899 C   0  0  0  0  0  0  0  0  0  0  0  0
  -21.1732  -45.3882   -8.2577 O   0  0  0  0  0  0  0  0  0  0  0  0
  -20.2933  -44.0269   -6.6514 N   0  0  0  0  0  0  0  0  0  0  0  0
  -20.3017  -45.0004   -5.5741 C   0  0  0  0  0  0  0  0  0  0  0  0
  -19.3947  -42.8772   -6.4532 C   0  0  1  0  0  0  0  0  0  0  0  0
  -18.1463  -43.4618   -5.7751 C   0  0  0  0  0  0  0  0  0  0  0  0
  -18.9287  -42.3225   -7.7254 C   0  0  0  0  0  0  0  0  0  0  0  0
  -18.3475  -43.2012   -8.4701 O   0  0  0  0  0  0  0  0  0  0  0  0
  -19.0166  -41.0318   -8.2346 N   0  0  0  0  0  0  0  0  0  0  0  0
  -18.6062  -39.7767   -7.6935 C   0  0  1  0  0  0  0  0  0  0  0  0
  -18.6586  -39.6141   -6.2191 C   0  0  0  0  0  0  0  0  0  0  0  0
  -17.2773  -39.3535   -8.2926 C   0  0  2  0  0  0  0  0  0  0  0  0
  -16.7872  -38.2955   -7.5464 O   0  0  0  0  0  0  0  0  0  0  0  0
  -17.3761  -38.9803   -9.7453 C   0  0  0  0  0  0  0  0  0  0  0  0
  -16.1096  -39.3278  -10.3653 N   0  0  0  0  0  0  0  0  0  0  0  0
  -15.8104  -38.3973  -11.4197 C   0  0  0  0  0  0  0  0  0  0  0  0
  -16.2115  -36.9850  -11.0240 C   0  0  0  0  0  0  0  0  0  0  0  0
  -16.5762  -38.7051  -12.7030 C   0  0  0  0  0  0  0  0  0  0  0  0
  -14.3546  -38.4611  -11.7779 C   0  0  0  0  0  0  0  0  0  0  0  0
  -13.3545  -39.0919  -11.1763 N   0  0  0  0  0  0  0  0  0  0  0  0
  -12.1853  -39.0174  -11.6462 N   0  0  0  0  0  0  0  0  0  0  0  0
  -11.9558  -38.3060  -12.7454 C   0  0  0  0  0  0  0  0  0  0  0  0
  -10.6570  -38.0827  -13.4707 C   0  0  0  0  0  0  0  0  0  0  0  0
  -10.3864  -36.5857  -13.5990 C   0  0  0  0  0  0  0  0  0  0  0  0
   -9.2297  -36.3373  -14.5435 C   0  0  0  0  0  0  0  0  0  0  0  0
  -11.6183  -35.9613  -14.2181 C   0  0  0  0  0  0  0  0  0  0  0  0
  -10.1042  -35.9801  -12.2391 C   0  0  0  0  0  0  0  0  0  0  0  0
  -13.5430  -37.7289  -13.0876 S   0  0  0  0  0  0  0  0  0  0  0  0
  2  1  1  1
  2  3  1  0
  3  4  1  0
  4  5  1  0
  5  6  1  0
  6  7  1  0
  7  8  1  0
  8  9  1  0
  9 10  1  0
 10 11  1  0
 11 12  2  0
 11 13  1  0
 13 14  1  0
 13 15  1  0
 15 16  1  1
 15 17  1  0
 17 18  2  0
 17 19  1  0
 19 20  1  0
 20 21  1  1
 20 22  1  0
 22 23  1  1
 22 24  1  0
 24 25  1  0
 25 26  1  0
 26 27  1  0
 26 28  1  0
 26 29  1  0
 29 30  2  0
 30 31  1  0
 31 32  2  0
 32 33  1  0
 33 34  1  0
 34 35  1  0
 34 36  1  0
 34 37  1  0
 32 38  1  0
 21  2  1  0
 38 29  1  0
M  END
$$$$
