
     RDKit          3D

 38 39  0  0  0  0  0  0  0  0999 V2000
  -19.8646  -39.6286   -3.8814 C   0  0  0  0  0  0  0  0  0  0  0  0
  -19.5377  -39.0160   -5.2008 C   0  0  2  0  0  0  0  0  0  0  0  0
  -20.6533  -39.0878   -6.1712 C   0  0  0  0  0  0  0  0  0  0  0  0
  -21.7511  -40.0402   -5.7761 C   0  0  0  0  0  0  0  0  0  0  0  0
  -23.0951  -39.3493   -5.6220 C   0  0  0  0  0  0  0  0  0  0  0  0
  -24.0718  -40.0179   -6.5967 C   0  0  0  0  0  0  0  0  0  0  0  0
  -23.5281  -40.0357   -8.0060 C   0  0  0  0  0  0  0  0  0  0  0  0
  -23.5799  -41.4505   -8.5113 C   0  0  0  0  0  0  0  0  0  0  0  0
  -22.7660  -41.6892   -9.7455 C   0  0  0  0  0  0  0  0  0  0  0  0
  -21.2888  -41.7073   -9.5389 C   0  0  0  0  0  0  0  0  0  0  0  0
  -20.7384  -43.0207   -9.1757 C   0  0  0  0  0  0  0  0  0  0  0  0
  -20.8223  -43.9447  -10.0560 O   0  0  0  0  0  0  0  0  0  0  0  0
  -20.1262  -43.3747   -7.9587 N   0  0  0  0  0  0  0  0  0  0  0  0
  -20.3979  -44.6554   -7.3308 C   0  0  0  0  0  0  0  0  0  0  0  0
  -19.1861  -42.5047   -7.2321 C   0  0  1  0  0  0  0  0  0  0  0  0
  -18.1241  -43.4571   -6.6620 C   0  0  0  0  0  0  0  0  0  0  0  0
  -18.4651  -41.6054   -8.1347 C   0  0  0  0  0  0  0  0  0  0  0  0
  -17.8365  -42.2347   -9.0692 O   0  0  0  0  0  0  0  0  0  0  0  0
  -18.3604  -40.2190   -8.1353 N   0  0  0  0  0  0  0  0  0  0  0  0
  -17.9503  -39.3058   -7.1183 C   0  0  1  0  0  0  0  0  0  0  0  0
  -18.2428  -39.6700   -5.7094 C   0  0  0  0  0  0  0  0  0  0  0  0
  -16.5085  -38.8849   -7.3377 C   0  0  2  0  0  0  0  0  0  0  0  0
  -16.4983  -37.5388   -7.6603 O   0  0  0  0  0  0  0  0  0  0  0  0
  -15.8122  -39.6921   -8.3975 C   0  0  0  0  0  0  0  0  0  0  0  0
  -15.4399  -38.7752   -9.4606 N   0  0  0  0  0  0  0  0  0  0  0  0
  -14.4699  -39.3946  -10.3223 C   0  0  0  0  0  0  0  0  0  0  0  0
  -15.1530  -40.2457  -11.3811 C   0  0  0  0  0  0  0  0  0  0  0  0
  -13.5369  -40.3366   -9.5670 C   0  0  0  0  0  0  0  0  0  0  0  0
  -13.5906  -38.3557  -10.9541 C   0  0  0  0  0  0  0  0  0  0  0  0
  -13.0423  -37.2678  -10.4290 N   0  0  0  0  0  0  0  0  0  0  0  0
  -12.3238  -36.5138  -11.1424 N   0  0  0  0  0  0  0  0  0  0  0  0
  -12.1164  -36.8104  -12.4215 C   0  0  0  0  0  0  0  0  0  0  0  0
  -11.3048  -36.0626  -13.4438 C   0  0  0  0  0  0  0  0  0  0  0  0
  -12.2273  -35.2211  -14.3222 C   0  0  0  0  0  0  0  0  0  0  0  0
  -12.8037  -34.0675  -13.5293 C   0  0  0  0  0  0  0  0  0  0  0  0
  -11.3761  -34.6311  -15.4258 C   0  0  0  0  0  0  0  0  0  0  0  0
  -13.3354  -36.0779  -14.8998 C   0  0  0  0  0  0  0  0  0  0  0  0
  -13.0270  -38.2666  -12.5618 S   0  0  0  0  0  0  0  0  0  0  0  0
  2  1  1  1
  2  3  1  0
  3  4  1  0
  4  5  1  0
  5  6  1  0
  6  7  1  0
  7  8  1  0
  8  9  1  0
  9 10  1  0
 10 11  1  0
 11 12  2  0
 11 13  1  0
 13 14  1  0
 13 15  1  0
 15 16  1  6
 15 17  1  0
 17 18  2  0
 17 19  1  0
 19 20  1  0
 20 21  1  1
 20 22  1  0
 22 23  1  6
 22 24  1  0
 24 25  1  0
 25 26  1  0
 26 27  1  0
 26 28  1  0
 26 29  1  0
 29 30  2  0
 30 31  1  0
 31 32  2  0
 32 33  1  0
 33 34  1  0
 34 35  1  0
 34 36  1  0
 34 37  1  0
 32 38  1  0
 21  2  1  0
 38 29  1  0
M  END
$$$$
