
     RDKit          3D

 38 39  0  0  0  0  0  0  0  0999 V2000
  -20.1603  -39.0645   -4.4633 C   0  0  0  0  0  0  0  0  0  0  0  0
  -19.4878  -38.8891   -5.7823 C   0  0  2  0  0  0  0  0  0  0  0  0
  -20.3632  -39.2097   -6.9323 C   0  0  0  0  0  0  0  0  0  0  0  0
  -21.6156  -39.9594   -6.5609 C   0  0  0  0  0  0  0  0  0  0  0  0
  -22.8797  -39.2068   -6.9390 C   0  0  0  0  0  0  0  0  0  0  0  0
  -23.6826  -40.1023   -7.8899 C   0  0  0  0  0  0  0  0  0  0  0  0
  -22.8466  -40.5625   -9.0611 C   0  0  0  0  0  0  0  0  0  0  0  0
  -22.9352  -42.0610   -9.1409 C   0  0  0  0  0  0  0  0  0  0  0  0
  -21.8992  -42.6887  -10.0215 C   0  0  0  0  0  0  0  0  0  0  0  0
  -20.5142  -42.6964   -9.4674 C   0  0  0  0  0  0  0  0  0  0  0  0
  -20.1996  -43.8585   -8.6245 C   0  0  0  0  0  0  0  0  0  0  0  0
  -20.1846  -45.0008   -9.1994 O   0  0  0  0  0  0  0  0  0  0  0  0
  -19.9116  -43.8516   -7.2468 N   0  0  0  0  0  0  0  0  0  0  0  0
  -20.4489  -44.8737   -6.3664 C   0  0  0  0  0  0  0  0  0  0  0  0
  -19.0682  -42.8374   -6.5920 C   0  0  1  0  0  0  0  0  0  0  0  0
  -18.2647  -43.6115   -5.5359 C   0  0  0  0  0  0  0  0  0  0  0  0
  -18.0750  -42.2775   -7.5103 C   0  0  0  0  0  0  0  0  0  0  0  0
  -17.3260  -43.1807   -8.0469 O   0  0  0  0  0  0  0  0  0  0  0  0
  -17.8267  -40.9601   -7.8791 N   0  0  0  0  0  0  0  0  0  0  0  0
  -17.5566  -39.7985   -7.0953 C   0  0  1  0  0  0  0  0  0  0  0  0
  -18.1892  -39.7115   -5.7555 C   0  0  0  0  0  0  0  0  0  0  0  0
  -16.0657  -39.5148   -7.0696 C   0  0  2  0  0  0  0  0  0  0  0  0
  -15.8904  -38.1546   -6.8815 O   0  0  0  0  0  0  0  0  0  0  0  0
  -15.3548  -39.9769   -8.3108 C   0  0  0  0  0  0  0  0  0  0  0  0
  -14.7023  -38.8158   -8.8898 N   0  0  0  0  0  0  0  0  0  0  0  0
  -14.0035  -39.1949  -10.0877 C   0  0  0  0  0  0  0  0  0  0  0  0
  -14.8472  -40.1391  -10.9297 C   0  0  0  0  0  0  0  0  0  0  0  0
  -12.7066  -39.9431   -9.7937 C   0  0  0  0  0  0  0  0  0  0  0  0
  -13.6131  -37.9781  -10.8744 C   0  0  0  0  0  0  0  0  0  0  0  0
  -13.3033  -36.7568  -10.4594 N   0  0  0  0  0  0  0  0  0  0  0  0
  -12.9984  -35.8623  -11.2964 N   0  0  0  0  0  0  0  0  0  0  0  0
  -12.9877  -36.1447  -12.5953 C   0  0  0  0  0  0  0  0  0  0  0  0
  -12.6588  -35.2435  -13.7540 C   0  0  0  0  0  0  0  0  0  0  0  0
  -12.1388  -36.0743  -14.9246 C   0  0  0  0  0  0  0  0  0  0  0  0
  -12.9752  -35.8252  -16.1616 C   0  0  0  0  0  0  0  0  0  0  0  0
  -10.7349  -35.5942  -15.2233 C   0  0  0  0  0  0  0  0  0  0  0  0
  -12.1374  -37.5472  -14.5693 C   0  0  0  0  0  0  0  0  0  0  0  0
  -13.4495  -37.8046  -12.5636 S   0  0  0  0  0  0  0  0  0  0  0  0
  2  1  1  1
  2  3  1  0
  3  4  1  0
  4  5  1  0
  5  6  1  0
  6  7  1  0
  7  8  1  0
  8  9  1  0
  9 10  1  0
 10 11  1  0
 11 12  2  0
 11 13  1  0
 13 14  1  0
 13 15  1  0
 15 16  1  1
 15 17  1  0
 17 18  2  0
 17 19  1  0
 19 20  1  0
 20 21  1  1
 20 22  1  0
 22 23  1  6
 22 24  1  0
 24 25  1  0
 25 26  1  0
 26 27  1  0
 26 28  1  0
 26 29  1  0
 29 30  2  0
 30 31  1  0
 31 32  2  0
 32 33  1  0
 33 34  1  0
 34 35  1  0
 34 36  1  0
 34 37  1  0
 32 38  1  0
 21  2  1  0
 38 29  1  0
M  END
$$$$
