
     RDKit          3D

 38 39  0  0  0  0  0  0  0  0999 V2000
  -19.9887  -38.4417   -5.8800 C   0  0  0  0  0  0  0  0  0  0  0  0
  -19.9989  -39.0382   -7.2464 C   0  0  2  0  0  0  0  0  0  0  0  0
  -21.1811  -39.8915   -7.5031 C   0  0  0  0  0  0  0  0  0  0  0  0
  -21.9502  -40.2649   -6.2632 C   0  0  0  0  0  0  0  0  0  0  0  0
  -23.3900  -39.7822   -6.3025 C   0  0  0  0  0  0  0  0  0  0  0  0
  -24.2931  -41.0136   -6.1659 C   0  0  0  0  0  0  0  0  0  0  0  0
  -23.9526  -42.0708   -7.1900 C   0  0  0  0  0  0  0  0  0  0  0  0
  -23.7228  -43.3683   -6.4665 C   0  0  0  0  0  0  0  0  0  0  0  0
  -23.0455  -44.4176   -7.2930 C   0  0  0  0  0  0  0  0  0  0  0  0
  -21.5949  -44.1849   -7.5513 C   0  0  0  0  0  0  0  0  0  0  0  0
  -20.6967  -44.7180   -6.5173 C   0  0  0  0  0  0  0  0  0  0  0  0
  -20.6673  -45.9890   -6.3784 O   0  0  0  0  0  0  0  0  0  0  0  0
  -19.8613  -43.9790   -5.6588 N   0  0  0  0  0  0  0  0  0  0  0  0
  -19.7259  -44.3368   -4.2582 C   0  0  0  0  0  0  0  0  0  0  0  0
  -19.0754  -42.8100   -6.0883 C   0  0  1  0  0  0  0  0  0  0  0  0
  -17.7468  -42.9234   -5.3254 C   0  0  0  0  0  0  0  0  0  0  0  0
  -18.7221  -42.8807   -7.5073 C   0  0  0  0  0  0  0  0  0  0  0  0
  -18.0877  -43.9624   -7.8105 O   0  0  0  0  0  0  0  0  0  0  0  0
  -18.9611  -41.9852   -8.5436 N   0  0  0  0  0  0  0  0  0  0  0  0
  -18.6564  -40.5975   -8.6772 C   0  0  1  0  0  0  0  0  0  0  0  0
  -18.6621  -39.7711   -7.4442 C   0  0  0  0  0  0  0  0  0  0  0  0
  -17.4036  -40.4108   -9.5135 C   0  0  2  0  0  0  0  0  0  0  0  0
  -17.3087  -41.4785  -10.3895 O   0  0  0  0  0  0  0  0  0  0  0  0
  -16.1542  -40.2873   -8.6867 C   0  0  0  0  0  0  0  0  0  0  0  0
  -15.3953  -39.1695   -9.2194 N   0  0  0  0  0  0  0  0  0  0  0  0
  -14.0335  -39.5691   -9.4492 C   0  0  0  0  0  0  0  0  0  0  0  0
  -13.9762  -40.8346  -10.2902 C   0  0  0  0  0  0  0  0  0  0  0  0
  -13.2953  -39.8944   -8.1541 C   0  0  0  0  0  0  0  0  0  0  0  0
  -13.2634  -38.4574  -10.0996 C   0  0  0  0  0  0  0  0  0  0  0  0
  -13.1651  -37.1776   -9.7645 N   0  0  0  0  0  0  0  0  0  0  0  0
  -12.4539  -36.3955  -10.4546 N   0  0  0  0  0  0  0  0  0  0  0  0
  -11.8026  -36.8551  -11.5183 C   0  0  0  0  0  0  0  0  0  0  0  0
  -10.9092  -36.1102  -12.4722 C   0  0  0  0  0  0  0  0  0  0  0  0
  -11.5944  -35.9822  -13.8304 C   0  0  0  0  0  0  0  0  0  0  0  0
  -12.1154  -37.3280  -14.2878 C   0  0  0  0  0  0  0  0  0  0  0  0
  -12.7905  -35.0740  -13.6427 C   0  0  0  0  0  0  0  0  0  0  0  0
  -10.6380  -35.4046  -14.8538 C   0  0  0  0  0  0  0  0  0  0  0  0
  -12.2700  -38.5134  -11.4853 S   0  0  0  0  0  0  0  0  0  0  0  0
  2  1  1  1
  2  3  1  0
  3  4  1  0
  4  5  1  0
  5  6  1  0
  6  7  1  0
  7  8  1  0
  8  9  1  0
  9 10  1  0
 10 11  1  0
 11 12  2  0
 11 13  1  0
 13 14  1  0
 13 15  1  0
 15 16  1  1
 15 17  1  0
 17 18  2  0
 17 19  1  0
 19 20  1  0
 20 21  1  1
 20 22  1  0
 22 23  1  6
 22 24  1  0
 24 25  1  0
 25 26  1  0
 26 27  1  0
 26 28  1  0
 26 29  1  0
 29 30  2  0
 30 31  1  0
 31 32  2  0
 32 33  1  0
 33 34  1  0
 34 35  1  0
 34 36  1  0
 34 37  1  0
 32 38  1  0
 21  2  1  0
 38 29  1  0
M  END
$$$$
