
     RDKit          3D

 38 39  0  0  0  0  0  0  0  0999 V2000
  -15.1602  -36.0334  -11.7596 C   0  0  0  0  0  0  0  0  0  0  0  0
  -14.5516  -36.5716  -10.5095 C   0  0  2  0  0  0  0  0  0  0  0  0
  -13.1357  -36.9715  -10.6737 C   0  0  0  0  0  0  0  0  0  0  0  0
  -12.6905  -37.0809  -12.1083 C   0  0  0  0  0  0  0  0  0  0  0  0
  -11.5444  -36.1396  -12.4366 C   0  0  0  0  0  0  0  0  0  0  0  0
  -10.3718  -36.9953  -12.9303 C   0  0  0  0  0  0  0  0  0  0  0  0
  -10.0288  -38.0906  -11.9479 C   0  0  0  0  0  0  0  0  0  0  0  0
  -10.0254  -39.3997  -12.6869 C   0  0  0  0  0  0  0  0  0  0  0  0
  -10.0456  -40.6041  -11.7971 C   0  0  0  0  0  0  0  0  0  0  0  0
  -11.3472  -40.8715  -11.1191 C   0  0  0  0  0  0  0  0  0  0  0  0
  -12.2853  -41.6915  -11.8986 C   0  0  0  0  0  0  0  0  0  0  0  0
  -11.9375  -42.8996  -12.1337 O   0  0  0  0  0  0  0  0  0  0  0  0
  -13.5308  -41.2906  -12.4173 N   0  0  0  0  0  0  0  0  0  0  0  0
  -13.9501  -41.6933  -13.7478 C   0  0  0  0  0  0  0  0  0  0  0  0
  -14.4910  -40.4499  -11.6826 C   0  0  1  0  0  0  0  0  0  0  0  0
  -15.8723  -41.0164  -12.0447 C   0  0  0  0  0  0  0  0  0  0  0  0
  -14.3647  -40.6154  -10.2335 C   0  0  0  0  0  0  0  0  0  0  0  0
  -14.4910  -41.8434   -9.8584 O   0  0  0  0  0  0  0  0  0  0  0  0
  -14.1360  -39.6770   -9.2334 N   0  0  0  0  0  0  0  0  0  0  0  0
  -14.8234  -38.4721   -8.8986 C   0  0  1  0  0  0  0  0  0  0  0  0
  -15.4533  -37.7102  -10.0057 C   0  0  0  0  0  0  0  0  0  0  0  0
  -15.7612  -38.7077   -7.7286 C   0  0  2  0  0  0  0  0  0  0  0  0
  -15.4513  -39.9359   -7.1701 O   0  0  0  0  0  0  0  0  0  0  0  0
  -17.2130  -38.6486   -8.1139 C   0  0  0  0  0  0  0  0  0  0  0  0
  -17.8839  -39.7396   -7.4290 N   0  0  0  0  0  0  0  0  0  0  0  0
  -19.2932  -39.6999   -7.7110 C   0  0  0  0  0  0  0  0  0  0  0  0
  -19.5829  -40.2535   -9.0972 C   0  0  0  0  0  0  0  0  0  0  0  0
  -19.8490  -38.2789   -7.7040 C   0  0  0  0  0  0  0  0  0  0  0  0
  -20.0591  -40.4518   -6.6622 C   0  0  0  0  0  0  0  0  0  0  0  0
  -19.9096  -41.6946   -6.2229 N   0  0  0  0  0  0  0  0  0  0  0  0
  -20.6696  -42.1424   -5.3199 N   0  0  0  0  0  0  0  0  0  0  0  0
  -21.6210  -41.3676   -4.8086 C   0  0  0  0  0  0  0  0  0  0  0  0
  -22.6271  -41.6909   -3.7380 C   0  0  0  0  0  0  0  0  0  0  0  0
  -24.0244  -41.7706   -4.3479 C   0  0  0  0  0  0  0  0  0  0  0  0
  -24.3648  -40.4780   -5.0586 C   0  0  0  0  0  0  0  0  0  0  0  0
  -23.9936  -42.8662   -5.3916 C   0  0  0  0  0  0  0  0  0  0  0  0
  -25.0525  -42.0780   -3.2782 C   0  0  0  0  0  0  0  0  0  0  0  0
  -21.3702  -39.9200   -5.7091 S   0  0  0  0  0  0  0  0  0  0  0  0
  2  1  1  6
  2  3  1  0
  3  4  1  0
  4  5  1  0
  5  6  1  0
  6  7  1  0
  7  8  1  0
  8  9  1  0
  9 10  1  0
 10 11  1  0
 11 12  2  0
 11 13  1  0
 13 14  1  0
 13 15  1  0
 15 16  1  6
 15 17  1  0
 17 18  2  0
 17 19  1  0
 19 20  1  0
 20 21  1  6
 20 22  1  0
 22 23  1  6
 22 24  1  0
 24 25  1  0
 25 26  1  0
 26 27  1  0
 26 28  1  0
 26 29  1  0
 29 30  2  0
 30 31  1  0
 31 32  2  0
 32 33  1  0
 33 34  1  0
 34 35  1  0
 34 36  1  0
 34 37  1  0
 32 38  1  0
 21  2  1  0
 38 29  1  0
M  END
$$$$
