
     RDKit          3D

 38 39  0  0  0  0  0  0  0  0999 V2000
  -19.7305  -40.0631   -3.5516 C   0  0  0  0  0  0  0  0  0  0  0  0
  -19.8436  -39.4866   -4.9219 C   0  0  2  0  0  0  0  0  0  0  0  0
  -21.1006  -39.8575   -5.6104 C   0  0  0  0  0  0  0  0  0  0  0  0
  -21.8475  -40.9906   -4.9573 C   0  0  0  0  0  0  0  0  0  0  0  0
  -23.2437  -40.5894   -4.5132 C   0  0  0  0  0  0  0  0  0  0  0  0
  -24.2379  -41.5133   -5.2264 C   0  0  0  0  0  0  0  0  0  0  0  0
  -24.0256  -41.5120   -6.7221 C   0  0  0  0  0  0  0  0  0  0  0  0
  -23.8735  -42.9370   -7.1759 C   0  0  0  0  0  0  0  0  0  0  0  0
  -23.3173  -43.0823   -8.5587 C   0  0  0  0  0  0  0  0  0  0  0  0
  -21.8639  -42.7748   -8.6948 C   0  0  0  0  0  0  0  0  0  0  0  0
  -20.9717  -43.9151   -8.4425 C   0  0  0  0  0  0  0  0  0  0  0  0
  -21.0403  -44.8936   -9.2631 O   0  0  0  0  0  0  0  0  0  0  0  0
  -20.0454  -44.0486   -7.3913 N   0  0  0  0  0  0  0  0  0  0  0  0
  -19.8839  -45.3121   -6.6943 C   0  0  0  0  0  0  0  0  0  0  0  0
  -19.1847  -42.9529   -6.9148 C   0  0  1  0  0  0  0  0  0  0  0  0
  -17.8404  -43.6193   -6.5849 C   0  0  0  0  0  0  0  0  0  0  0  0
  -18.8952  -41.9854   -7.9747 C   0  0  0  0  0  0  0  0  0  0  0  0
  -18.3634  -42.5302   -9.0163 O   0  0  0  0  0  0  0  0  0  0  0  0
  -19.1015  -40.6113   -8.0250 N   0  0  0  0  0  0  0  0  0  0  0  0
  -18.6905  -39.5653   -7.1456 C   0  0  1  0  0  0  0  0  0  0  0  0
  -18.5798  -39.8862   -5.7006 C   0  0  0  0  0  0  0  0  0  0  0  0
  -17.4609  -38.8662   -7.6963 C   0  0  2  0  0  0  0  0  0  0  0  0
  -17.3935  -37.6052   -7.1291 O   0  0  0  0  0  0  0  0  0  0  0  0
  -17.4545  -38.7766   -9.1968 C   0  0  0  0  0  0  0  0  0  0  0  0
  -16.5187  -39.7753   -9.6828 N   0  0  0  0  0  0  0  0  0  0  0  0
  -16.2286  -39.5380  -11.0708 C   0  0  0  0  0  0  0  0  0  0  0  0
  -17.4400  -38.9598  -11.7851 C   0  0  0  0  0  0  0  0  0  0  0  0
  -15.8744  -40.8195  -11.8194 C   0  0  0  0  0  0  0  0  0  0  0  0
  -15.0403  -38.6322  -11.2106 C   0  0  0  0  0  0  0  0  0  0  0  0
  -14.7192  -37.5355  -10.5366 N   0  0  0  0  0  0  0  0  0  0  0  0
  -13.6584  -36.9101  -10.8141 N   0  0  0  0  0  0  0  0  0  0  0  0
  -12.8620  -37.3508  -11.7828 C   0  0  0  0  0  0  0  0  0  0  0  0
  -11.5649  -36.7698  -12.2755 C   0  0  0  0  0  0  0  0  0  0  0  0
  -11.8446  -35.6813  -13.3087 C   0  0  0  0  0  0  0  0  0  0  0  0
  -12.9722  -36.1022  -14.2269 C   0  0  0  0  0  0  0  0  0  0  0  0
  -12.3109  -34.4567  -12.5514 C   0  0  0  0  0  0  0  0  0  0  0  0
  -10.5935  -35.3741  -14.1064 C   0  0  0  0  0  0  0  0  0  0  0  0
  -13.7296  -38.7484  -12.2962 S   0  0  0  0  0  0  0  0  0  0  0  0
  2  1  1  1
  2  3  1  0
  3  4  1  0
  4  5  1  0
  5  6  1  0
  6  7  1  0
  7  8  1  0
  8  9  1  0
  9 10  1  0
 10 11  1  0
 11 12  2  0
 11 13  1  0
 13 14  1  0
 13 15  1  0
 15 16  1  6
 15 17  1  0
 17 18  2  0
 17 19  1  0
 19 20  1  0
 20 21  1  1
 20 22  1  0
 22 23  1  1
 22 24  1  0
 24 25  1  0
 25 26  1  0
 26 27  1  0
 26 28  1  0
 26 29  1  0
 29 30  2  0
 30 31  1  0
 31 32  2  0
 32 33  1  0
 33 34  1  0
 34 35  1  0
 34 36  1  0
 34 37  1  0
 32 38  1  0
 21  2  1  0
 38 29  1  0
M  END
$$$$
