
     RDKit          3D

 38 39  0  0  0  0  0  0  0  0999 V2000
  -20.0929  -39.2436   -4.5598 C   0  0  0  0  0  0  0  0  0  0  0  0
  -19.3404  -38.9130   -5.8037 C   0  0  2  0  0  0  0  0  0  0  0  0
  -20.1881  -38.9127   -7.0173 C   0  0  0  0  0  0  0  0  0  0  0  0
  -21.5333  -39.5628   -6.8273 C   0  0  0  0  0  0  0  0  0  0  0  0
  -22.6849  -38.6088   -7.0941 C   0  0  0  0  0  0  0  0  0  0  0  0
  -23.5349  -39.2145   -8.2172 C   0  0  0  0  0  0  0  0  0  0  0  0
  -22.6986  -39.5506   -9.4296 C   0  0  0  0  0  0  0  0  0  0  0  0
  -22.9503  -40.9883   -9.7895 C   0  0  0  0  0  0  0  0  0  0  0  0
  -21.9487  -41.5644  -10.7422 C   0  0  0  0  0  0  0  0  0  0  0  0
  -20.6024  -41.8376  -10.1605 C   0  0  0  0  0  0  0  0  0  0  0  0
  -20.4620  -43.1626   -9.5403 C   0  0  0  0  0  0  0  0  0  0  0  0
  -20.5465  -44.1749  -10.3171 O   0  0  0  0  0  0  0  0  0  0  0  0
  -20.2438  -43.4404   -8.1778 N   0  0  0  0  0  0  0  0  0  0  0  0
  -20.9351  -44.5340   -7.5186 C   0  0  0  0  0  0  0  0  0  0  0  0
  -19.3257  -42.6699   -7.3223 C   0  0  1  0  0  0  0  0  0  0  0  0
  -18.6672  -43.7130   -6.4067 C   0  0  0  0  0  0  0  0  0  0  0  0
  -18.2317  -42.0748   -8.0921 C   0  0  0  0  0  0  0  0  0  0  0  0
  -17.5629  -42.9482   -8.7661 O   0  0  0  0  0  0  0  0  0  0  0  0
  -17.8196  -40.7515   -8.2019 N   0  0  0  0  0  0  0  0  0  0  0  0
  -17.4603  -39.7923   -7.2084 C   0  0  1  0  0  0  0  0  0  0  0  0
  -18.1449  -39.8753   -5.8940 C   0  0  0  0  0  0  0  0  0  0  0  0
  -15.9502  -39.6976   -7.0884 C   0  0  2  0  0  0  0  0  0  0  0  0
  -15.5722  -38.4097   -7.4272 O   0  0  0  0  0  0  0  0  0  0  0  0
  -15.2258  -40.7058   -7.9360 C   0  0  0  0  0  0  0  0  0  0  0  0
  -13.8043  -40.4433   -7.7953 N   0  0  0  0  0  0  0  0  0  0  0  0
  -13.1509  -40.5990   -9.0665 C   0  0  0  0  0  0  0  0  0  0  0  0
  -13.6662  -41.8322   -9.7916 C   0  0  0  0  0  0  0  0  0  0  0  0
  -11.6442  -40.7954   -8.9269 C   0  0  0  0  0  0  0  0  0  0  0  0
  -13.3345  -39.3679   -9.9047 C   0  0  0  0  0  0  0  0  0  0  0  0
  -13.6125  -38.1223   -9.5423 N   0  0  0  0  0  0  0  0  0  0  0  0
  -13.7270  -37.2194  -10.4170 N   0  0  0  0  0  0  0  0  0  0  0  0
  -13.5688  -37.5169  -11.7028 C   0  0  0  0  0  0  0  0  0  0  0  0
  -13.6594  -36.6096  -12.8993 C   0  0  0  0  0  0  0  0  0  0  0  0
  -14.9389  -35.7801  -12.8242 C   0  0  0  0  0  0  0  0  0  0  0  0
  -16.1448  -36.6824  -12.6706 C   0  0  0  0  0  0  0  0  0  0  0  0
  -14.8471  -34.9310  -11.5747 C   0  0  0  0  0  0  0  0  0  0  0  0
  -15.0781  -34.9085  -14.0557 C   0  0  0  0  0  0  0  0  0  0  0  0
  -13.2375  -39.2048  -11.6000 S   0  0  0  0  0  0  0  0  0  0  0  0
  2  1  1  1
  2  3  1  0
  3  4  1  0
  4  5  1  0
  5  6  1  0
  6  7  1  0
  7  8  1  0
  8  9  1  0
  9 10  1  0
 10 11  1  0
 11 12  2  0
 11 13  1  0
 13 14  1  0
 13 15  1  0
 15 16  1  1
 15 17  1  0
 17 18  2  0
 17 19  1  0
 19 20  1  0
 20 21  1  1
 20 22  1  0
 22 23  1  6
 22 24  1  0
 24 25  1  0
 25 26  1  0
 26 27  1  0
 26 28  1  0
 26 29  1  0
 29 30  2  0
 30 31  1  0
 31 32  2  0
 32 33  1  0
 33 34  1  0
 34 35  1  0
 34 36  1  0
 34 37  1  0
 32 38  1  0
 21  2  1  0
 38 29  1  0
M  END
$$$$
