
     RDKit          3D

 38 39  0  0  0  0  0  0  0  0999 V2000
  -12.3904  -40.1350  -10.9126 C   0  0  0  0  0  0  0  0  0  0  0  0
  -12.9776  -40.2723   -9.5491 C   0  0  2  0  0  0  0  0  0  0  0  0
  -12.8310  -41.6325   -8.9836 C   0  0  0  0  0  0  0  0  0  0  0  0
  -12.4388  -42.6788   -9.9934 C   0  0  0  0  0  0  0  0  0  0  0  0
  -11.1198  -43.3515   -9.6540 C   0  0  0  0  0  0  0  0  0  0  0  0
  -11.3910  -44.8540   -9.5136 C   0  0  0  0  0  0  0  0  0  0  0  0
  -12.5106  -45.1293   -8.5374 C   0  0  0  0  0  0  0  0  0  0  0  0
  -13.5263  -46.0010   -9.2217 C   0  0  0  0  0  0  0  0  0  0  0  0
  -14.8444  -46.0746   -8.5147 C   0  0  0  0  0  0  0  0  0  0  0  0
  -15.6845  -44.8454   -8.6065 C   0  0  0  0  0  0  0  0  0  0  0  0
  -16.5583  -44.7890   -9.7868 C   0  0  0  0  0  0  0  0  0  0  0  0
  -17.4877  -45.6646   -9.8587 O   0  0  0  0  0  0  0  0  0  0  0  0
  -16.4837  -43.8722  -10.8522 N   0  0  0  0  0  0  0  0  0  0  0  0
  -16.6722  -44.3058  -12.2251 C   0  0  0  0  0  0  0  0  0  0  0  0
  -16.2131  -42.4352  -10.6778 C   0  0  1  0  0  0  0  0  0  0  0  0
  -17.1035  -41.7352  -11.7157 C   0  0  0  0  0  0  0  0  0  0  0  0
  -16.6689  -41.9478   -9.3748 C   0  0  0  0  0  0  0  0  0  0  0  0
  -17.9205  -42.1798   -9.1649 O   0  0  0  0  0  0  0  0  0  0  0  0
  -15.9764  -41.2936   -8.3621 N   0  0  0  0  0  0  0  0  0  0  0  0
  -15.1869  -40.1049   -8.3779 C   0  0  1  0  0  0  0  0  0  0  0  0
  -14.4370  -39.7947   -9.6207 C   0  0  0  0  0  0  0  0  0  0  0  0
  -15.9945  -38.9286   -7.8602 C   0  0  2  0  0  0  0  0  0  0  0  0
  -15.2089  -38.2318   -6.9583 O   0  0  0  0  0  0  0  0  0  0  0  0
  -17.2957  -39.3376   -7.2285 C   0  0  0  0  0  0  0  0  0  0  0  0
  -18.1403  -38.1569   -7.1814 N   0  0  0  0  0  0  0  0  0  0  0  0
  -19.0185  -38.1390   -8.3196 C   0  0  0  0  0  0  0  0  0  0  0  0
  -18.2650  -38.5019   -9.5895 C   0  0  0  0  0  0  0  0  0  0  0  0
  -19.6194  -36.7591   -8.5701 C   0  0  0  0  0  0  0  0  0  0  0  0
  -20.1789  -39.0652   -8.1011 C   0  0  0  0  0  0  0  0  0  0  0  0
  -20.2065  -40.3867   -7.9881 N   0  0  0  0  0  0  0  0  0  0  0  0
  -21.3037  -40.9833   -7.8043 N   0  0  0  0  0  0  0  0  0  0  0  0
  -22.4328  -40.2865   -7.7239 C   0  0  0  0  0  0  0  0  0  0  0  0
  -23.8360  -40.7849   -7.5107 C   0  0  0  0  0  0  0  0  0  0  0  0
  -24.2440  -40.5759   -6.0545 C   0  0  0  0  0  0  0  0  0  0  0  0
  -25.6491  -41.0888   -5.8211 C   0  0  0  0  0  0  0  0  0  0  0  0
  -23.3104  -41.4114   -5.2055 C   0  0  0  0  0  0  0  0  0  0  0  0
  -24.1419  -39.1110   -5.6810 C   0  0  0  0  0  0  0  0  0  0  0  0
  -21.8329  -38.6843   -7.9302 S   0  0  0  0  0  0  0  0  0  0  0  0
  2  1  1  6
  2  3  1  0
  3  4  1  0
  4  5  1  0
  5  6  1  0
  6  7  1  0
  7  8  1  0
  8  9  1  0
  9 10  1  0
 10 11  1  0
 11 12  2  0
 11 13  1  0
 13 14  1  0
 13 15  1  0
 15 16  1  6
 15 17  1  0
 17 18  2  0
 17 19  1  0
 19 20  1  0
 20 21  1  6
 20 22  1  0
 22 23  1  1
 22 24  1  0
 24 25  1  0
 25 26  1  0
 26 27  1  0
 26 28  1  0
 26 29  1  0
 29 30  2  0
 30 31  1  0
 31 32  2  0
 32 33  1  0
 33 34  1  0
 34 35  1  0
 34 36  1  0
 34 37  1  0
 32 38  1  0
 21  2  1  0
 38 29  1  0
M  END
$$$$
