
     RDKit          3D

 38 39  0  0  0  0  0  0  0  0999 V2000
  -19.5668  -39.8254   -5.2535 C   0  0  0  0  0  0  0  0  0  0  0  0
  -18.8726  -39.0046   -6.2866 C   0  0  2  0  0  0  0  0  0  0  0  0
  -19.7089  -38.7348   -7.4780 C   0  0  0  0  0  0  0  0  0  0  0  0
  -20.9383  -39.5994   -7.5743 C   0  0  0  0  0  0  0  0  0  0  0  0
  -22.2226  -38.7882   -7.5805 C   0  0  0  0  0  0  0  0  0  0  0  0
  -22.9680  -39.1146   -8.8800 C   0  0  0  0  0  0  0  0  0  0  0  0
  -22.0885  -38.9152  -10.0921 C   0  0  0  0  0  0  0  0  0  0  0  0
  -22.1157  -40.1795  -10.9048 C   0  0  0  0  0  0  0  0  0  0  0  0
  -21.0362  -40.2647  -11.9393 C   0  0  0  0  0  0  0  0  0  0  0  0
  -19.6647  -40.5129  -11.4077 C   0  0  0  0  0  0  0  0  0  0  0  0
  -19.3229  -41.9321  -11.2370 C   0  0  0  0  0  0  0  0  0  0  0  0
  -19.2498  -42.6396  -12.2998 O   0  0  0  0  0  0  0  0  0  0  0  0
  -19.0662  -42.6010  -10.0255 N   0  0  0  0  0  0  0  0  0  0  0  0
  -19.5819  -43.9370   -9.7863 C   0  0  0  0  0  0  0  0  0  0  0  0
  -18.2785  -42.0240   -8.9231 C   0  0  1  0  0  0  0  0  0  0  0  0
  -17.4686  -43.2001   -8.3565 C   0  0  0  0  0  0  0  0  0  0  0  0
  -17.2882  -41.0598   -9.4057 C   0  0  0  0  0  0  0  0  0  0  0  0
  -16.4922  -41.5613  -10.2885 O   0  0  0  0  0  0  0  0  0  0  0  0
  -17.0843  -39.7271   -9.0659 N   0  0  0  0  0  0  0  0  0  0  0  0
  -16.8781  -39.0995   -7.8010 C   0  0  1  0  0  0  0  0  0  0  0  0
  -17.5433  -39.7017   -6.6187 C   0  0  0  0  0  0  0  0  0  0  0  0
  -15.4006  -38.8306   -7.5804 C   0  0  2  0  0  0  0  0  0  0  0  0
  -15.2809  -37.8900   -6.5718 O   0  0  0  0  0  0  0  0  0  0  0  0
  -14.6915  -38.3716   -8.8239 C   0  0  0  0  0  0  0  0  0  0  0  0
  -14.8415  -39.4213   -9.8163 N   0  0  0  0  0  0  0  0  0  0  0  0
  -13.6565  -39.5003  -10.6265 C   0  0  0  0  0  0  0  0  0  0  0  0
  -12.6391  -38.4540  -10.1996 C   0  0  0  0  0  0  0  0  0  0  0  0
  -13.9399  -39.2302  -12.1012 C   0  0  0  0  0  0  0  0  0  0  0  0
  -13.0677  -40.8790  -10.5613 C   0  0  0  0  0  0  0  0  0  0  0  0
  -11.7996  -41.2677  -10.5891 N   0  0  0  0  0  0  0  0  0  0  0  0
  -11.5122  -42.4950  -10.5208 N   0  0  0  0  0  0  0  0  0  0  0  0
  -12.4815  -43.3991  -10.4209 C   0  0  0  0  0  0  0  0  0  0  0  0
  -12.3692  -44.8963  -10.3275 C   0  0  0  0  0  0  0  0  0  0  0  0
  -13.7587  -45.5114  -10.1796 C   0  0  0  0  0  0  0  0  0  0  0  0
  -14.7272  -44.4968   -9.6102 C   0  0  0  0  0  0  0  0  0  0  0  0
  -14.2399  -45.8655  -11.5701 C   0  0  0  0  0  0  0  0  0  0  0  0
  -13.7011  -46.7450   -9.3018 C   0  0  0  0  0  0  0  0  0  0  0  0
  -13.8701  -42.3787  -10.4294 S   0  0  0  0  0  0  0  0  0  0  0  0
  2  1  1  1
  2  3  1  0
  3  4  1  0
  4  5  1  0
  5  6  1  0
  6  7  1  0
  7  8  1  0
  8  9  1  0
  9 10  1  0
 10 11  1  0
 11 12  2  0
 11 13  1  0
 13 14  1  0
 13 15  1  0
 15 16  1  6
 15 17  1  0
 17 18  2  0
 17 19  1  0
 19 20  1  0
 20 21  1  1
 20 22  1  0
 22 23  1  1
 22 24  1  0
 24 25  1  0
 25 26  1  0
 26 27  1  0
 26 28  1  0
 26 29  1  0
 29 30  2  0
 30 31  1  0
 31 32  2  0
 32 33  1  0
 33 34  1  0
 34 35  1  0
 34 36  1  0
 34 37  1  0
 32 38  1  0
 21  2  1  0
 38 29  1  0
M  END
$$$$
