
     RDKit          3D

 36 39  0  0  0  0  0  0  0  0999 V2000
  -21.8861  -37.5846   -3.9108 C   0  0  0  0  0  0  0  0  0  0  0  0
  -22.8458  -38.7358   -4.1190 C   0  0  0  0  0  0  0  0  0  0  0  0
  -23.9493  -38.2385   -5.0311 C   0  0  0  0  0  0  0  0  0  0  0  0
  -22.2004  -39.9133   -4.7124 C   0  0  0  0  0  0  0  0  0  0  0  0
  -22.9582  -40.8998   -5.3021 C   0  0  0  0  0  0  0  0  0  0  0  0
  -22.3310  -42.0038   -5.8573 C   0  0  0  0  0  0  0  0  0  0  0  0
  -20.9372  -42.0995   -5.8102 C   0  0  0  0  0  0  0  0  0  0  0  0
  -20.1720  -41.1233   -5.2255 C   0  0  0  0  0  0  0  0  0  0  0  0
  -18.7004  -41.1928   -5.1584 C   0  0  0  0  0  0  0  0  0  0  0  0
  -18.0292  -39.9702   -5.5355 N   0  0  0  0  0  0  0  0  0  0  0  0
  -18.8324  -39.2840   -6.5024 C   0  0  0  0  0  0  0  0  0  0  0  0
  -18.4654  -39.7231   -7.9404 C   0  0  1  0  0  0  0  0  0  0  0  0
  -19.0391  -38.8184   -8.7907 O   0  0  0  0  0  0  0  0  0  0  0  0
  -16.9535  -39.6644   -7.9740 C   0  0  2  0  0  0  0  0  0  0  0  0
  -16.3400  -39.5101   -9.3228 C   0  0  0  0  0  0  0  0  0  0  0  0
  -17.2248  -39.1236  -10.4682 C   0  0  0  0  0  0  0  0  0  0  0  0
  -16.7817  -37.8976  -11.0333 C   0  0  0  0  0  0  0  0  0  0  0  0
  -17.3498  -37.3270  -12.1372 C   0  0  0  0  0  0  0  0  0  0  0  0
  -18.3981  -38.0294  -12.6776 C   0  0  0  0  0  0  0  0  0  0  0  0
  -18.8792  -39.2507  -12.1565 C   0  0  0  0  0  0  0  0  0  0  0  0
  -19.9866  -39.7644  -12.9906 C   0  0  0  0  0  0  0  0  0  0  0  0
  -19.6984  -41.0611  -13.7317 C   0  0  0  0  0  0  0  0  0  0  0  0
  -19.8960  -42.2806  -12.8472 C   0  0  0  0  0  0  0  0  0  0  0  0
  -18.6271  -43.0507  -12.8062 C   0  0  0  0  0  0  0  0  0  0  0  0
  -18.4611  -43.9075  -11.6951 O   0  0  0  0  0  0  0  0  0  0  0  0
  -18.3541  -43.6846  -10.3333 C   0  0  0  0  0  0  0  0  0  0  0  0
  -19.3787  -44.3618   -9.6384 C   0  0  0  0  0  0  0  0  0  0  0  0
  -19.5170  -44.3128   -8.3183 N   0  0  0  0  0  0  0  0  0  0  0  0
  -18.6286  -43.5794   -7.6532 C   0  0  0  0  0  0  0  0  0  0  0  0
  -17.5653  -42.8656   -8.2749 C   0  0  0  0  0  0  0  0  0  0  0  0
  -17.4257  -42.9247   -9.6393 C   0  0  0  0  0  0  0  0  0  0  0  0
  -16.8254  -42.1142   -7.2449 C   0  0  0  0  0  0  0  0  0  0  0  0
  -16.5462  -42.7872   -6.1630 O   0  0  0  0  0  0  0  0  0  0  0  0
  -16.3639  -40.7723   -7.2270 N   0  0  0  0  0  0  0  0  0  0  0  0
  -18.2811  -39.8022  -11.0307 C   0  0  0  0  0  0  0  0  0  0  0  0
  -20.8113  -40.0353   -4.6799 C   0  0  0  0  0  0  0  0  0  0  0  0
  1  2  1  0
  2  3  1  0
  2  4  1  0
  4  5  2  0
  5  6  1  0
  6  7  2  0
  7  8  1  0
  8  9  1  0
  9 10  1  0
 10 11  1  0
 11 12  1  0
 12 13  1  6
 12 14  1  0
 14 15  1  6
 15 16  1  0
 16 17  1  0
 17 18  2  0
 18 19  1  0
 19 20  2  0
 20 21  1  0
 21 22  1  0
 22 23  1  0
 23 24  1  0
 24 25  1  0
 25 26  1  0
 26 27  1  0
 27 28  2  0
 28 29  1  0
 29 30  2  0
 30 31  1  0
 30 32  1  0
 32 33  2  0
 32 34  1  0
 20 35  1  0
  8 36  2  0
 31 26  2  0
 34 14  1  0
 35 16  2  0
 36  4  1  0
M  END
$$$$
