
     RDKit          3D

 36 39  0  0  0  0  0  0  0  0999 V2000
  -11.7694  -35.2759  -11.0413 C   0  0  0  0  0  0  0  0  0  0  0  0
  -12.9139  -35.4670  -12.0125 C   0  0  0  0  0  0  0  0  0  0  0  0
  -12.3955  -36.3220  -13.1516 C   0  0  0  0  0  0  0  0  0  0  0  0
  -14.0806  -36.1105  -11.3963 C   0  0  0  0  0  0  0  0  0  0  0  0
  -15.1589  -35.3566  -10.9913 C   0  0  0  0  0  0  0  0  0  0  0  0
  -16.2514  -35.9820  -10.4118 C   0  0  0  0  0  0  0  0  0  0  0  0
  -16.2422  -37.3701  -10.2470 C   0  0  0  0  0  0  0  0  0  0  0  0
  -15.1740  -38.1315  -10.6464 C   0  0  0  0  0  0  0  0  0  0  0  0
  -15.1316  -39.5970  -10.4873 C   0  0  0  0  0  0  0  0  0  0  0  0
  -15.7739  -40.0841   -9.2883 N   0  0  0  0  0  0  0  0  0  0  0  0
  -16.4623  -38.9963   -8.6610 C   0  0  0  0  0  0  0  0  0  0  0  0
  -17.9378  -39.3650   -8.3744 C   0  0  1  0  0  0  0  0  0  0  0  0
  -18.4024  -38.4618   -7.4585 O   0  0  0  0  0  0  0  0  0  0  0  0
  -18.6242  -39.2274   -9.7162 C   0  0  2  0  0  0  0  0  0  0  0  0
  -20.1046  -39.0660   -9.6741 C   0  0  0  0  0  0  0  0  0  0  0  0
  -20.7498  -38.7477   -8.3601 C   0  0  0  0  0  0  0  0  0  0  0  0
  -21.4435  -37.5107   -8.4455 C   0  0  0  0  0  0  0  0  0  0  0  0
  -22.1877  -36.9912   -7.4240 C   0  0  0  0  0  0  0  0  0  0  0  0
  -22.2237  -37.7577   -6.2858 C   0  0  0  0  0  0  0  0  0  0  0  0
  -21.5531  -38.9928   -6.1469 C   0  0  0  0  0  0  0  0  0  0  0  0
  -21.8269  -39.5793   -4.8177 C   0  0  0  0  0  0  0  0  0  0  0  0
  -22.6277  -40.8725   -4.8272 C   0  0  0  0  0  0  0  0  0  0  0  0
  -21.7528  -42.0842   -5.1008 C   0  0  0  0  0  0  0  0  0  0  0  0
  -22.2717  -42.7855   -6.3023 C   0  0  0  0  0  0  0  0  0  0  0  0
  -21.3483  -43.6119   -6.9812 O   0  0  0  0  0  0  0  0  0  0  0  0
  -20.1666  -43.3586   -7.6559 C   0  0  0  0  0  0  0  0  0  0  0  0
  -19.1000  -44.0759   -7.0735 C   0  0  0  0  0  0  0  0  0  0  0  0
  -17.8505  -44.0099   -7.5191 N   0  0  0  0  0  0  0  0  0  0  0  0
  -17.6325  -43.2187   -8.5659 C   0  0  0  0  0  0  0  0  0  0  0  0
  -18.6498  -42.4614   -9.2128 C   0  0  0  0  0  0  0  0  0  0  0  0
  -19.9397  -42.5382   -8.7497 C   0  0  0  0  0  0  0  0  0  0  0  0
  -18.0384  -41.6533  -10.2834 C   0  0  0  0  0  0  0  0  0  0  0  0
  -17.1893  -42.2906  -11.0412 O   0  0  0  0  0  0  0  0  0  0  0  0
  -18.2142  -40.2888  -10.6319 N   0  0  0  0  0  0  0  0  0  0  0  0
  -20.8022  -39.4913   -7.2038 C   0  0  0  0  0  0  0  0  0  0  0  0
  -14.0990  -37.4940  -11.2193 C   0  0  0  0  0  0  0  0  0  0  0  0
  1  2  1  0
  2  3  1  0
  2  4  1  0
  4  5  2  0
  5  6  1  0
  6  7  2  0
  7  8  1  0
  8  9  1  0
  9 10  1  0
 10 11  1  0
 11 12  1  0
 12 13  1  1
 12 14  1  0
 14 15  1  1
 15 16  1  0
 16 17  1  0
 17 18  2  0
 18 19  1  0
 19 20  2  0
 20 21  1  0
 21 22  1  0
 22 23  1  0
 23 24  1  0
 24 25  1  0
 25 26  1  0
 26 27  1  0
 27 28  2  0
 28 29  1  0
 29 30  2  0
 30 31  1  0
 30 32  1  0
 32 33  2  0
 32 34  1  0
 20 35  1  0
  8 36  2  0
 31 26  2  0
 34 14  1  0
 35 16  2  0
 36  4  1  0
M  END
$$$$
