
     RDKit          3D

 36 39  0  0  0  0  0  0  0  0999 V2000
  -20.1708  -43.0718   -2.5920 C   0  0  0  0  0  0  0  0  0  0  0  0
  -21.4657  -42.4863   -3.1115 C   0  0  0  0  0  0  0  0  0  0  0  0
  -21.9925  -41.5487   -2.0436 C   0  0  0  0  0  0  0  0  0  0  0  0
  -21.2937  -41.7581   -4.3745 C   0  0  0  0  0  0  0  0  0  0  0  0
  -22.3658  -41.1318   -4.9689 C   0  0  0  0  0  0  0  0  0  0  0  0
  -22.1838  -40.4488   -6.1610 C   0  0  0  0  0  0  0  0  0  0  0  0
  -20.9134  -40.4061   -6.7425 C   0  0  0  0  0  0  0  0  0  0  0  0
  -19.8380  -41.0261   -6.1597 C   0  0  0  0  0  0  0  0  0  0  0  0
  -18.4851  -41.0008   -6.7461 C   0  0  0  0  0  0  0  0  0  0  0  0
  -17.4896  -40.3598   -5.9181 N   0  0  0  0  0  0  0  0  0  0  0  0
  -17.3621  -38.9933   -6.3268 C   0  0  0  0  0  0  0  0  0  0  0  0
  -17.4840  -38.8604   -7.8640 C   0  0  1  0  0  0  0  0  0  0  0  0
  -16.9883  -37.6300   -8.1969 O   0  0  0  0  0  0  0  0  0  0  0  0
  -16.6322  -39.9885   -8.4046 C   0  0  2  0  0  0  0  0  0  0  0  0
  -16.1519  -39.8249   -9.8053 C   0  0  0  0  0  0  0  0  0  0  0  0
  -16.2725  -38.4767  -10.4473 C   0  0  0  0  0  0  0  0  0  0  0  0
  -14.9881  -38.0005  -10.8245 C   0  0  0  0  0  0  0  0  0  0  0  0
  -14.7857  -36.8274  -11.4951 C   0  0  0  0  0  0  0  0  0  0  0  0
  -15.9271  -36.1234  -11.7881 C   0  0  0  0  0  0  0  0  0  0  0  0
  -17.2269  -36.5494  -11.4366 C   0  0  0  0  0  0  0  0  0  0  0  0
  -18.2343  -35.5870  -11.9312 C   0  0  0  0  0  0  0  0  0  0  0  0
  -19.1674  -36.1155  -13.0100 C   0  0  0  0  0  0  0  0  0  0  0  0
  -20.3220  -36.9123  -12.4263 C   0  0  0  0  0  0  0  0  0  0  0  0
  -20.3030  -38.2772  -13.0107 C   0  0  0  0  0  0  0  0  0  0  0  0
  -20.9614  -39.2782  -12.2618 O   0  0  0  0  0  0  0  0  0  0  0  0
  -20.7403  -39.8257  -11.0099 C   0  0  0  0  0  0  0  0  0  0  0  0
  -21.8700  -39.6456  -10.1838 C   0  0  0  0  0  0  0  0  0  0  0  0
  -21.9256  -40.0682   -8.9259 N   0  0  0  0  0  0  0  0  0  0  0  0
  -20.8449  -40.6861   -8.4569 C   0  0  0  0  0  0  0  0  0  0  0  0
  -19.6649  -40.9094   -9.2214 C   0  0  0  0  0  0  0  0  0  0  0  0
  -19.6164  -40.4739  -10.5223 C   0  0  0  0  0  0  0  0  0  0  0  0
  -18.6543  -41.5566   -8.3654 C   0  0  0  0  0  0  0  0  0  0  0  0
  -19.0963  -42.5457   -7.6388 O   0  0  0  0  0  0  0  0  0  0  0  0
  -17.2724  -41.2839   -8.1923 N   0  0  0  0  0  0  0  0  0  0  0  0
  -17.3977  -37.7460  -10.7521 C   0  0  0  0  0  0  0  0  0  0  0  0
  -20.0373  -41.6987   -4.9774 C   0  0  0  0  0  0  0  0  0  0  0  0
  1  2  1  0
  2  3  1  0
  2  4  1  0
  4  5  2  0
  5  6  1  0
  6  7  2  0
  7  8  1  0
  8  9  1  0
  9 10  1  0
 10 11  1  0
 11 12  1  0
 12 13  1  6
 12 14  1  0
 14 15  1  6
 15 16  1  0
 16 17  1  0
 17 18  2  0
 18 19  1  0
 19 20  2  0
 20 21  1  0
 21 22  1  0
 22 23  1  0
 23 24  1  0
 24 25  1  0
 25 26  1  0
 26 27  1  0
 27 28  2  0
 28 29  1  0
 29 30  2  0
 30 31  1  0
 30 32  1  0
 32 33  2  0
 32 34  1  0
 20 35  1  0
  8 36  2  0
 31 26  2  0
 34 14  1  0
 35 16  2  0
 36  4  1  0
M  END
$$$$
