
     RDKit          3D

 36 39  0  0  0  0  0  0  0  0999 V2000
  -13.2218  -35.4089  -11.9997 C   0  0  0  0  0  0  0  0  0  0  0  0
  -12.5804  -36.7033  -11.5497 C   0  0  0  0  0  0  0  0  0  0  0  0
  -11.9806  -36.4528  -10.1806 C   0  0  0  0  0  0  0  0  0  0  0  0
  -13.5351  -37.8164  -11.4804 C   0  0  0  0  0  0  0  0  0  0  0  0
  -13.2504  -39.0172  -12.0904 C   0  0  0  0  0  0  0  0  0  0  0  0
  -14.1639  -40.0565  -12.0138 C   0  0  0  0  0  0  0  0  0  0  0  0
  -15.3616  -39.8700  -11.3178 C   0  0  0  0  0  0  0  0  0  0  0  0
  -15.6562  -38.6785  -10.7061 C   0  0  0  0  0  0  0  0  0  0  0  0
  -16.9098  -38.4481   -9.9643 C   0  0  0  0  0  0  0  0  0  0  0  0
  -16.7477  -37.6966   -8.7410 N   0  0  0  0  0  0  0  0  0  0  0  0
  -17.0666  -38.5465   -7.6335 C   0  0  0  0  0  0  0  0  0  0  0  0
  -18.1058  -39.6193   -8.0387 C   0  0  1  0  0  0  0  0  0  0  0  0
  -19.1517  -39.5096   -7.1643 O   0  0  0  0  0  0  0  0  0  0  0  0
  -18.4968  -39.2449   -9.4520 C   0  0  2  0  0  0  0  0  0  0  0  0
  -19.9533  -39.0408   -9.6897 C   0  0  0  0  0  0  0  0  0  0  0  0
  -20.8584  -38.9147   -8.5026 C   0  0  0  0  0  0  0  0  0  0  0  0
  -21.5182  -37.6566   -8.5251 C   0  0  0  0  0  0  0  0  0  0  0  0
  -22.4589  -37.2818   -7.6077 C   0  0  0  0  0  0  0  0  0  0  0  0
  -22.7322  -38.2189   -6.6425 C   0  0  0  0  0  0  0  0  0  0  0  0
  -22.1061  -39.4829   -6.5728 C   0  0  0  0  0  0  0  0  0  0  0  0
  -22.6517  -40.2647   -5.4429 C   0  0  0  0  0  0  0  0  0  0  0  0
  -23.4338  -41.5110   -5.8287 C   0  0  0  0  0  0  0  0  0  0  0  0
  -22.5218  -42.6931   -6.1111 C   0  0  0  0  0  0  0  0  0  0  0  0
  -22.7789  -43.1745   -7.4920 C   0  0  0  0  0  0  0  0  0  0  0  0
  -21.7346  -43.9131   -8.0923 O   0  0  0  0  0  0  0  0  0  0  0  0
  -20.4379  -43.5964   -8.4586 C   0  0  0  0  0  0  0  0  0  0  0  0
  -19.5169  -44.4343   -7.7947 C   0  0  0  0  0  0  0  0  0  0  0  0
  -18.2019  -44.3414   -7.9566 N   0  0  0  0  0  0  0  0  0  0  0  0
  -17.7696  -43.4009   -8.7921 C   0  0  0  0  0  0  0  0  0  0  0  0
  -18.6290  -42.5149   -9.5014 C   0  0  0  0  0  0  0  0  0  0  0  0
  -19.9872  -42.6198   -9.3327 C   0  0  0  0  0  0  0  0  0  0  0  0
  -17.8071  -41.5675  -10.2761 C   0  0  0  0  0  0  0  0  0  0  0  0
  -16.8189  -42.1045  -10.9369 O   0  0  0  0  0  0  0  0  0  0  0  0
  -17.9054  -40.1596  -10.4249 N   0  0  0  0  0  0  0  0  0  0  0  0
  -21.1515  -39.8315   -7.5196 C   0  0  0  0  0  0  0  0  0  0  0  0
  -14.7383  -37.6588  -10.7925 C   0  0  0  0  0  0  0  0  0  0  0  0
  1  2  1  0
  2  3  1  0
  2  4  1  0
  4  5  2  0
  5  6  1  0
  6  7  2  0
  7  8  1  0
  8  9  1  0
  9 10  1  0
 10 11  1  0
 11 12  1  0
 12 13  1  1
 12 14  1  0
 14 15  1  1
 15 16  1  0
 16 17  1  0
 17 18  2  0
 18 19  1  0
 19 20  2  0
 20 21  1  0
 21 22  1  0
 22 23  1  0
 23 24  1  0
 24 25  1  0
 25 26  1  0
 26 27  1  0
 27 28  2  0
 28 29  1  0
 29 30  2  0
 30 31  1  0
 30 32  1  0
 32 33  2  0
 32 34  1  0
 20 35  1  0
  8 36  2  0
 31 26  2  0
 34 14  1  0
 35 16  2  0
 36  4  1  0
M  END
$$$$
