
     RDKit          3D

 36 39  0  0  0  0  0  0  0  0999 V2000
  -11.4911  -34.7456  -10.8221 C   0  0  0  0  0  0  0  0  0  0  0  0
  -11.2141  -36.1773  -11.2256 C   0  0  0  0  0  0  0  0  0  0  0  0
  -10.4920  -36.8364  -10.0674 C   0  0  0  0  0  0  0  0  0  0  0  0
  -12.4370  -36.9253  -11.5420 C   0  0  0  0  0  0  0  0  0  0  0  0
  -12.5847  -37.5317  -12.7690 C   0  0  0  0  0  0  0  0  0  0  0  0
  -13.7462  -38.2337  -13.0493 C   0  0  0  0  0  0  0  0  0  0  0  0
  -14.7513  -38.3157  -12.0812 C   0  0  0  0  0  0  0  0  0  0  0  0
  -14.6155  -37.7157  -10.8556 C   0  0  0  0  0  0  0  0  0  0  0  0
  -15.6557  -37.7823   -9.8123 C   0  0  0  0  0  0  0  0  0  0  0  0
  -16.2766  -39.0794   -9.6731 N   0  0  0  0  0  0  0  0  0  0  0  0
  -16.5083  -39.3315   -8.2826 C   0  0  0  0  0  0  0  0  0  0  0  0
  -18.0002  -39.6459   -8.0169 C   0  0  1  0  0  0  0  0  0  0  0  0
  -18.4436  -38.7274   -7.1057 O   0  0  0  0  0  0  0  0  0  0  0  0
  -18.6625  -39.4811   -9.3677 C   0  0  2  0  0  0  0  0  0  0  0  0
  -20.1407  -39.2971   -9.3473 C   0  0  0  0  0  0  0  0  0  0  0  0
  -20.8022  -38.9850   -8.0399 C   0  0  0  0  0  0  0  0  0  0  0  0
  -21.4753  -37.7364   -8.1207 C   0  0  0  0  0  0  0  0  0  0  0  0
  -22.2278  -37.2181   -7.1049 C   0  0  0  0  0  0  0  0  0  0  0  0
  -22.2941  -37.9978   -5.9771 C   0  0  0  0  0  0  0  0  0  0  0  0
  -21.6449  -39.2449   -5.8430 C   0  0  0  0  0  0  0  0  0  0  0  0
  -21.9491  -39.8434   -4.5259 C   0  0  0  0  0  0  0  0  0  0  0  0
  -22.7695  -41.1237   -4.5644 C   0  0  0  0  0  0  0  0  0  0  0  0
  -21.9090  -42.3455   -4.8392 C   0  0  0  0  0  0  0  0  0  0  0  0
  -22.4191  -43.0237   -6.0576 C   0  0  0  0  0  0  0  0  0  0  0  0
  -21.4976  -43.8559   -6.7320 O   0  0  0  0  0  0  0  0  0  0  0  0
  -20.3014  -43.6128   -7.3845 C   0  0  0  0  0  0  0  0  0  0  0  0
  -19.2555  -44.3538   -6.7941 C   0  0  0  0  0  0  0  0  0  0  0  0
  -17.9981  -44.3018   -7.2188 N   0  0  0  0  0  0  0  0  0  0  0  0
  -17.7510  -43.5012   -8.2520 C   0  0  0  0  0  0  0  0  0  0  0  0
  -18.7460  -42.7202   -8.9055 C   0  0  0  0  0  0  0  0  0  0  0  0
  -20.0443  -42.7826   -8.4641 C   0  0  0  0  0  0  0  0  0  0  0  0
  -18.1050  -41.9086   -9.9559 C   0  0  0  0  0  0  0  0  0  0  0  0
  -17.2536  -42.5496  -10.7080 O   0  0  0  0  0  0  0  0  0  0  0  0
  -18.2541  -40.5373  -10.2900 N   0  0  0  0  0  0  0  0  0  0  0  0
  -20.8847  -39.7419   -6.8940 C   0  0  0  0  0  0  0  0  0  0  0  0
  -13.4566  -37.0236  -10.5952 C   0  0  0  0  0  0  0  0  0  0  0  0
  1  2  1  0
  2  3  1  0
  2  4  1  0
  4  5  2  0
  5  6  1  0
  6  7  2  0
  7  8  1  0
  8  9  1  0
  9 10  1  0
 10 11  1  0
 11 12  1  0
 12 13  1  1
 12 14  1  0
 14 15  1  1
 15 16  1  0
 16 17  1  0
 17 18  2  0
 18 19  1  0
 19 20  2  0
 20 21  1  0
 21 22  1  0
 22 23  1  0
 23 24  1  0
 24 25  1  0
 25 26  1  0
 26 27  1  0
 27 28  2  0
 28 29  1  0
 29 30  2  0
 30 31  1  0
 30 32  1  0
 32 33  2  0
 32 34  1  0
 20 35  1  0
  8 36  2  0
 31 26  2  0
 34 14  1  0
 35 16  2  0
 36  4  1  0
M  END
$$$$
