
     RDKit          3D

 36 39  0  0  0  0  0  0  0  0999 V2000
  -12.2059  -35.5675  -11.7609 C   0  0  0  0  0  0  0  0  0  0  0  0
  -13.6901  -35.6903  -12.0289 C   0  0  0  0  0  0  0  0  0  0  0  0
  -13.8728  -35.7072  -13.5334 C   0  0  0  0  0  0  0  0  0  0  0  0
  -14.2752  -36.9016  -11.4413 C   0  0  0  0  0  0  0  0  0  0  0  0
  -15.1256  -37.6931  -12.1799 C   0  0  0  0  0  0  0  0  0  0  0  0
  -15.6680  -38.8331  -11.6081 C   0  0  0  0  0  0  0  0  0  0  0  0
  -15.3434  -39.1624  -10.2890 C   0  0  0  0  0  0  0  0  0  0  0  0
  -14.4976  -38.3818   -9.5435 C   0  0  0  0  0  0  0  0  0  0  0  0
  -14.1345  -38.6999   -8.1501 C   0  0  0  0  0  0  0  0  0  0  0  0
  -14.9393  -39.7376   -7.5476 N   0  0  0  0  0  0  0  0  0  0  0  0
  -16.1521  -39.1537   -7.0589 C   0  0  0  0  0  0  0  0  0  0  0  0
  -17.3768  -40.0216   -7.4357 C   0  0  1  0  0  0  0  0  0  0  0  0
  -18.4015  -39.6409   -6.6138 O   0  0  0  0  0  0  0  0  0  0  0  0
  -17.6452  -39.6789   -8.8852 C   0  0  2  0  0  0  0  0  0  0  0  0
  -19.0415  -39.2716   -9.2077 C   0  0  0  0  0  0  0  0  0  0  0  0
  -19.9659  -38.9382   -8.0770 C   0  0  0  0  0  0  0  0  0  0  0  0
  -20.4225  -37.5984   -8.2005 C   0  0  0  0  0  0  0  0  0  0  0  0
  -21.3323  -37.0306   -7.3539 C   0  0  0  0  0  0  0  0  0  0  0  0
  -21.7873  -37.8551   -6.3552 C   0  0  0  0  0  0  0  0  0  0  0  0
  -21.3669  -39.1928   -6.1859 C   0  0  0  0  0  0  0  0  0  0  0  0
  -22.0739  -39.8129   -5.0452 C   0  0  0  0  0  0  0  0  0  0  0  0
  -23.0214  -40.9477   -5.4032 C   0  0  0  0  0  0  0  0  0  0  0  0
  -22.2912  -42.2690   -5.5749 C   0  0  0  0  0  0  0  0  0  0  0  0
  -22.5605  -42.7890   -6.9394 C   0  0  0  0  0  0  0  0  0  0  0  0
  -21.6179  -43.7122   -7.4450 O   0  0  0  0  0  0  0  0  0  0  0  0
  -20.2736  -43.6181   -7.7608 C   0  0  0  0  0  0  0  0  0  0  0  0
  -19.5215  -44.5439   -7.0067 C   0  0  0  0  0  0  0  0  0  0  0  0
  -18.2023  -44.6610   -7.1058 N   0  0  0  0  0  0  0  0  0  0  0  0
  -17.5953  -43.8492   -7.9672 C   0  0  0  0  0  0  0  0  0  0  0  0
  -18.2771  -42.8881   -8.7661 C   0  0  0  0  0  0  0  0  0  0  0  0
  -19.6412  -42.7759   -8.6618 C   0  0  0  0  0  0  0  0  0  0  0  0
  -17.2871  -42.1249   -9.5473 C   0  0  0  0  0  0  0  0  0  0  0  0
  -16.3662  -42.8443  -10.1269 O   0  0  0  0  0  0  0  0  0  0  0  0
  -17.1610  -40.7300   -9.7762 N   0  0  0  0  0  0  0  0  0  0  0  0
  -20.4380  -39.7387   -7.0626 C   0  0  0  0  0  0  0  0  0  0  0  0
  -13.9690  -37.2548  -10.1271 C   0  0  0  0  0  0  0  0  0  0  0  0
  1  2  1  0
  2  3  1  0
  2  4  1  0
  4  5  2  0
  5  6  1  0
  6  7  2  0
  7  8  1  0
  8  9  1  0
  9 10  1  0
 10 11  1  0
 11 12  1  0
 12 13  1  1
 12 14  1  0
 14 15  1  1
 15 16  1  0
 16 17  1  0
 17 18  2  0
 18 19  1  0
 19 20  2  0
 20 21  1  0
 21 22  1  0
 22 23  1  0
 23 24  1  0
 24 25  1  0
 25 26  1  0
 26 27  1  0
 27 28  2  0
 28 29  1  0
 29 30  2  0
 30 31  1  0
 30 32  1  0
 32 33  2  0
 32 34  1  0
 20 35  1  0
  8 36  2  0
 31 26  2  0
 34 14  1  0
 35 16  2  0
 36  4  1  0
M  END
$$$$
