
     RDKit          3D

 36 39  0  0  0  0  0  0  0  0999 V2000
  -12.3905  -36.3257  -10.4095 C   0  0  0  0  0  0  0  0  0  0  0  0
  -13.2482  -36.2252  -11.6520 C   0  0  0  0  0  0  0  0  0  0  0  0
  -12.5693  -37.0445  -12.7313 C   0  0  0  0  0  0  0  0  0  0  0  0
  -14.6158  -36.7149  -11.4395 C   0  0  0  0  0  0  0  0  0  0  0  0
  -15.6948  -35.8957  -11.6838 C   0  0  0  0  0  0  0  0  0  0  0  0
  -16.9783  -36.3759  -11.4777 C   0  0  0  0  0  0  0  0  0  0  0  0
  -17.1584  -37.6858  -11.0244 C   0  0  0  0  0  0  0  0  0  0  0  0
  -16.0914  -38.5111  -10.7776 C   0  0  0  0  0  0  0  0  0  0  0  0
  -16.2458  -39.8974  -10.2989 C   0  0  0  0  0  0  0  0  0  0  0  0
  -15.7566  -40.1218   -8.9581 N   0  0  0  0  0  0  0  0  0  0  0  0
  -16.5579  -39.3651   -8.0436 C   0  0  0  0  0  0  0  0  0  0  0  0
  -17.9944  -39.9352   -7.9618 C   0  0  1  0  0  0  0  0  0  0  0  0
  -18.7849  -38.9475   -7.4422 O   0  0  0  0  0  0  0  0  0  0  0  0
  -18.3492  -40.2598   -9.3969 C   0  0  2  0  0  0  0  0  0  0  0  0
  -19.7810  -40.0811   -9.7674 C   0  0  0  0  0  0  0  0  0  0  0  0
  -20.6714  -39.3264   -8.8284 C   0  0  0  0  0  0  0  0  0  0  0  0
  -21.2144  -38.1876   -9.4820 C   0  0  0  0  0  0  0  0  0  0  0  0
  -22.1175  -37.3433   -8.9003 C   0  0  0  0  0  0  0  0  0  0  0  0
  -22.4752  -37.6731   -7.6166 C   0  0  0  0  0  0  0  0  0  0  0  0
  -21.9664  -38.7916   -6.9203 C   0  0  0  0  0  0  0  0  0  0  0  0
  -22.5812  -38.8848   -5.5791 C   0  0  0  0  0  0  0  0  0  0  0  0
  -23.4730  -40.0961   -5.3525 C   0  0  0  0  0  0  0  0  0  0  0  0
  -22.6719  -41.3356   -4.9914 C   0  0  0  0  0  0  0  0  0  0  0  0
  -22.9710  -42.4017   -5.9807 C   0  0  0  0  0  0  0  0  0  0  0  0
  -21.9979  -43.4184   -6.1052 O   0  0  0  0  0  0  0  0  0  0  0  0
  -20.6776  -43.4218   -6.5209 C   0  0  0  0  0  0  0  0  0  0  0  0
  -19.8367  -43.9052   -5.4960 C   0  0  0  0  0  0  0  0  0  0  0  0
  -18.5186  -44.0065   -5.6243 N   0  0  0  0  0  0  0  0  0  0  0  0
  -18.0024  -43.6238   -6.7891 C   0  0  0  0  0  0  0  0  0  0  0  0
  -18.7775  -43.1253   -7.8742 C   0  0  0  0  0  0  0  0  0  0  0  0
  -20.1398  -43.0277   -7.7360 C   0  0  0  0  0  0  0  0  0  0  0  0
  -17.8728  -42.7381   -8.9717 C   0  0  0  0  0  0  0  0  0  0  0  0
  -16.9371  -43.6037   -9.2486 O   0  0  0  0  0  0  0  0  0  0  0  0
  -17.8428  -41.5742   -9.7831 N   0  0  0  0  0  0  0  0  0  0  0  0
  -21.0469  -39.6283   -7.5398 C   0  0  0  0  0  0  0  0  0  0  0  0
  -14.8255  -38.0178  -10.9877 C   0  0  0  0  0  0  0  0  0  0  0  0
  1  2  1  0
  2  3  1  0
  2  4  1  0
  4  5  2  0
  5  6  1  0
  6  7  2  0
  7  8  1  0
  8  9  1  0
  9 10  1  0
 10 11  1  0
 11 12  1  0
 12 13  1  6
 12 14  1  0
 14 15  1  1
 15 16  1  0
 16 17  1  0
 17 18  2  0
 18 19  1  0
 19 20  2  0
 20 21  1  0
 21 22  1  0
 22 23  1  0
 23 24  1  0
 24 25  1  0
 25 26  1  0
 26 27  1  0
 27 28  2  0
 28 29  1  0
 29 30  2  0
 30 31  1  0
 30 32  1  0
 32 33  2  0
 32 34  1  0
 20 35  1  0
  8 36  2  0
 31 26  2  0
 34 14  1  0
 35 16  2  0
 36  4  1  0
M  END
$$$$
