
     RDKit          3D

 36 39  0  0  0  0  0  0  0  0999 V2000
  -16.7004  -35.0425  -12.5189 C   0  0  0  0  0  0  0  0  0  0  0  0
  -17.2071  -35.7028  -11.2552 C   0  0  0  0  0  0  0  0  0  0  0  0
  -18.3901  -36.5661  -11.6454 C   0  0  0  0  0  0  0  0  0  0  0  0
  -16.1856  -36.5246  -10.5947 C   0  0  0  0  0  0  0  0  0  0  0  0
  -14.9096  -36.0397  -10.4165 C   0  0  0  0  0  0  0  0  0  0  0  0
  -13.9590  -36.8302   -9.7905 C   0  0  0  0  0  0  0  0  0  0  0  0
  -14.3101  -38.1092   -9.3490 C   0  0  0  0  0  0  0  0  0  0  0  0
  -15.5778  -38.6030   -9.5209 C   0  0  0  0  0  0  0  0  0  0  0  0
  -15.9815  -39.9470   -9.0677 C   0  0  0  0  0  0  0  0  0  0  0  0
  -15.4123  -40.3434   -7.8003 N   0  0  0  0  0  0  0  0  0  0  0  0
  -16.2192  -39.8070   -6.7458 C   0  0  0  0  0  0  0  0  0  0  0  0
  -17.7208  -40.0792   -7.0032 C   0  0  1  0  0  0  0  0  0  0  0  0
  -18.4229  -39.2524   -6.1701 O   0  0  0  0  0  0  0  0  0  0  0  0
  -17.9190  -39.7278   -8.4619 C   0  0  2  0  0  0  0  0  0  0  0  0
  -19.3124  -39.3869   -8.8636 C   0  0  0  0  0  0  0  0  0  0  0  0
  -20.3190  -39.1183   -7.7871 C   0  0  0  0  0  0  0  0  0  0  0  0
  -20.8359  -37.8016   -7.9214 C   0  0  0  0  0  0  0  0  0  0  0  0
  -21.8229  -37.2939   -7.1246 C   0  0  0  0  0  0  0  0  0  0  0  0
  -22.2940  -38.1560   -6.1658 C   0  0  0  0  0  0  0  0  0  0  0  0
  -21.8162  -39.4730   -5.9881 C   0  0  0  0  0  0  0  0  0  0  0  0
  -22.5575  -40.1460   -4.9002 C   0  0  0  0  0  0  0  0  0  0  0  0
  -23.4222  -41.3215   -5.3295 C   0  0  0  0  0  0  0  0  0  0  0  0
  -22.6159  -42.6013   -5.4729 C   0  0  0  0  0  0  0  0  0  0  0  0
  -22.7756  -43.1129   -6.8577 C   0  0  0  0  0  0  0  0  0  0  0  0
  -21.7581  -43.9792   -7.3166 O   0  0  0  0  0  0  0  0  0  0  0  0
  -20.4038  -43.8122   -7.5488 C   0  0  0  0  0  0  0  0  0  0  0  0
  -19.6518  -44.7104   -6.7621 C   0  0  0  0  0  0  0  0  0  0  0  0
  -18.3246  -44.7590   -6.7822 N   0  0  0  0  0  0  0  0  0  0  0  0
  -17.7096  -43.9041   -7.5949 C   0  0  0  0  0  0  0  0  0  0  0  0
  -18.3908  -42.9665   -8.4217 C   0  0  0  0  0  0  0  0  0  0  0  0
  -19.7627  -42.9251   -8.3991 C   0  0  0  0  0  0  0  0  0  0  0  0
  -17.3962  -42.1419   -9.1316 C   0  0  0  0  0  0  0  0  0  0  0  0
  -16.4064  -42.8047   -9.6631 O   0  0  0  0  0  0  0  0  0  0  0  0
  -17.3286  -40.7390   -9.3349 N   0  0  0  0  0  0  0  0  0  0  0  0
  -20.8095  -39.9575   -6.8134 C   0  0  0  0  0  0  0  0  0  0  0  0
  -16.5077  -37.8048  -10.1440 C   0  0  0  0  0  0  0  0  0  0  0  0
  1  2  1  0
  2  3  1  0
  2  4  1  0
  4  5  2  0
  5  6  1  0
  6  7  2  0
  7  8  1  0
  8  9  1  0
  9 10  1  0
 10 11  1  0
 11 12  1  0
 12 13  1  1
 12 14  1  0
 14 15  1  6
 15 16  1  0
 16 17  1  0
 17 18  2  0
 18 19  1  0
 19 20  2  0
 20 21  1  0
 21 22  1  0
 22 23  1  0
 23 24  1  0
 24 25  1  0
 25 26  1  0
 26 27  1  0
 27 28  2  0
 28 29  1  0
 29 30  2  0
 30 31  1  0
 30 32  1  0
 32 33  2  0
 32 34  1  0
 20 35  1  0
  8 36  2  0
 31 26  2  0
 34 14  1  0
 35 16  2  0
 36  4  1  0
M  END
$$$$
