
     RDKit          3D

 36 39  0  0  0  0  0  0  0  0999 V2000
  -10.8917  -39.3040   -9.0430 C   0  0  0  0  0  0  0  0  0  0  0  0
  -10.8810  -39.3517  -10.5553 C   0  0  0  0  0  0  0  0  0  0  0  0
  -10.3506  -40.7139  -10.9557 C   0  0  0  0  0  0  0  0  0  0  0  0
  -12.2113  -39.1425  -11.1398 C   0  0  0  0  0  0  0  0  0  0  0  0
  -12.3437  -38.5518  -12.3762 C   0  0  0  0  0  0  0  0  0  0  0  0
  -13.6078  -38.3628  -12.9118 C   0  0  0  0  0  0  0  0  0  0  0  0
  -14.7304  -38.7751  -12.1882 C   0  0  0  0  0  0  0  0  0  0  0  0
  -14.6110  -39.3645  -10.9558 C   0  0  0  0  0  0  0  0  0  0  0  0
  -15.7737  -39.8108  -10.1660 C   0  0  0  0  0  0  0  0  0  0  0  0
  -16.5166  -38.7395   -9.5433 N   0  0  0  0  0  0  0  0  0  0  0  0
  -16.7534  -39.0801   -8.1727 C   0  0  0  0  0  0  0  0  0  0  0  0
  -18.1141  -39.7987   -8.0068 C   0  0  1  0  0  0  0  0  0  0  0  0
  -18.7836  -39.1550   -7.0028 O   0  0  0  0  0  0  0  0  0  0  0  0
  -18.7915  -39.6296   -9.3496 C   0  0  2  0  0  0  0  0  0  0  0  0
  -20.2777  -39.5318   -9.3187 C   0  0  0  0  0  0  0  0  0  0  0  0
  -20.9495  -39.3000   -7.9999 C   0  0  0  0  0  0  0  0  0  0  0  0
  -21.6937  -38.0903   -8.0388 C   0  0  0  0  0  0  0  0  0  0  0  0
  -22.4698  -37.6487   -7.0045 C   0  0  0  0  0  0  0  0  0  0  0  0
  -22.4855  -38.4664   -5.9021 C   0  0  0  0  0  0  0  0  0  0  0  0
  -21.7650  -39.6776   -5.8099 C   0  0  0  0  0  0  0  0  0  0  0  0
  -22.0278  -40.3342   -4.5116 C   0  0  0  0  0  0  0  0  0  0  0  0
  -22.7734  -41.6578   -4.5886 C   0  0  0  0  0  0  0  0  0  0  0  0
  -21.8455  -42.8186   -4.9050 C   0  0  0  0  0  0  0  0  0  0  0  0
  -22.3217  -43.4861   -6.1428 C   0  0  0  0  0  0  0  0  0  0  0  0
  -21.3573  -44.2420   -6.8463 O   0  0  0  0  0  0  0  0  0  0  0  0
  -20.1803  -43.9097   -7.4944 C   0  0  0  0  0  0  0  0  0  0  0  0
  -19.0906  -44.6076   -6.9313 C   0  0  0  0  0  0  0  0  0  0  0  0
  -17.8404  -44.4697   -7.3580 N   0  0  0  0  0  0  0  0  0  0  0  0
  -17.6449  -43.6238   -8.3659 C   0  0  0  0  0  0  0  0  0  0  0  0
  -18.6863  -42.8812   -8.9909 C   0  0  0  0  0  0  0  0  0  0  0  0
  -19.9766  -43.0322   -8.5477 C   0  0  0  0  0  0  0  0  0  0  0  0
  -18.0983  -42.0010  -10.0169 C   0  0  0  0  0  0  0  0  0  0  0  0
  -17.2151  -42.5678  -10.7917 O   0  0  0  0  0  0  0  0  0  0  0  0
  -18.3276  -40.6308  -10.3065 N   0  0  0  0  0  0  0  0  0  0  0  0
  -20.9827  -40.0964   -6.8786 C   0  0  0  0  0  0  0  0  0  0  0  0
  -13.3493  -39.5439  -10.4402 C   0  0  0  0  0  0  0  0  0  0  0  0
  1  2  1  0
  2  3  1  0
  2  4  1  0
  4  5  2  0
  5  6  1  0
  6  7  2  0
  7  8  1  0
  8  9  1  0
  9 10  1  0
 10 11  1  0
 11 12  1  0
 12 13  1  1
 12 14  1  0
 14 15  1  1
 15 16  1  0
 16 17  1  0
 17 18  2  0
 18 19  1  0
 19 20  2  0
 20 21  1  0
 21 22  1  0
 22 23  1  0
 23 24  1  0
 24 25  1  0
 25 26  1  0
 26 27  1  0
 27 28  2  0
 28 29  1  0
 29 30  2  0
 30 31  1  0
 30 32  1  0
 32 33  2  0
 32 34  1  0
 20 35  1  0
  8 36  2  0
 31 26  2  0
 34 14  1  0
 35 16  2  0
 36  4  1  0
M  END
$$$$
