
     RDKit          3D

 36 39  0  0  0  0  0  0  0  0999 V2000
  -10.4893  -37.3453  -10.6803 C   0  0  0  0  0  0  0  0  0  0  0  0
  -11.8356  -36.9984  -10.0829 C   0  0  0  0  0  0  0  0  0  0  0  0
  -11.9451  -35.4867  -10.0754 C   0  0  0  0  0  0  0  0  0  0  0  0
  -12.9565  -37.5763  -10.8342 C   0  0  0  0  0  0  0  0  0  0  0  0
  -12.7715  -38.0336  -12.1194 C   0  0  0  0  0  0  0  0  0  0  0  0
  -13.8417  -38.5763  -12.8128 C   0  0  0  0  0  0  0  0  0  0  0  0
  -15.0940  -38.6514  -12.1963 C   0  0  0  0  0  0  0  0  0  0  0  0
  -15.2904  -38.1992  -10.9167 C   0  0  0  0  0  0  0  0  0  0  0  0
  -16.5976  -38.2631  -10.2371 C   0  0  0  0  0  0  0  0  0  0  0  0
  -16.5197  -38.2457   -8.7945 N   0  0  0  0  0  0  0  0  0  0  0  0
  -16.7968  -39.5620   -8.3030 C   0  0  0  0  0  0  0  0  0  0  0  0
  -18.3190  -39.7792   -8.1269 C   0  0  1  0  0  0  0  0  0  0  0  0
  -18.7844  -38.7372   -7.3730 O   0  0  0  0  0  0  0  0  0  0  0  0
  -18.8649  -39.7561   -9.5382 C   0  0  2  0  0  0  0  0  0  0  0  0
  -20.3488  -39.7033   -9.6590 C   0  0  0  0  0  0  0  0  0  0  0  0
  -21.1520  -39.3726   -8.4384 C   0  0  0  0  0  0  0  0  0  0  0  0
  -21.9162  -38.1959   -8.6627 C   0  0  0  0  0  0  0  0  0  0  0  0
  -22.7999  -37.6859   -7.7540 C   0  0  0  0  0  0  0  0  0  0  0  0
  -22.9051  -38.3987   -6.5855 C   0  0  0  0  0  0  0  0  0  0  0  0
  -22.1698  -39.5727   -6.3106 C   0  0  0  0  0  0  0  0  0  0  0  0
  -22.5438  -40.1149   -4.9870 C   0  0  0  0  0  0  0  0  0  0  0  0
  -23.2479  -41.4631   -5.0091 C   0  0  0  0  0  0  0  0  0  0  0  0
  -22.2672  -42.6179   -5.1239 C   0  0  0  0  0  0  0  0  0  0  0  0
  -22.6043  -43.4114   -6.3328 C   0  0  0  0  0  0  0  0  0  0  0  0
  -21.5585  -44.1977   -6.8660 O   0  0  0  0  0  0  0  0  0  0  0  0
  -20.3313  -43.8893   -7.4271 C   0  0  0  0  0  0  0  0  0  0  0  0
  -19.2866  -44.4972   -6.6988 C   0  0  0  0  0  0  0  0  0  0  0  0
  -18.0041  -44.3595   -7.0152 N   0  0  0  0  0  0  0  0  0  0  0  0
  -17.7298  -43.6042   -8.0753 C   0  0  0  0  0  0  0  0  0  0  0  0
  -18.7214  -42.9558   -8.8646 C   0  0  0  0  0  0  0  0  0  0  0  0
  -20.0453  -43.1065   -8.5345 C   0  0  0  0  0  0  0  0  0  0  0  0
  -18.0557  -42.1556   -9.9084 C   0  0  0  0  0  0  0  0  0  0  0  0
  -17.0881  -42.7629  -10.5380 O   0  0  0  0  0  0  0  0  0  0  0  0
  -18.2867  -40.8259  -10.3471 N   0  0  0  0  0  0  0  0  0  0  0  0
  -21.2770  -40.0629   -7.2550 C   0  0  0  0  0  0  0  0  0  0  0  0
  -14.2174  -37.6639  -10.2443 C   0  0  0  0  0  0  0  0  0  0  0  0
  1  2  1  0
  2  3  1  0
  2  4  1  0
  4  5  2  0
  5  6  1  0
  6  7  2  0
  7  8  1  0
  8  9  1  0
  9 10  1  0
 10 11  1  0
 11 12  1  0
 12 13  1  1
 12 14  1  0
 14 15  1  1
 15 16  1  0
 16 17  1  0
 17 18  2  0
 18 19  1  0
 19 20  2  0
 20 21  1  0
 21 22  1  0
 22 23  1  0
 23 24  1  0
 24 25  1  0
 25 26  1  0
 26 27  1  0
 27 28  2  0
 28 29  1  0
 29 30  2  0
 30 31  1  0
 30 32  1  0
 32 33  2  0
 32 34  1  0
 20 35  1  0
  8 36  2  0
 31 26  2  0
 34 14  1  0
 35 16  2  0
 36  4  1  0
M  END
$$$$
