
     RDKit          3D

 36 39  0  0  0  0  0  0  0  0999 V2000
  -10.7196  -36.9357  -12.0065 C   0  0  0  0  0  0  0  0  0  0  0  0
  -11.7054  -37.7832  -12.7807 C   0  0  0  0  0  0  0  0  0  0  0  0
  -11.2397  -39.2215  -12.6728 C   0  0  0  0  0  0  0  0  0  0  0  0
  -13.0781  -37.6637  -12.2743 C   0  0  0  0  0  0  0  0  0  0  0  0
  -14.0657  -37.1163  -13.0617 C   0  0  0  0  0  0  0  0  0  0  0  0
  -15.3558  -37.0120  -12.5664 C   0  0  0  0  0  0  0  0  0  0  0  0
  -15.6353  -37.4645  -11.2737 C   0  0  0  0  0  0  0  0  0  0  0  0
  -14.6598  -38.0115  -10.4801 C   0  0  0  0  0  0  0  0  0  0  0  0
  -14.9202  -38.4982   -9.1126 C   0  0  0  0  0  0  0  0  0  0  0  0
  -16.1683  -38.0415   -8.5460 N   0  0  0  0  0  0  0  0  0  0  0  0
  -16.4880  -38.8616   -7.4164 C   0  0  0  0  0  0  0  0  0  0  0  0
  -17.9116  -39.4547   -7.5466 C   0  0  1  0  0  0  0  0  0  0  0  0
  -18.6737  -38.8767   -6.5691 O   0  0  0  0  0  0  0  0  0  0  0  0
  -18.3576  -39.0525   -8.9359 C   0  0  2  0  0  0  0  0  0  0  0  0
  -19.8300  -39.0182   -9.1599 C   0  0  0  0  0  0  0  0  0  0  0  0
  -20.7340  -39.0730   -7.9666 C   0  0  0  0  0  0  0  0  0  0  0  0
  -21.5452  -37.9075   -7.9166 C   0  0  0  0  0  0  0  0  0  0  0  0
  -22.5176  -37.7052   -6.9783 C   0  0  0  0  0  0  0  0  0  0  0  0
  -22.6645  -38.7220   -6.0679 C   0  0  0  0  0  0  0  0  0  0  0  0
  -21.8858  -39.9002   -6.0711 C   0  0  0  0  0  0  0  0  0  0  0  0
  -22.3208  -40.8064   -4.9870 C   0  0  0  0  0  0  0  0  0  0  0  0
  -22.9452  -42.1165   -5.4426 C   0  0  0  0  0  0  0  0  0  0  0  0
  -21.8958  -43.1580   -5.7930 C   0  0  0  0  0  0  0  0  0  0  0  0
  -22.1023  -43.5889   -7.1988 C   0  0  0  0  0  0  0  0  0  0  0  0
  -20.9794  -44.1567   -7.8414 O   0  0  0  0  0  0  0  0  0  0  0  0
  -19.7351  -43.6609   -8.1903 C   0  0  0  0  0  0  0  0  0  0  0  0
  -18.7117  -44.4139   -7.5763 C   0  0  0  0  0  0  0  0  0  0  0  0
  -17.4198  -44.1490   -7.7341 N   0  0  0  0  0  0  0  0  0  0  0  0
  -17.1145  -43.1163   -8.5150 C   0  0  0  0  0  0  0  0  0  0  0  0
  -18.0830  -42.3055   -9.1717 C   0  0  0  0  0  0  0  0  0  0  0  0
  -19.4163  -42.5880   -9.0078 C   0  0  0  0  0  0  0  0  0  0  0  0
  -17.3915  -41.2210   -9.8919 C   0  0  0  0  0  0  0  0  0  0  0  0
  -16.3497  -41.5926  -10.5833 O   0  0  0  0  0  0  0  0  0  0  0  0
  -17.6651  -39.8301   -9.9600 N   0  0  0  0  0  0  0  0  0  0  0  0
  -20.9029  -40.0732   -7.0373 C   0  0  0  0  0  0  0  0  0  0  0  0
  -13.3859  -38.1069  -10.9881 C   0  0  0  0  0  0  0  0  0  0  0  0
  1  2  1  0
  2  3  1  0
  2  4  1  0
  4  5  2  0
  5  6  1  0
  6  7  2  0
  7  8  1  0
  8  9  1  0
  9 10  1  0
 10 11  1  0
 11 12  1  0
 12 13  1  1
 12 14  1  0
 14 15  1  1
 15 16  1  0
 16 17  1  0
 17 18  2  0
 18 19  1  0
 19 20  2  0
 20 21  1  0
 21 22  1  0
 22 23  1  0
 23 24  1  0
 24 25  1  0
 25 26  1  0
 26 27  1  0
 27 28  2  0
 28 29  1  0
 29 30  2  0
 30 31  1  0
 30 32  1  0
 32 33  2  0
 32 34  1  0
 20 35  1  0
  8 36  2  0
 31 26  2  0
 34 14  1  0
 35 16  2  0
 36  4  1  0
M  END
$$$$
