
     RDKit          3D

 36 39  0  0  0  0  0  0  0  0999 V2000
  -15.0480  -33.7410  -10.7694 C   0  0  0  0  0  0  0  0  0  0  0  0
  -15.9894  -34.6035   -9.9576 C   0  0  0  0  0  0  0  0  0  0  0  0
  -17.3674  -33.9809  -10.0609 C   0  0  0  0  0  0  0  0  0  0  0  0
  -16.0334  -35.9939  -10.4267 C   0  0  0  0  0  0  0  0  0  0  0  0
  -16.4956  -36.2885  -11.6895 C   0  0  0  0  0  0  0  0  0  0  0  0
  -16.5293  -37.6071  -12.1148 C   0  0  0  0  0  0  0  0  0  0  0  0
  -16.0932  -38.6189  -11.2546 C   0  0  0  0  0  0  0  0  0  0  0  0
  -15.6307  -38.3376   -9.9947 C   0  0  0  0  0  0  0  0  0  0  0  0
  -15.1635  -39.3803   -9.0623 C   0  0  0  0  0  0  0  0  0  0  0  0
  -15.4956  -39.1328   -7.6781 N   0  0  0  0  0  0  0  0  0  0  0  0
  -16.8396  -38.6435   -7.6080 C   0  0  0  0  0  0  0  0  0  0  0  0
  -17.8573  -39.7762   -7.8846 C   0  0  1  0  0  0  0  0  0  0  0  0
  -18.9104  -39.5806   -7.0341 O   0  0  0  0  0  0  0  0  0  0  0  0
  -18.2461  -39.5826   -9.3344 C   0  0  2  0  0  0  0  0  0  0  0  0
  -19.6968  -39.3643   -9.5935 C   0  0  0  0  0  0  0  0  0  0  0  0
  -20.5889  -39.0498   -8.4317 C   0  0  0  0  0  0  0  0  0  0  0  0
  -21.2078  -37.7851   -8.6217 C   0  0  0  0  0  0  0  0  0  0  0  0
  -22.1293  -37.2594   -7.7606 C   0  0  0  0  0  0  0  0  0  0  0  0
  -22.4259  -38.0486   -6.6773 C   0  0  0  0  0  0  0  0  0  0  0  0
  -21.8406  -39.3118   -6.4397 C   0  0  0  0  0  0  0  0  0  0  0  0
  -22.4032  -39.9161   -5.2133 C   0  0  0  0  0  0  0  0  0  0  0  0
  -23.2279  -41.1764   -5.4257 C   0  0  0  0  0  0  0  0  0  0  0  0
  -22.3567  -42.4152   -5.5488 C   0  0  0  0  0  0  0  0  0  0  0  0
  -22.6390  -43.0692   -6.8516 C   0  0  0  0  0  0  0  0  0  0  0  0
  -21.6236  -43.9159   -7.3497 O   0  0  0  0  0  0  0  0  0  0  0  0
  -20.3199  -43.6944   -7.7588 C   0  0  0  0  0  0  0  0  0  0  0  0
  -19.4218  -44.4654   -6.9906 C   0  0  0  0  0  0  0  0  0  0  0  0
  -18.1057  -44.4386   -7.1670 N   0  0  0  0  0  0  0  0  0  0  0  0
  -17.6491  -43.6338   -8.1228 C   0  0  0  0  0  0  0  0  0  0  0  0
  -18.4844  -42.8233   -8.9427 C   0  0  0  0  0  0  0  0  0  0  0  0
  -19.8441  -42.8597   -8.7577 C   0  0  0  0  0  0  0  0  0  0  0  0
  -17.6378  -42.0165   -9.8401 C   0  0  0  0  0  0  0  0  0  0  0  0
  -16.6723  -42.6698  -10.4252 O   0  0  0  0  0  0  0  0  0  0  0  0
  -17.6916  -40.6389  -10.1769 N   0  0  0  0  0  0  0  0  0  0  0  0
  -20.9045  -39.8160   -7.3335 C   0  0  0  0  0  0  0  0  0  0  0  0
  -15.6044  -37.0241   -9.5898 C   0  0  0  0  0  0  0  0  0  0  0  0
  1  2  1  0
  2  3  1  0
  2  4  1  0
  4  5  2  0
  5  6  1  0
  6  7  2  0
  7  8  1  0
  8  9  1  0
  9 10  1  0
 10 11  1  0
 11 12  1  0
 12 13  1  1
 12 14  1  0
 14 15  1  1
 15 16  1  0
 16 17  1  0
 17 18  2  0
 18 19  1  0
 19 20  2  0
 20 21  1  0
 21 22  1  0
 22 23  1  0
 23 24  1  0
 24 25  1  0
 25 26  1  0
 26 27  1  0
 27 28  2  0
 28 29  1  0
 29 30  2  0
 30 31  1  0
 30 32  1  0
 32 33  2  0
 32 34  1  0
 20 35  1  0
  8 36  2  0
 31 26  2  0
 34 14  1  0
 35 16  2  0
 36  4  1  0
M  END
$$$$
