
     RDKit          3D

 33 34  0  0  0  0  0  0  0  0999 V2000
  -20.0749  -38.7223   -8.5631 C   0  0  0  0  0  0  0  0  0  0  0  0
  -20.1979  -39.3930   -7.2343 C   0  0  2  0  0  0  0  0  0  0  0  0
  -20.9124  -38.4108   -6.3082 C   0  0  0  0  0  0  0  0  0  0  0  0
  -22.0490  -39.0505   -5.5767 C   0  0  0  0  0  0  0  0  0  0  0  0
  -23.1026  -39.5549   -6.5154 C   0  0  0  0  0  0  0  0  0  0  0  0
  -23.7132  -40.8416   -6.0083 C   0  0  0  0  0  0  0  0  0  0  0  0
  -23.2091  -42.0388   -6.7884 C   0  0  0  0  0  0  0  0  0  0  0  0
  -22.1095  -42.6695   -5.9756 C   0  0  0  0  0  0  0  0  0  0  0  0
  -21.6470  -43.8534   -6.4915 O   0  0  0  0  0  0  0  0  0  0  0  0
  -20.7902  -43.7247   -7.5732 C   0  0  0  0  0  0  0  0  0  0  0  0
  -19.8772  -44.8752   -7.5981 C   0  0  0  0  0  0  0  0  0  0  0  0
  -20.3178  -45.9528   -7.0550 O   0  0  0  0  0  0  0  0  0  0  0  0
  -18.5781  -44.9182   -8.1521 N   0  0  0  0  0  0  0  0  0  0  0  0
  -18.1893  -46.0646   -8.9559 C   0  0  0  0  0  0  0  0  0  0  0  0
  -17.5565  -43.8940   -7.9893 C   0  0  1  0  0  0  0  0  0  0  0  0
  -17.1646  -43.2712   -9.2845 C   0  0  0  0  0  0  0  0  0  0  0  0
  -17.7944  -42.9943   -6.8663 C   0  0  0  0  0  0  0  0  0  0  0  0
  -18.3950  -43.5583   -5.8720 O   0  0  0  0  0  0  0  0  0  0  0  0
  -17.4780  -41.6410   -6.6983 N   0  0  0  0  0  0  0  0  0  0  0  0
  -17.9232  -40.4919   -7.4498 C   0  0  1  0  0  0  0  0  0  0  0  0
  -18.9288  -39.7680   -6.5667 C   0  0  0  0  0  0  0  0  0  0  0  0
  -16.7120  -39.5624   -7.6418 C   0  0  2  0  0  0  0  0  0  0  0  0
  -17.1022  -38.5247   -8.4634 O   0  0  0  0  0  0  0  0  0  0  0  0
  -15.5351  -40.3271   -8.2011 C   0  0  0  0  0  0  0  0  0  0  0  0
  -14.3301  -39.5712   -8.2239 N   0  0  0  0  0  0  0  0  0  0  0  0
  -13.2080  -40.2226   -8.8511 C   0  0  0  0  0  0  0  0  0  0  0  0
  -13.4487  -40.4942  -10.2899 C   0  0  0  0  0  0  0  0  0  0  0  0
  -13.9912  -41.6571  -10.7862 C   0  0  0  0  0  0  0  0  0  0  0  0
  -14.1667  -41.7899  -12.1153 N   0  0  0  0  0  0  0  0  0  0  0  0
  -13.8279  -40.8149  -13.0025 C   0  0  0  0  0  0  0  0  0  0  0  0
  -13.2781  -39.6272  -12.5418 C   0  0  0  0  0  0  0  0  0  0  0  0
  -12.7968  -38.2447  -13.7738 Br  0  0  0  0  0  0  0  0  0  0  0  0
  -13.1054  -39.5058  -11.1903 C   0  0  0  0  0  0  0  0  0  0  0  0
  2  1  1  6
  2  3  1  0
  3  4  1  0
  4  5  1  0
  5  6  1  0
  6  7  1  0
  7  8  1  0
  8  9  1  0
  9 10  1  0
 10 11  1  0
 11 12  2  0
 11 13  1  0
 13 14  1  0
 13 15  1  0
 15 16  1  6
 15 17  1  0
 17 18  2  0
 17 19  1  0
 19 20  1  0
 20 21  1  1
 20 22  1  0
 22 23  1  6
 22 24  1  0
 24 25  1  0
 25 26  1  0
 26 27  1  0
 27 28  2  0
 28 29  1  0
 29 30  2  0
 30 31  1  0
 31 32  1  0
 31 33  2  0
 21  2  1  0
 33 27  1  0
M  END
$$$$
