
     RDKit          3D

 33 34  0  0  0  0  0  0  0  0999 V2000
  -20.9390  -38.3628   -7.9752 C   0  0  0  0  0  0  0  0  0  0  0  0
  -20.5063  -39.1089   -6.7560 C   0  0  2  0  0  0  0  0  0  0  0  0
  -20.8249  -38.2182   -5.5568 C   0  0  0  0  0  0  0  0  0  0  0  0
  -21.5598  -38.9575   -4.4846 C   0  0  0  0  0  0  0  0  0  0  0  0
  -22.8834  -39.4686   -4.9669 C   0  0  0  0  0  0  0  0  0  0  0  0
  -23.2052  -40.8121   -4.3529 C   0  0  0  0  0  0  0  0  0  0  0  0
  -23.0157  -41.9365   -5.3507 C   0  0  0  0  0  0  0  0  0  0  0  0
  -21.6661  -42.5480   -5.0821 C   0  0  0  0  0  0  0  0  0  0  0  0
  -21.4106  -43.6756   -5.8203 O   0  0  0  0  0  0  0  0  0  0  0  0
  -21.0559  -43.4425   -7.1397 C   0  0  0  0  0  0  0  0  0  0  0  0
  -20.1936  -44.5381   -7.6025 C   0  0  0  0  0  0  0  0  0  0  0  0
  -20.3513  -45.6657   -7.0075 O   0  0  0  0  0  0  0  0  0  0  0  0
  -19.2190  -44.4799   -8.6239 N   0  0  0  0  0  0  0  0  0  0  0  0
  -19.1463  -45.5589   -9.5945 C   0  0  0  0  0  0  0  0  0  0  0  0
  -18.2472  -43.4112   -8.8037 C   0  0  1  0  0  0  0  0  0  0  0  0
  -18.4184  -42.6998  -10.1012 C   0  0  0  0  0  0  0  0  0  0  0  0
  -18.0479  -42.5869   -7.6171 C   0  0  0  0  0  0  0  0  0  0  0  0
  -18.1891  -43.2352   -6.5093 O   0  0  0  0  0  0  0  0  0  0  0  0
  -17.7310  -41.2291   -7.4919 N   0  0  0  0  0  0  0  0  0  0  0  0
  -18.4710  -40.0680   -7.9249 C   0  0  1  0  0  0  0  0  0  0  0  0
  -19.0662  -39.4485   -6.6689 C   0  0  0  0  0  0  0  0  0  0  0  0
  -17.4627  -39.0642   -8.5111 C   0  0  2  0  0  0  0  0  0  0  0  0
  -18.1222  -37.8678   -8.7052 O   0  0  0  0  0  0  0  0  0  0  0  0
  -16.8562  -39.5999   -9.7871 C   0  0  0  0  0  0  0  0  0  0  0  0
  -15.8838  -40.6148   -9.5672 N   0  0  0  0  0  0  0  0  0  0  0  0
  -14.5455  -40.1404   -9.3207 C   0  0  0  0  0  0  0  0  0  0  0  0
  -13.6016  -41.2480   -9.0310 C   0  0  0  0  0  0  0  0  0  0  0  0
  -12.8345  -41.3444   -7.8929 C   0  0  0  0  0  0  0  0  0  0  0  0
  -12.0131  -42.4008   -7.7369 N   0  0  0  0  0  0  0  0  0  0  0  0
  -11.9046  -43.3907   -8.6647 C   0  0  0  0  0  0  0  0  0  0  0  0
  -12.6615  -43.3304   -9.8260 C   0  0  0  0  0  0  0  0  0  0  0  0
  -12.5234  -44.7134  -11.1409 Br  0  0  0  0  0  0  0  0  0  0  0  0
  -13.4910  -42.2525   -9.9714 C   0  0  0  0  0  0  0  0  0  0  0  0
  2  1  1  6
  2  3  1  0
  3  4  1  0
  4  5  1  0
  5  6  1  0
  6  7  1  0
  7  8  1  0
  8  9  1  0
  9 10  1  0
 10 11  1  0
 11 12  2  0
 11 13  1  0
 13 14  1  0
 13 15  1  0
 15 16  1  6
 15 17  1  0
 17 18  2  0
 17 19  1  0
 19 20  1  0
 20 21  1  1
 20 22  1  0
 22 23  1  6
 22 24  1  0
 24 25  1  0
 25 26  1  0
 26 27  1  0
 27 28  2  0
 28 29  1  0
 29 30  2  0
 30 31  1  0
 31 32  1  0
 31 33  2  0
 21  2  1  0
 33 27  1  0
M  END
$$$$
