
     RDKit          3D

 33 34  0  0  0  0  0  0  0  0999 V2000
  -20.0723  -38.6311   -8.5785 C   0  0  0  0  0  0  0  0  0  0  0  0
  -19.9451  -39.2450   -7.2229 C   0  0  2  0  0  0  0  0  0  0  0  0
  -20.4967  -38.2291   -6.2245 C   0  0  0  0  0  0  0  0  0  0  0  0
  -21.4741  -38.8451   -5.2750 C   0  0  0  0  0  0  0  0  0  0  0  0
  -22.6713  -39.3970   -5.9877 C   0  0  0  0  0  0  0  0  0  0  0  0
  -23.1620  -40.6652   -5.3269 C   0  0  0  0  0  0  0  0  0  0  0  0
  -22.7881  -41.8910   -6.1352 C   0  0  0  0  0  0  0  0  0  0  0  0
  -21.5514  -42.4782   -5.5081 C   0  0  0  0  0  0  0  0  0  0  0  0
  -21.1713  -43.6798   -6.0497 O   0  0  0  0  0  0  0  0  0  0  0  0
  -20.5241  -43.5914   -7.2721 C   0  0  0  0  0  0  0  0  0  0  0  0
  -19.6134  -44.7353   -7.4135 C   0  0  0  0  0  0  0  0  0  0  0  0
  -19.9335  -45.7918   -6.7564 O   0  0  0  0  0  0  0  0  0  0  0  0
  -18.4341  -44.7926   -8.1896 N   0  0  0  0  0  0  0  0  0  0  0  0
  -18.1786  -45.9697   -9.0025 C   0  0  0  0  0  0  0  0  0  0  0  0
  -17.4152  -43.7550   -8.2551 C   0  0  1  0  0  0  0  0  0  0  0  0
  -17.2711  -43.1856   -9.6240 C   0  0  0  0  0  0  0  0  0  0  0  0
  -17.4614  -42.8096   -7.1455 C   0  0  0  0  0  0  0  0  0  0  0  0
  -17.8656  -43.3347   -6.0372 O   0  0  0  0  0  0  0  0  0  0  0  0
  -17.1401  -41.4481   -7.0926 N   0  0  0  0  0  0  0  0  0  0  0  0
  -17.7298  -40.3356   -7.7983 C   0  0  1  0  0  0  0  0  0  0  0  0
  -18.5716  -39.5818   -6.7793 C   0  0  0  0  0  0  0  0  0  0  0  0
  -16.5865  -39.4064   -8.2427 C   0  0  2  0  0  0  0  0  0  0  0  0
  -16.9531  -38.1111   -7.9392 O   0  0  0  0  0  0  0  0  0  0  0  0
  -16.2893  -39.5904   -9.7126 C   0  0  0  0  0  0  0  0  0  0  0  0
  -15.1230  -40.3666   -9.9598 N   0  0  0  0  0  0  0  0  0  0  0  0
  -13.8774  -39.6461   -9.8814 C   0  0  0  0  0  0  0  0  0  0  0  0
  -13.6808  -38.7373  -11.0377 C   0  0  0  0  0  0  0  0  0  0  0  0
  -13.9650  -39.0613  -12.3444 C   0  0  0  0  0  0  0  0  0  0  0  0
  -13.7481  -38.1508  -13.3133 N   0  0  0  0  0  0  0  0  0  0  0  0
  -13.2542  -36.9085  -13.0574 C   0  0  0  0  0  0  0  0  0  0  0  0
  -12.9550  -36.5432  -11.7528 C   0  0  0  0  0  0  0  0  0  0  0  0
  -12.2612  -34.8009  -11.3735 Br  0  0  0  0  0  0  0  0  0  0  0  0
  -13.1800  -37.4772  -10.7791 C   0  0  0  0  0  0  0  0  0  0  0  0
  2  1  1  6
  2  3  1  0
  3  4  1  0
  4  5  1  0
  5  6  1  0
  6  7  1  0
  7  8  1  0
  8  9  1  0
  9 10  1  0
 10 11  1  0
 11 12  2  0
 11 13  1  0
 13 14  1  0
 13 15  1  0
 15 16  1  6
 15 17  1  0
 17 18  2  0
 17 19  1  0
 19 20  1  0
 20 21  1  1
 20 22  1  0
 22 23  1  6
 22 24  1  0
 24 25  1  0
 25 26  1  0
 26 27  1  0
 27 28  2  0
 28 29  1  0
 29 30  2  0
 30 31  1  0
 31 32  1  0
 31 33  2  0
 21  2  1  0
 33 27  1  0
M  END
$$$$
