
     RDKit          3D

 33 34  0  0  0  0  0  0  0  0999 V2000
  -21.2879  -38.8348   -8.6144 C   0  0  0  0  0  0  0  0  0  0  0  0
  -20.8612  -39.3590   -7.2826 C   0  0  2  0  0  0  0  0  0  0  0  0
  -21.5414  -38.4894   -6.2271 C   0  0  0  0  0  0  0  0  0  0  0  0
  -22.2196  -39.3069   -5.1746 C   0  0  0  0  0  0  0  0  0  0  0  0
  -23.3067  -40.1638   -5.7488 C   0  0  0  0  0  0  0  0  0  0  0  0
  -23.3824  -41.4964   -5.0388 C   0  0  0  0  0  0  0  0  0  0  0  0
  -22.7987  -42.6089   -5.8857 C   0  0  0  0  0  0  0  0  0  0  0  0
  -21.3923  -42.8458   -5.4025 C   0  0  0  0  0  0  0  0  0  0  0  0
  -20.7796  -43.9260   -5.9851 O   0  0  0  0  0  0  0  0  0  0  0  0
  -20.3138  -43.7098   -7.2725 C   0  0  0  0  0  0  0  0  0  0  0  0
  -19.1624  -44.5886   -7.5170 C   0  0  0  0  0  0  0  0  0  0  0  0
  -19.1286  -45.6733   -6.8296 O   0  0  0  0  0  0  0  0  0  0  0  0
  -18.0995  -44.3661   -8.4209 N   0  0  0  0  0  0  0  0  0  0  0  0
  -17.6424  -45.4616   -9.2591 C   0  0  0  0  0  0  0  0  0  0  0  0
  -17.3925  -43.1061   -8.5992 C   0  0  1  0  0  0  0  0  0  0  0  0
  -17.5487  -42.5564   -9.9749 C   0  0  0  0  0  0  0  0  0  0  0  0
  -17.5570  -42.1734   -7.4901 C   0  0  0  0  0  0  0  0  0  0  0  0
  -17.6905  -42.7533   -6.3441 O   0  0  0  0  0  0  0  0  0  0  0  0
  -17.5900  -40.7740   -7.4718 N   0  0  0  0  0  0  0  0  0  0  0  0
  -18.5174  -39.8673   -8.1051 C   0  0  1  0  0  0  0  0  0  0  0  0
  -19.4073  -39.3240   -6.9968 C   0  0  0  0  0  0  0  0  0  0  0  0
  -17.7046  -38.6909   -8.6739 C   0  0  2  0  0  0  0  0  0  0  0  0
  -18.4804  -38.0636   -9.6273 O   0  0  0  0  0  0  0  0  0  0  0  0
  -16.3860  -39.1731   -9.2321 C   0  0  0  0  0  0  0  0  0  0  0  0
  -15.7672  -40.1745   -8.4332 N   0  0  0  0  0  0  0  0  0  0  0  0
  -15.3799  -41.3704   -9.1380 C   0  0  0  0  0  0  0  0  0  0  0  0
  -14.5432  -41.0750  -10.3273 C   0  0  0  0  0  0  0  0  0  0  0  0
  -15.0369  -40.7875  -11.5790 C   0  0  0  0  0  0  0  0  0  0  0  0
  -14.1785  -40.5315  -12.5853 N   0  0  0  0  0  0  0  0  0  0  0  0
  -12.8275  -40.5441  -12.4201 C   0  0  0  0  0  0  0  0  0  0  0  0
  -12.2902  -40.8296  -11.1732 C   0  0  0  0  0  0  0  0  0  0  0  0
  -10.3936  -40.8507  -10.9215 Br  0  0  0  0  0  0  0  0  0  0  0  0
  -13.1730  -41.0876  -10.1607 C   0  0  0  0  0  0  0  0  0  0  0  0
  2  1  1  6
  2  3  1  0
  3  4  1  0
  4  5  1  0
  5  6  1  0
  6  7  1  0
  7  8  1  0
  8  9  1  0
  9 10  1  0
 10 11  1  0
 11 12  2  0
 11 13  1  0
 13 14  1  0
 13 15  1  0
 15 16  1  6
 15 17  1  0
 17 18  2  0
 17 19  1  0
 19 20  1  0
 20 21  1  1
 20 22  1  0
 22 23  1  6
 22 24  1  0
 24 25  1  0
 25 26  1  0
 26 27  1  0
 27 28  2  0
 28 29  1  0
 29 30  2  0
 30 31  1  0
 31 32  1  0
 31 33  2  0
 21  2  1  0
 33 27  1  0
M  END
$$$$
