
     RDKit          3D

 33 34  0  0  0  0  0  0  0  0999 V2000
  -20.5554  -38.4135   -8.1304 C   0  0  0  0  0  0  0  0  0  0  0  0
  -20.1675  -39.1546   -6.8931 C   0  0  2  0  0  0  0  0  0  0  0  0
  -20.6721  -38.3321   -5.7091 C   0  0  0  0  0  0  0  0  0  0  0  0
  -21.4296  -39.1656   -4.7255 C   0  0  0  0  0  0  0  0  0  0  0  0
  -22.6526  -39.7773   -5.3385 C   0  0  0  0  0  0  0  0  0  0  0  0
  -22.9045  -41.1619   -4.7862 C   0  0  0  0  0  0  0  0  0  0  0  0
  -22.5248  -42.2346   -5.7867 C   0  0  0  0  0  0  0  0  0  0  0  0
  -21.1546  -42.7318   -5.4086 C   0  0  0  0  0  0  0  0  0  0  0  0
  -20.7323  -43.8095   -6.1447 O   0  0  0  0  0  0  0  0  0  0  0  0
  -20.2835  -43.5064   -7.4205 C   0  0  0  0  0  0  0  0  0  0  0  0
  -19.2871  -44.5067   -7.8258 C   0  0  0  0  0  0  0  0  0  0  0  0
  -19.3941  -45.6612   -7.2727 O   0  0  0  0  0  0  0  0  0  0  0  0
  -18.2343  -44.3316   -8.7518 N   0  0  0  0  0  0  0  0  0  0  0  0
  -17.9769  -45.3702   -9.7350 C   0  0  0  0  0  0  0  0  0  0  0  0
  -17.3516  -43.1760   -8.8181 C   0  0  1  0  0  0  0  0  0  0  0  0
  -17.4700  -42.4439  -10.1100 C   0  0  0  0  0  0  0  0  0  0  0  0
  -17.3354  -42.3733   -7.6004 C   0  0  0  0  0  0  0  0  0  0  0  0
  -17.5157  -43.0646   -6.5248 O   0  0  0  0  0  0  0  0  0  0  0  0
  -17.1560  -40.9971   -7.4170 N   0  0  0  0  0  0  0  0  0  0  0  0
  -17.9569  -39.8937   -7.8907 C   0  0  1  0  0  0  0  0  0  0  0  0
  -18.7161  -39.3675   -6.6815 C   0  0  0  0  0  0  0  0  0  0  0  0
  -16.9956  -38.7873   -8.3596 C   0  0  2  0  0  0  0  0  0  0  0  0
  -17.5793  -37.5707   -8.0709 O   0  0  0  0  0  0  0  0  0  0  0  0
  -16.6820  -38.9401   -9.8297 C   0  0  0  0  0  0  0  0  0  0  0  0
  -15.5146  -39.7136  -10.0803 N   0  0  0  0  0  0  0  0  0  0  0  0
  -14.2679  -39.0002   -9.9627 C   0  0  0  0  0  0  0  0  0  0  0  0
  -14.0784  -38.0166  -11.0574 C   0  0  0  0  0  0  0  0  0  0  0  0
  -14.6989  -38.0819  -12.2836 C   0  0  0  0  0  0  0  0  0  0  0  0
  -14.4516  -37.1271  -13.2012 N   0  0  0  0  0  0  0  0  0  0  0  0
  -13.6052  -36.0867  -12.9695 C   0  0  0  0  0  0  0  0  0  0  0  0
  -12.9600  -35.9849  -11.7454 C   0  0  0  0  0  0  0  0  0  0  0  0
  -11.7676  -34.5288  -11.4009 Br  0  0  0  0  0  0  0  0  0  0  0  0
  -13.2202  -36.9611  -10.8232 C   0  0  0  0  0  0  0  0  0  0  0  0
  2  1  1  6
  2  3  1  0
  3  4  1  0
  4  5  1  0
  5  6  1  0
  6  7  1  0
  7  8  1  0
  8  9  1  0
  9 10  1  0
 10 11  1  0
 11 12  2  0
 11 13  1  0
 13 14  1  0
 13 15  1  0
 15 16  1  6
 15 17  1  0
 17 18  2  0
 17 19  1  0
 19 20  1  0
 20 21  1  1
 20 22  1  0
 22 23  1  6
 22 24  1  0
 24 25  1  0
 25 26  1  0
 26 27  1  0
 27 28  2  0
 28 29  1  0
 29 30  2  0
 30 31  1  0
 31 32  1  0
 31 33  2  0
 21  2  1  0
 33 27  1  0
M  END
$$$$
