
     RDKit          3D

 33 34  0  0  0  0  0  0  0  0999 V2000
  -13.2856  -38.1083   -8.4834 C   0  0  0  0  0  0  0  0  0  0  0  0
  -13.9143  -38.1281   -9.8380 C   0  0  2  0  0  0  0  0  0  0  0  0
  -13.5930  -36.7866  -10.4937 C   0  0  0  0  0  0  0  0  0  0  0  0
  -13.0541  -36.9506  -11.8789 C   0  0  0  0  0  0  0  0  0  0  0  0
  -11.7680  -37.7198  -11.8891 C   0  0  0  0  0  0  0  0  0  0  0  0
  -11.6729  -38.6061  -13.1102 C   0  0  0  0  0  0  0  0  0  0  0  0
  -11.9136  -40.0602  -12.7589 C   0  0  0  0  0  0  0  0  0  0  0  0
  -13.3478  -40.3692  -13.0985 C   0  0  0  0  0  0  0  0  0  0  0  0
  -13.6770  -41.6941  -12.9646 O   0  0  0  0  0  0  0  0  0  0  0  0
  -13.8822  -42.1164  -11.6606 C   0  0  0  0  0  0  0  0  0  0  0  0
  -14.8312  -43.2377  -11.6661 C   0  0  0  0  0  0  0  0  0  0  0  0
  -14.8695  -43.9349  -12.7443 O   0  0  0  0  0  0  0  0  0  0  0  0
  -15.6971  -43.6241  -10.6185 N   0  0  0  0  0  0  0  0  0  0  0  0
  -15.8192  -45.0332  -10.2851 C   0  0  0  0  0  0  0  0  0  0  0  0
  -16.5073  -42.7197   -9.8157 C   0  0  1  0  0  0  0  0  0  0  0  0
  -16.1345  -42.7510   -8.3738 C   0  0  0  0  0  0  0  0  0  0  0  0
  -16.7050  -41.4074  -10.4208 C   0  0  0  0  0  0  0  0  0  0  0  0
  -16.7444  -41.4354  -11.7112 O   0  0  0  0  0  0  0  0  0  0  0  0
  -16.8584  -40.1457   -9.8341 N   0  0  0  0  0  0  0  0  0  0  0  0
  -15.9432  -39.3996   -9.0041 C   0  0  1  0  0  0  0  0  0  0  0  0
  -15.3877  -38.2841   -9.8774 C   0  0  0  0  0  0  0  0  0  0  0  0
  -16.7619  -38.7489   -7.8753 C   0  0  2  0  0  0  0  0  0  0  0  0
  -16.0378  -38.8670   -6.7065 O   0  0  0  0  0  0  0  0  0  0  0  0
  -18.1285  -39.3849   -7.7716 C   0  0  0  0  0  0  0  0  0  0  0  0
  -19.1872  -38.5118   -8.1466 N   0  0  0  0  0  0  0  0  0  0  0  0
  -20.1025  -38.1662   -7.0885 C   0  0  0  0  0  0  0  0  0  0  0  0
  -21.1551  -39.1947   -6.8984 C   0  0  0  0  0  0  0  0  0  0  0  0
  -21.9739  -39.6697   -7.8968 C   0  0  0  0  0  0  0  0  0  0  0  0
  -22.8944  -40.6093   -7.6058 N   0  0  0  0  0  0  0  0  0  0  0  0
  -23.0550  -41.1179   -6.3535 C   0  0  0  0  0  0  0  0  0  0  0  0
  -22.2488  -40.6650   -5.3191 C   0  0  0  0  0  0  0  0  0  0  0  0
  -22.4590  -41.3690   -3.5525 Br  0  0  0  0  0  0  0  0  0  0  0  0
  -21.3186  -39.7110   -5.6286 C   0  0  0  0  0  0  0  0  0  0  0  0
  2  1  1  1
  2  3  1  0
  3  4  1  0
  4  5  1  0
  5  6  1  0
  6  7  1  0
  7  8  1  0
  8  9  1  0
  9 10  1  0
 10 11  1  0
 11 12  2  0
 11 13  1  0
 13 14  1  0
 13 15  1  0
 15 16  1  1
 15 17  1  0
 17 18  2  0
 17 19  1  0
 19 20  1  0
 20 21  1  6
 20 22  1  0
 22 23  1  1
 22 24  1  0
 24 25  1  0
 25 26  1  0
 26 27  1  0
 27 28  2  0
 28 29  1  0
 29 30  2  0
 30 31  1  0
 31 32  1  0
 31 33  2  0
 21  2  1  0
 33 27  1  0
M  END
$$$$
