
     RDKit          3D

 33 34  0  0  0  0  0  0  0  0999 V2000
  -14.8333  -36.8108   -9.1393 C   0  0  0  0  0  0  0  0  0  0  0  0
  -16.0238  -37.2109   -9.9474 C   0  0  2  0  0  0  0  0  0  0  0  0
  -16.6640  -35.9219  -10.4589 C   0  0  0  0  0  0  0  0  0  0  0  0
  -16.9438  -35.9751  -11.9269 C   0  0  0  0  0  0  0  0  0  0  0  0
  -15.6886  -36.1442  -12.7278 C   0  0  0  0  0  0  0  0  0  0  0  0
  -15.9275  -37.0201  -13.9367 C   0  0  0  0  0  0  0  0  0  0  0  0
  -15.3472  -38.4058  -13.7397 C   0  0  0  0  0  0  0  0  0  0  0  0
  -16.4781  -39.3071  -13.3199 C   0  0  0  0  0  0  0  0  0  0  0  0
  -16.1315  -40.6319  -13.2388 O   0  0  0  0  0  0  0  0  0  0  0  0
  -15.4164  -40.9805  -12.1039 C   0  0  0  0  0  0  0  0  0  0  0  0
  -15.6869  -42.3883  -11.7834 C   0  0  0  0  0  0  0  0  0  0  0  0
  -16.0226  -43.1346  -12.7737 O   0  0  0  0  0  0  0  0  0  0  0  0
  -15.6166  -42.9997  -10.5115 N   0  0  0  0  0  0  0  0  0  0  0  0
  -14.9751  -44.2974  -10.3848 C   0  0  0  0  0  0  0  0  0  0  0  0
  -16.1432  -42.4397   -9.2753 C   0  0  1  0  0  0  0  0  0  0  0  0
  -15.0764  -42.1833   -8.2677 C   0  0  0  0  0  0  0  0  0  0  0  0
  -17.1315  -41.3862   -9.4768 C   0  0  0  0  0  0  0  0  0  0  0  0
  -17.8449  -41.5453  -10.5413 O   0  0  0  0  0  0  0  0  0  0  0  0
  -17.4251  -40.2517   -8.7110 N   0  0  0  0  0  0  0  0  0  0  0  0
  -16.5884  -39.1228   -8.3809 C   0  0  1  0  0  0  0  0  0  0  0  0
  -17.0824  -37.9623   -9.2321 C   0  0  0  0  0  0  0  0  0  0  0  0
  -16.8462  -38.7668   -6.9062 C   0  0  2  0  0  0  0  0  0  0  0  0
  -15.6856  -39.0162   -6.2026 O   0  0  0  0  0  0  0  0  0  0  0  0
  -18.0239  -39.5446   -6.3669 C   0  0  0  0  0  0  0  0  0  0  0  0
  -18.5375  -39.0188   -5.1488 N   0  0  0  0  0  0  0  0  0  0  0  0
  -19.3672  -39.9215   -4.3915 C   0  0  0  0  0  0  0  0  0  0  0  0
  -20.6923  -40.1317   -5.0253 C   0  0  0  0  0  0  0  0  0  0  0  0
  -21.4277  -41.2910   -4.9343 C   0  0  0  0  0  0  0  0  0  0  0  0
  -22.6232  -41.3654   -5.5509 N   0  0  0  0  0  0  0  0  0  0  0  0
  -23.1450  -40.3340   -6.2697 C   0  0  0  0  0  0  0  0  0  0  0  0
  -22.4343  -39.1480   -6.3853 C   0  0  0  0  0  0  0  0  0  0  0  0
  -23.1523  -37.6868   -7.3904 Br  0  0  0  0  0  0  0  0  0  0  0  0
  -21.2222  -39.0862   -5.7544 C   0  0  0  0  0  0  0  0  0  0  0  0
  2  1  1  1
  2  3  1  0
  3  4  1  0
  4  5  1  0
  5  6  1  0
  6  7  1  0
  7  8  1  0
  8  9  1  0
  9 10  1  0
 10 11  1  0
 11 12  2  0
 11 13  1  0
 13 14  1  0
 13 15  1  0
 15 16  1  1
 15 17  1  0
 17 18  2  0
 17 19  1  0
 19 20  1  0
 20 21  1  6
 20 22  1  0
 22 23  1  1
 22 24  1  0
 24 25  1  0
 25 26  1  0
 26 27  1  0
 27 28  2  0
 28 29  1  0
 29 30  2  0
 30 31  1  0
 31 32  1  0
 31 33  2  0
 21  2  1  0
 33 27  1  0
M  END
$$$$
