
     RDKit          3D

 33 34  0  0  0  0  0  0  0  0999 V2000
  -19.8410  -38.4966   -8.1037 C   0  0  0  0  0  0  0  0  0  0  0  0
  -19.9268  -39.2880   -6.8400 C   0  0  2  0  0  0  0  0  0  0  0  0
  -20.4450  -38.3405   -5.7599 C   0  0  0  0  0  0  0  0  0  0  0  0
  -21.5811  -38.9324   -4.9884 C   0  0  0  0  0  0  0  0  0  0  0  0
  -22.7603  -39.2221   -5.8667 C   0  0  0  0  0  0  0  0  0  0  0  0
  -23.4678  -40.4847   -5.4299 C   0  0  0  0  0  0  0  0  0  0  0  0
  -23.1700  -41.6383   -6.3661 C   0  0  0  0  0  0  0  0  0  0  0  0
  -22.0844  -42.4626   -5.7262 C   0  0  0  0  0  0  0  0  0  0  0  0
  -21.8040  -43.6269   -6.3952 O   0  0  0  0  0  0  0  0  0  0  0  0
  -21.0321  -43.4740   -7.5362 C   0  0  0  0  0  0  0  0  0  0  0  0
  -20.2606  -44.7041   -7.7585 C   0  0  0  0  0  0  0  0  0  0  0  0
  -20.7731  -45.7815   -7.2822 O   0  0  0  0  0  0  0  0  0  0  0  0
  -19.0260  -44.8231   -8.4352 N   0  0  0  0  0  0  0  0  0  0  0  0
  -18.8386  -45.9121   -9.3789 C   0  0  0  0  0  0  0  0  0  0  0  0
  -17.8850  -43.9339   -8.2727 C   0  0  1  0  0  0  0  0  0  0  0  0
  -17.5355  -43.2214   -9.5333 C   0  0  0  0  0  0  0  0  0  0  0  0
  -17.9241  -43.1385   -7.0508 C   0  0  0  0  0  0  0  0  0  0  0  0
  -18.4989  -43.7392   -6.0627 O   0  0  0  0  0  0  0  0  0  0  0  0
  -17.4435  -41.8510   -6.7843 N   0  0  0  0  0  0  0  0  0  0  0  0
  -17.8174  -40.5887   -7.3759 C   0  0  1  0  0  0  0  0  0  0  0  0
  -18.6567  -39.8617   -6.3354 C   0  0  0  0  0  0  0  0  0  0  0  0
  -16.5292  -39.7751   -7.5919 C   0  0  2  0  0  0  0  0  0  0  0  0
  -16.8303  -38.7230   -8.4325 O   0  0  0  0  0  0  0  0  0  0  0  0
  -15.4289  -40.6530   -8.1410 C   0  0  0  0  0  0  0  0  0  0  0  0
  -14.6461  -40.0160   -9.1438 N   0  0  0  0  0  0  0  0  0  0  0  0
  -14.1059  -40.8936  -10.1512 C   0  0  0  0  0  0  0  0  0  0  0  0
  -12.8964  -41.6124   -9.6797 C   0  0  0  0  0  0  0  0  0  0  0  0
  -12.9022  -42.8688   -9.1188 C   0  0  0  0  0  0  0  0  0  0  0  0
  -11.7381  -43.4242   -8.7298 N   0  0  0  0  0  0  0  0  0  0  0  0
  -10.5403  -42.7927   -8.8671 C   0  0  0  0  0  0  0  0  0  0  0  0
  -10.4921  -41.5247   -9.4282 C   0  0  0  0  0  0  0  0  0  0  0  0
   -8.8173  -40.6218   -9.6305 Br  0  0  0  0  0  0  0  0  0  0  0  0
  -11.6811  -40.9727   -9.8186 C   0  0  0  0  0  0  0  0  0  0  0  0
  2  1  1  6
  2  3  1  0
  3  4  1  0
  4  5  1  0
  5  6  1  0
  6  7  1  0
  7  8  1  0
  8  9  1  0
  9 10  1  0
 10 11  1  0
 11 12  2  0
 11 13  1  0
 13 14  1  0
 13 15  1  0
 15 16  1  6
 15 17  1  0
 17 18  2  0
 17 19  1  0
 19 20  1  0
 20 21  1  1
 20 22  1  0
 22 23  1  6
 22 24  1  0
 24 25  1  0
 25 26  1  0
 26 27  1  0
 27 28  2  0
 28 29  1  0
 29 30  2  0
 30 31  1  0
 31 32  1  0
 31 33  2  0
 21  2  1  0
 33 27  1  0
M  END
$$$$
