
     RDKit          3D

 33 34  0  0  0  0  0  0  0  0999 V2000
  -20.1544  -38.4784   -8.3425 C   0  0  0  0  0  0  0  0  0  0  0  0
  -20.0543  -39.1649   -7.0199 C   0  0  2  0  0  0  0  0  0  0  0  0
  -20.6647  -38.2216   -5.9853 C   0  0  0  0  0  0  0  0  0  0  0  0
  -21.6551  -38.9148   -5.1052 C   0  0  0  0  0  0  0  0  0  0  0  0
  -22.8135  -39.4553   -5.8874 C   0  0  0  0  0  0  0  0  0  0  0  0
  -23.2908  -40.7708   -5.3154 C   0  0  0  0  0  0  0  0  0  0  0  0
  -22.8583  -41.9390   -6.1780 C   0  0  0  0  0  0  0  0  0  0  0  0
  -21.6269  -42.5296   -5.5436 C   0  0  0  0  0  0  0  0  0  0  0  0
  -21.1973  -43.6886   -6.1385 O   0  0  0  0  0  0  0  0  0  0  0  0
  -20.5139  -43.5147   -7.3317 C   0  0  0  0  0  0  0  0  0  0  0  0
  -19.5686  -44.6254   -7.5062 C   0  0  0  0  0  0  0  0  0  0  0  0
  -19.8810  -45.7252   -6.9204 O   0  0  0  0  0  0  0  0  0  0  0  0
  -18.3639  -44.6089   -8.2443 N   0  0  0  0  0  0  0  0  0  0  0  0
  -18.0509  -45.7311   -9.1128 C   0  0  0  0  0  0  0  0  0  0  0  0
  -17.3718  -43.5440   -8.2174 C   0  0  1  0  0  0  0  0  0  0  0  0
  -17.1992  -42.8942   -9.5468 C   0  0  0  0  0  0  0  0  0  0  0  0
  -17.4790  -42.6646   -7.0588 C   0  0  0  0  0  0  0  0  0  0  0  0
  -17.9043  -43.2618   -5.9958 O   0  0  0  0  0  0  0  0  0  0  0  0
  -17.1965  -41.3007   -6.9191 N   0  0  0  0  0  0  0  0  0  0  0  0
  -17.7930  -40.1651   -7.5809 C   0  0  1  0  0  0  0  0  0  0  0  0
  -18.6870  -39.4917   -6.5500 C   0  0  0  0  0  0  0  0  0  0  0  0
  -16.6615  -39.1837   -7.9339 C   0  0  2  0  0  0  0  0  0  0  0  0
  -17.1258  -38.3429   -8.9248 O   0  0  0  0  0  0  0  0  0  0  0  0
  -15.4166  -39.9314   -8.3510 C   0  0  0  0  0  0  0  0  0  0  0  0
  -14.2459  -39.1231   -8.3503 N   0  0  0  0  0  0  0  0  0  0  0  0
  -13.1602  -39.6137   -9.1612 C   0  0  0  0  0  0  0  0  0  0  0  0
  -13.0475  -38.8852  -10.4489 C   0  0  0  0  0  0  0  0  0  0  0  0
  -12.1838  -39.2226  -11.4654 C   0  0  0  0  0  0  0  0  0  0  0  0
  -12.1721  -38.4874  -12.5942 N   0  0  0  0  0  0  0  0  0  0  0  0
  -12.9853  -37.4117  -12.7792 C   0  0  0  0  0  0  0  0  0  0  0  0
  -13.8706  -37.0391  -11.7780 C   0  0  0  0  0  0  0  0  0  0  0  0
  -15.0224  -35.5306  -12.0204 Br  0  0  0  0  0  0  0  0  0  0  0  0
  -13.8719  -37.7942  -10.6374 C   0  0  0  0  0  0  0  0  0  0  0  0
  2  1  1  6
  2  3  1  0
  3  4  1  0
  4  5  1  0
  5  6  1  0
  6  7  1  0
  7  8  1  0
  8  9  1  0
  9 10  1  0
 10 11  1  0
 11 12  2  0
 11 13  1  0
 13 14  1  0
 13 15  1  0
 15 16  1  6
 15 17  1  0
 17 18  2  0
 17 19  1  0
 19 20  1  0
 20 21  1  1
 20 22  1  0
 22 23  1  6
 22 24  1  0
 24 25  1  0
 25 26  1  0
 26 27  1  0
 27 28  2  0
 28 29  1  0
 29 30  2  0
 30 31  1  0
 31 32  1  0
 31 33  2  0
 21  2  1  0
 33 27  1  0
M  END
$$$$
