
     RDKit          3D

 33 34  0  0  0  0  0  0  0  0999 V2000
  -19.8828  -38.4784   -8.1822 C   0  0  0  0  0  0  0  0  0  0  0  0
  -19.8697  -39.3592   -6.9761 C   0  0  2  0  0  0  0  0  0  0  0  0
  -20.5971  -38.6010   -5.8675 C   0  0  0  0  0  0  0  0  0  0  0  0
  -21.6328  -39.4435   -5.1940 C   0  0  0  0  0  0  0  0  0  0  0  0
  -22.7021  -39.8813   -6.1483 C   0  0  0  0  0  0  0  0  0  0  0  0
  -23.1792  -41.2796   -5.8278 C   0  0  0  0  0  0  0  0  0  0  0  0
  -22.6355  -42.2904   -6.8170 C   0  0  0  0  0  0  0  0  0  0  0  0
  -21.4415  -42.9453   -6.1743 C   0  0  0  0  0  0  0  0  0  0  0  0
  -20.9235  -43.9886   -6.8988 O   0  0  0  0  0  0  0  0  0  0  0  0
  -20.1492  -43.6171   -7.9867 C   0  0  0  0  0  0  0  0  0  0  0  0
  -19.1544  -44.6666   -8.2447 C   0  0  0  0  0  0  0  0  0  0  0  0
  -19.4759  -45.8504   -7.8632 O   0  0  0  0  0  0  0  0  0  0  0  0
  -17.8935  -44.5098   -8.8628 N   0  0  0  0  0  0  0  0  0  0  0  0
  -17.4699  -45.4768   -9.8613 C   0  0  0  0  0  0  0  0  0  0  0  0
  -16.9449  -43.4406   -8.5867 C   0  0  1  0  0  0  0  0  0  0  0  0
  -16.6847  -42.5892   -9.7810 C   0  0  0  0  0  0  0  0  0  0  0  0
  -17.1793  -42.7539   -7.3215 C   0  0  0  0  0  0  0  0  0  0  0  0
  -17.6709  -43.5177   -6.4036 O   0  0  0  0  0  0  0  0  0  0  0  0
  -16.9573  -41.4223   -6.9511 N   0  0  0  0  0  0  0  0  0  0  0  0
  -17.5358  -40.2111   -7.4819 C   0  0  1  0  0  0  0  0  0  0  0  0
  -18.5359  -39.7251   -6.4431 C   0  0  0  0  0  0  0  0  0  0  0  0
  -16.4138  -39.1625   -7.5802 C   0  0  2  0  0  0  0  0  0  0  0  0
  -16.9731  -37.9877   -8.0398 O   0  0  0  0  0  0  0  0  0  0  0  0
  -15.2985  -39.6558   -8.4721 C   0  0  0  0  0  0  0  0  0  0  0  0
  -14.2417  -38.7159   -8.6265 N   0  0  0  0  0  0  0  0  0  0  0  0
  -13.1836  -39.1218   -9.5167 C   0  0  0  0  0  0  0  0  0  0  0  0
  -13.2477  -38.4194  -10.8222 C   0  0  0  0  0  0  0  0  0  0  0  0
  -12.5085  -38.7609  -11.9312 C   0  0  0  0  0  0  0  0  0  0  0  0
  -12.6534  -38.0503  -13.0665 N   0  0  0  0  0  0  0  0  0  0  0  0
  -13.5079  -36.9960  -13.1698 C   0  0  0  0  0  0  0  0  0  0  0  0
  -14.2712  -36.6200  -12.0738 C   0  0  0  0  0  0  0  0  0  0  0  0
  -15.4788  -35.1413  -12.2003 Br  0  0  0  0  0  0  0  0  0  0  0  0
  -14.1142  -37.3500  -10.9277 C   0  0  0  0  0  0  0  0  0  0  0  0
  2  1  1  6
  2  3  1  0
  3  4  1  0
  4  5  1  0
  5  6  1  0
  6  7  1  0
  7  8  1  0
  8  9  1  0
  9 10  1  0
 10 11  1  0
 11 12  2  0
 11 13  1  0
 13 14  1  0
 13 15  1  0
 15 16  1  6
 15 17  1  0
 17 18  2  0
 17 19  1  0
 19 20  1  0
 20 21  1  1
 20 22  1  0
 22 23  1  6
 22 24  1  0
 24 25  1  0
 25 26  1  0
 26 27  1  0
 27 28  2  0
 28 29  1  0
 29 30  2  0
 30 31  1  0
 31 32  1  0
 31 33  2  0
 21  2  1  0
 33 27  1  0
M  END
$$$$
