
     RDKit          3D

 33 34  0  0  0  0  0  0  0  0999 V2000
  -13.3598  -40.6890   -8.0405 C   0  0  0  0  0  0  0  0  0  0  0  0
  -13.6370  -41.3122   -9.3692 C   0  0  2  0  0  0  0  0  0  0  0  0
  -12.3984  -41.0808  -10.2325 C   0  0  0  0  0  0  0  0  0  0  0  0
  -11.9343  -42.3356  -10.9005 C   0  0  0  0  0  0  0  0  0  0  0  0
  -11.5386  -43.3835   -9.9049 C   0  0  0  0  0  0  0  0  0  0  0  0
  -11.9092  -44.7657  -10.3924 C   0  0  0  0  0  0  0  0  0  0  0  0
  -13.1252  -45.3019   -9.6647 C   0  0  0  0  0  0  0  0  0  0  0  0
  -14.3167  -45.0679  -10.5554 C   0  0  0  0  0  0  0  0  0  0  0  0
  -15.4777  -45.6298  -10.0887 O   0  0  0  0  0  0  0  0  0  0  0  0
  -16.0932  -44.9318   -9.0615 C   0  0  0  0  0  0  0  0  0  0  0  0
  -17.5394  -45.1846   -9.1127 C   0  0  0  0  0  0  0  0  0  0  0  0
  -17.8956  -46.2989   -9.6436 O   0  0  0  0  0  0  0  0  0  0  0  0
  -18.5680  -44.3374   -8.6430 N   0  0  0  0  0  0  0  0  0  0  0  0
  -19.6658  -44.9115   -7.8836 C   0  0  0  0  0  0  0  0  0  0  0  0
  -18.6393  -42.8989   -8.8541 C   0  0  1  0  0  0  0  0  0  0  0  0
  -18.5924  -42.1340   -7.5767 C   0  0  0  0  0  0  0  0  0  0  0  0
  -17.7993  -42.4187   -9.9454 C   0  0  0  0  0  0  0  0  0  0  0  0
  -17.6690  -43.2691  -10.9084 O   0  0  0  0  0  0  0  0  0  0  0  0
  -17.1263  -41.2026  -10.1119 N   0  0  0  0  0  0  0  0  0  0  0  0
  -16.0746  -40.6167   -9.3157 C   0  0  1  0  0  0  0  0  0  0  0  0
  -14.7932  -40.7703  -10.1218 C   0  0  0  0  0  0  0  0  0  0  0  0
  -16.3706  -39.1121   -9.1864 C   0  0  2  0  0  0  0  0  0  0  0  0
  -15.4443  -38.5728   -8.3173 O   0  0  0  0  0  0  0  0  0  0  0  0
  -17.7915  -38.8850   -8.7257 C   0  0  0  0  0  0  0  0  0  0  0  0
  -18.1152  -37.5108   -8.5505 N   0  0  0  0  0  0  0  0  0  0  0  0
  -18.0824  -36.7140   -9.7509 C   0  0  0  0  0  0  0  0  0  0  0  0
  -19.1895  -37.0516  -10.6793 C   0  0  0  0  0  0  0  0  0  0  0  0
  -20.0808  -38.0827  -10.4916 C   0  0  0  0  0  0  0  0  0  0  0  0
  -21.0503  -38.2927  -11.4032 N   0  0  0  0  0  0  0  0  0  0  0  0
  -21.1916  -37.5225  -12.5165 C   0  0  0  0  0  0  0  0  0  0  0  0
  -20.3129  -36.4727  -12.7421 C   0  0  0  0  0  0  0  0  0  0  0  0
  -20.4966  -35.3783  -14.3008 Br  0  0  0  0  0  0  0  0  0  0  0  0
  -19.3335  -36.2709  -11.8087 C   0  0  0  0  0  0  0  0  0  0  0  0
  2  1  1  1
  2  3  1  0
  3  4  1  0
  4  5  1  0
  5  6  1  0
  6  7  1  0
  7  8  1  0
  8  9  1  0
  9 10  1  0
 10 11  1  0
 11 12  2  0
 11 13  1  0
 13 14  1  0
 13 15  1  0
 15 16  1  1
 15 17  1  0
 17 18  2  0
 17 19  1  0
 19 20  1  0
 20 21  1  6
 20 22  1  0
 22 23  1  1
 22 24  1  0
 24 25  1  0
 25 26  1  0
 26 27  1  0
 27 28  2  0
 28 29  1  0
 29 30  2  0
 30 31  1  0
 31 32  1  0
 31 33  2  0
 21  2  1  0
 33 27  1  0
M  END
$$$$
