
     RDKit          3D

 33 34  0  0  0  0  0  0  0  0999 V2000
  -20.5961  -38.0550   -7.9108 C   0  0  0  0  0  0  0  0  0  0  0  0
  -20.3235  -39.1739   -6.9599 C   0  0  2  0  0  0  0  0  0  0  0  0
  -20.5660  -38.6279   -5.5542 C   0  0  0  0  0  0  0  0  0  0  0  0
  -21.4414  -39.5286   -4.7426 C   0  0  0  0  0  0  0  0  0  0  0  0
  -22.8014  -39.6821   -5.3530 C   0  0  0  0  0  0  0  0  0  0  0  0
  -23.3325  -41.0837   -5.1549 C   0  0  0  0  0  0  0  0  0  0  0  0
  -23.2587  -41.8899   -6.4356 C   0  0  0  0  0  0  0  0  0  0  0  0
  -22.0197  -42.7420   -6.3551 C   0  0  0  0  0  0  0  0  0  0  0  0
  -21.8921  -43.6353   -7.3883 O   0  0  0  0  0  0  0  0  0  0  0  0
  -21.4525  -43.0879   -8.5833 C   0  0  0  0  0  0  0  0  0  0  0  0
  -20.7318  -44.1179   -9.3433 C   0  0  0  0  0  0  0  0  0  0  0  0
  -21.0697  -45.3333   -9.1007 O   0  0  0  0  0  0  0  0  0  0  0  0
  -19.7160  -43.9116  -10.3035 N   0  0  0  0  0  0  0  0  0  0  0  0
  -19.7525  -44.6656  -11.5451 C   0  0  0  0  0  0  0  0  0  0  0  0
  -18.5984  -42.9891  -10.1654 C   0  0  1  0  0  0  0  0  0  0  0  0
  -18.6138  -41.9186  -11.2011 C   0  0  0  0  0  0  0  0  0  0  0  0
  -18.3373  -42.5776   -8.7907 C   0  0  0  0  0  0  0  0  0  0  0  0
  -18.6143  -43.4885   -7.9184 O   0  0  0  0  0  0  0  0  0  0  0  0
  -17.8407  -41.3737   -8.2772 N   0  0  0  0  0  0  0  0  0  0  0  0
  -18.3932  -40.0426   -8.3555 C   0  0  1  0  0  0  0  0  0  0  0  0
  -18.9494  -39.7296   -6.9742 C   0  0  0  0  0  0  0  0  0  0  0  0
  -17.2312  -39.0705   -8.6252 C   0  0  2  0  0  0  0  0  0  0  0  0
  -17.7430  -37.9749   -9.2899 O   0  0  0  0  0  0  0  0  0  0  0  0
  -16.1326  -39.7545   -9.4050 C   0  0  0  0  0  0  0  0  0  0  0  0
  -15.4311  -40.7352   -8.6500 N   0  0  0  0  0  0  0  0  0  0  0  0
  -14.0679  -40.9650   -9.0573 C   0  0  0  0  0  0  0  0  0  0  0  0
  -13.3723  -41.9306   -8.1711 C   0  0  0  0  0  0  0  0  0  0  0  0
  -12.0328  -41.8823   -7.8604 C   0  0  0  0  0  0  0  0  0  0  0  0
  -11.5108  -42.8141   -7.0393 N   0  0  0  0  0  0  0  0  0  0  0  0
  -12.2558  -43.8149   -6.4954 C   0  0  0  0  0  0  0  0  0  0  0  0
  -13.6103  -43.8982   -6.7841 C   0  0  0  0  0  0  0  0  0  0  0  0
  -14.6741  -45.2973   -6.0278 Br  0  0  0  0  0  0  0  0  0  0  0  0
  -14.1272  -42.9459   -7.6190 C   0  0  0  0  0  0  0  0  0  0  0  0
  2  1  1  6
  2  3  1  0
  3  4  1  0
  4  5  1  0
  5  6  1  0
  6  7  1  0
  7  8  1  0
  8  9  1  0
  9 10  1  0
 10 11  1  0
 11 12  2  0
 11 13  1  0
 13 14  1  0
 13 15  1  0
 15 16  1  6
 15 17  1  0
 17 18  2  0
 17 19  1  0
 19 20  1  0
 20 21  1  1
 20 22  1  0
 22 23  1  6
 22 24  1  0
 24 25  1  0
 25 26  1  0
 26 27  1  0
 27 28  2  0
 28 29  1  0
 29 30  2  0
 30 31  1  0
 31 32  1  0
 31 33  2  0
 21  2  1  0
 33 27  1  0
M  END
$$$$
