
     RDKit          3D

 33 34  0  0  0  0  0  0  0  0999 V2000
  -18.2158  -37.6128   -6.3764 C   0  0  0  0  0  0  0  0  0  0  0  0
  -18.7934  -38.3361   -7.5485 C   0  0  2  0  0  0  0  0  0  0  0  0
  -20.1103  -38.9530   -7.0817 C   0  0  0  0  0  0  0  0  0  0  0  0
  -21.2350  -38.6603   -8.0227 C   0  0  0  0  0  0  0  0  0  0  0  0
  -21.4992  -37.1895   -8.1351 C   0  0  0  0  0  0  0  0  0  0  0  0
  -21.9023  -36.8143   -9.5431 C   0  0  0  0  0  0  0  0  0  0  0  0
  -20.7724  -36.1200  -10.2760 C   0  0  0  0  0  0  0  0  0  0  0  0
  -20.0975  -37.1547  -11.1371 C   0  0  0  0  0  0  0  0  0  0  0  0
  -19.1367  -36.6419  -11.9711 O   0  0  0  0  0  0  0  0  0  0  0  0
  -17.9289  -36.3458  -11.3591 C   0  0  0  0  0  0  0  0  0  0  0  0
  -16.8498  -36.4710  -12.3479 C   0  0  0  0  0  0  0  0  0  0  0  0
  -17.1878  -36.2868  -13.5735 O   0  0  0  0  0  0  0  0  0  0  0  0
  -15.4927  -36.7701  -12.0924 N   0  0  0  0  0  0  0  0  0  0  0  0
  -14.4600  -36.0090  -12.7749 C   0  0  0  0  0  0  0  0  0  0  0  0
  -15.0118  -37.8013  -11.1845 C   0  0  1  0  0  0  0  0  0  0  0  0
  -14.2163  -37.2399  -10.0571 C   0  0  0  0  0  0  0  0  0  0  0  0
  -16.0113  -38.8103  -10.8526 C   0  0  0  0  0  0  0  0  0  0  0  0
  -16.8455  -39.0442  -11.8100 O   0  0  0  0  0  0  0  0  0  0  0  0
  -16.2039  -39.5534   -9.6820 N   0  0  0  0  0  0  0  0  0  0  0  0
  -16.5118  -39.1022   -8.3460 C   0  0  1  0  0  0  0  0  0  0  0  0
  -17.9767  -39.4388   -8.1089 C   0  0  0  0  0  0  0  0  0  0  0  0
  -15.6727  -39.9406   -7.3656 C   0  0  2  0  0  0  0  0  0  0  0  0
  -15.0345  -39.0707   -6.5053 O   0  0  0  0  0  0  0  0  0  0  0  0
  -14.7023  -40.8246   -8.1138 C   0  0  0  0  0  0  0  0  0  0  0  0
  -14.4215  -42.0479   -7.4440 N   0  0  0  0  0  0  0  0  0  0  0  0
  -13.3567  -42.8318   -8.0171 C   0  0  0  0  0  0  0  0  0  0  0  0
  -13.7340  -43.4192   -9.3265 C   0  0  0  0  0  0  0  0  0  0  0  0
  -14.7883  -44.2811   -9.5223 C   0  0  0  0  0  0  0  0  0  0  0  0
  -15.0382  -44.7491  -10.7607 N   0  0  0  0  0  0  0  0  0  0  0  0
  -14.2865  -44.4051  -11.8420 C   0  0  0  0  0  0  0  0  0  0  0  0
  -13.2145  -43.5381  -11.6861 C   0  0  0  0  0  0  0  0  0  0  0  0
  -12.1473  -43.0421  -13.1947 Br  0  0  0  0  0  0  0  0  0  0  0  0
  -12.9722  -43.0707  -10.4237 C   0  0  0  0  0  0  0  0  0  0  0  0
  2  1  1  1
  2  3  1  0
  3  4  1  0
  4  5  1  0
  5  6  1  0
  6  7  1  0
  7  8  1  0
  8  9  1  0
  9 10  1  0
 10 11  1  0
 11 12  2  0
 11 13  1  0
 13 14  1  0
 13 15  1  0
 15 16  1  1
 15 17  1  0
 17 18  2  0
 17 19  1  0
 19 20  1  0
 20 21  1  1
 20 22  1  0
 22 23  1  1
 22 24  1  0
 24 25  1  0
 25 26  1  0
 26 27  1  0
 27 28  2  0
 28 29  1  0
 29 30  2  0
 30 31  1  0
 31 32  1  0
 31 33  2  0
 21  2  1  0
 33 27  1  0
M  END
$$$$
