
     RDKit          3D

 33 34  0  0  0  0  0  0  0  0999 V2000
  -13.7796  -38.5417   -8.3040 C   0  0  0  0  0  0  0  0  0  0  0  0
  -14.2230  -38.6861   -9.7228 C   0  0  2  0  0  0  0  0  0  0  0  0
  -13.8250  -37.3994  -10.4432 C   0  0  0  0  0  0  0  0  0  0  0  0
  -13.1064  -37.6707  -11.7262 C   0  0  0  0  0  0  0  0  0  0  0  0
  -11.8261  -38.4162  -11.5011 C   0  0  0  0  0  0  0  0  0  0  0  0
  -11.5652  -39.4006  -12.6184 C   0  0  0  0  0  0  0  0  0  0  0  0
  -11.8425  -40.8238  -12.1785 C   0  0  0  0  0  0  0  0  0  0  0  0
  -13.2172  -41.1843  -12.6761 C   0  0  0  0  0  0  0  0  0  0  0  0
  -13.5541  -42.4985  -12.4735 O   0  0  0  0  0  0  0  0  0  0  0  0
  -13.9280  -42.8128  -11.1764 C   0  0  0  0  0  0  0  0  0  0  0  0
  -14.8618  -43.9462  -11.2106 C   0  0  0  0  0  0  0  0  0  0  0  0
  -14.7530  -44.7324  -12.2207 O   0  0  0  0  0  0  0  0  0  0  0  0
  -15.8568  -44.2575  -10.2568 N   0  0  0  0  0  0  0  0  0  0  0  0
  -16.0143  -45.6353   -9.8228 C   0  0  0  0  0  0  0  0  0  0  0  0
  -16.7711  -43.3022   -9.6481 C   0  0  1  0  0  0  0  0  0  0  0  0
  -16.5926  -43.2056   -8.1724 C   0  0  0  0  0  0  0  0  0  0  0  0
  -16.8940  -42.0492  -10.3843 C   0  0  0  0  0  0  0  0  0  0  0  0
  -16.7619  -42.1864  -11.6615 O   0  0  0  0  0  0  0  0  0  0  0  0
  -17.1307  -40.7452   -9.9333 N   0  0  0  0  0  0  0  0  0  0  0  0
  -16.3376  -39.9166   -9.0572 C   0  0  1  0  0  0  0  0  0  0  0  0
  -15.6774  -38.8696   -9.9422 C   0  0  0  0  0  0  0  0  0  0  0  0
  -17.3022  -39.1868   -8.1059 C   0  0  2  0  0  0  0  0  0  0  0  0
  -16.6452  -38.9889   -6.9086 O   0  0  0  0  0  0  0  0  0  0  0  0
  -18.5816  -39.9724   -7.9365 C   0  0  0  0  0  0  0  0  0  0  0  0
  -19.4848  -39.8218   -9.0253 N   0  0  0  0  0  0  0  0  0  0  0  0
  -20.6285  -38.9850   -8.7636 C   0  0  0  0  0  0  0  0  0  0  0  0
  -21.3798  -39.4211   -7.5607 C   0  0  0  0  0  0  0  0  0  0  0  0
  -21.6198  -38.6317   -6.4596 C   0  0  0  0  0  0  0  0  0  0  0  0
  -22.3191  -39.1361   -5.4245 N   0  0  0  0  0  0  0  0  0  0  0  0
  -22.8058  -40.4072   -5.4161 C   0  0  0  0  0  0  0  0  0  0  0  0
  -22.5852  -41.2349   -6.5075 C   0  0  0  0  0  0  0  0  0  0  0  0
  -23.2629  -43.0242   -6.5144 Br  0  0  0  0  0  0  0  0  0  0  0  0
  -21.8739  -40.7100   -7.5514 C   0  0  0  0  0  0  0  0  0  0  0  0
  2  1  1  1
  2  3  1  0
  3  4  1  0
  4  5  1  0
  5  6  1  0
  6  7  1  0
  7  8  1  0
  8  9  1  0
  9 10  1  0
 10 11  1  0
 11 12  2  0
 11 13  1  0
 13 14  1  0
 13 15  1  0
 15 16  1  1
 15 17  1  0
 17 18  2  0
 17 19  1  0
 19 20  1  0
 20 21  1  6
 20 22  1  0
 22 23  1  1
 22 24  1  0
 24 25  1  0
 25 26  1  0
 26 27  1  0
 27 28  2  0
 28 29  1  0
 29 30  2  0
 30 31  1  0
 31 32  1  0
 31 33  2  0
 21  2  1  0
 33 27  1  0
M  END
$$$$
