
     RDKit          3D

 33 34  0  0  0  0  0  0  0  0999 V2000
  -20.7264  -38.4170   -8.2003 C   0  0  0  0  0  0  0  0  0  0  0  0
  -20.4745  -39.1021   -6.8974 C   0  0  2  0  0  0  0  0  0  0  0  0
  -21.1153  -38.2383   -5.8129 C   0  0  0  0  0  0  0  0  0  0  0  0
  -21.9724  -39.0402   -4.8864 C   0  0  0  0  0  0  0  0  0  0  0  0
  -23.1139  -39.6914   -5.6064 C   0  0  0  0  0  0  0  0  0  0  0  0
  -23.4157  -41.0553   -5.0282 C   0  0  0  0  0  0  0  0  0  0  0  0
  -22.9177  -42.1632   -5.9340 C   0  0  0  0  0  0  0  0  0  0  0  0
  -21.5950  -42.6276   -5.3842 C   0  0  0  0  0  0  0  0  0  0  0  0
  -21.0844  -43.7293   -6.0224 O   0  0  0  0  0  0  0  0  0  0  0  0
  -20.4972  -43.4729   -7.2514 C   0  0  0  0  0  0  0  0  0  0  0  0
  -19.4538  -44.4766   -7.5002 C   0  0  0  0  0  0  0  0  0  0  0  0
  -19.6136  -45.6088   -6.9146 O   0  0  0  0  0  0  0  0  0  0  0  0
  -18.3049  -44.3265   -8.3088 N   0  0  0  0  0  0  0  0  0  0  0  0
  -17.9306  -45.4011   -9.2125 C   0  0  0  0  0  0  0  0  0  0  0  0
  -17.4292  -43.1638   -8.3242 C   0  0  1  0  0  0  0  0  0  0  0  0
  -17.4070  -42.4865   -9.6508 C   0  0  0  0  0  0  0  0  0  0  0  0
  -17.5562  -42.3119   -7.1471 C   0  0  0  0  0  0  0  0  0  0  0  0
  -17.8511  -42.9609   -6.0704 O   0  0  0  0  0  0  0  0  0  0  0  0
  -17.4092  -40.9273   -7.0025 N   0  0  0  0  0  0  0  0  0  0  0  0
  -18.1601  -39.8541   -7.6089 C   0  0  1  0  0  0  0  0  0  0  0  0
  -19.0545  -39.2884   -6.5156 C   0  0  0  0  0  0  0  0  0  0  0  0
  -17.1607  -38.7560   -8.0131 C   0  0  2  0  0  0  0  0  0  0  0  0
  -17.8700  -37.5869   -8.1979 O   0  0  0  0  0  0  0  0  0  0  0  0
  -16.3908  -39.1627   -9.2480 C   0  0  0  0  0  0  0  0  0  0  0  0
  -14.9904  -38.9365   -9.1401 N   0  0  0  0  0  0  0  0  0  0  0  0
  -14.2109  -39.3563  -10.2771 C   0  0  0  0  0  0  0  0  0  0  0  0
  -14.1461  -38.3125  -11.3297 C   0  0  0  0  0  0  0  0  0  0  0  0
  -14.7949  -38.3819  -12.5410 C   0  0  0  0  0  0  0  0  0  0  0  0
  -14.6646  -37.3690  -13.4196 N   0  0  0  0  0  0  0  0  0  0  0  0
  -13.9111  -36.2652  -13.1623 C   0  0  0  0  0  0  0  0  0  0  0  0
  -13.2412  -36.1571  -11.9521 C   0  0  0  0  0  0  0  0  0  0  0  0
  -12.1782  -34.6123  -11.5720 Br  0  0  0  0  0  0  0  0  0  0  0  0
  -13.3822  -37.1926  -11.0695 C   0  0  0  0  0  0  0  0  0  0  0  0
  2  1  1  6
  2  3  1  0
  3  4  1  0
  4  5  1  0
  5  6  1  0
  6  7  1  0
  7  8  1  0
  8  9  1  0
  9 10  1  0
 10 11  1  0
 11 12  2  0
 11 13  1  0
 13 14  1  0
 13 15  1  0
 15 16  1  6
 15 17  1  0
 17 18  2  0
 17 19  1  0
 19 20  1  0
 20 21  1  1
 20 22  1  0
 22 23  1  6
 22 24  1  0
 24 25  1  0
 25 26  1  0
 26 27  1  0
 27 28  2  0
 28 29  1  0
 29 30  2  0
 30 31  1  0
 31 32  1  0
 31 33  2  0
 21  2  1  0
 33 27  1  0
M  END
$$$$
