
     RDKit          3D

 33 34  0  0  0  0  0  0  0  0999 V2000
  -20.3717  -38.8713   -8.3071 C   0  0  0  0  0  0  0  0  0  0  0  0
  -20.2028  -39.6065   -7.0180 C   0  0  2  0  0  0  0  0  0  0  0  0
  -20.8763  -38.7632   -5.9371 C   0  0  0  0  0  0  0  0  0  0  0  0
  -21.7984  -39.5732   -5.0829 C   0  0  0  0  0  0  0  0  0  0  0  0
  -22.9177  -40.1697   -5.8811 C   0  0  0  0  0  0  0  0  0  0  0  0
  -23.2815  -41.5440   -5.3667 C   0  0  0  0  0  0  0  0  0  0  0  0
  -22.7655  -42.6333   -6.2849 C   0  0  0  0  0  0  0  0  0  0  0  0
  -21.4840  -43.1505   -5.6866 C   0  0  0  0  0  0  0  0  0  0  0  0
  -20.9690  -44.2429   -6.3369 O   0  0  0  0  0  0  0  0  0  0  0  0
  -20.3143  -43.9607   -7.5256 C   0  0  0  0  0  0  0  0  0  0  0  0
  -19.2846  -44.9824   -7.7573 C   0  0  0  0  0  0  0  0  0  0  0  0
  -19.5014  -46.1291   -7.2203 O   0  0  0  0  0  0  0  0  0  0  0  0
  -18.0930  -44.8352   -8.5021 N   0  0  0  0  0  0  0  0  0  0  0  0
  -17.6999  -45.8882   -9.4232 C   0  0  0  0  0  0  0  0  0  0  0  0
  -17.1895  -43.6959   -8.4332 C   0  0  1  0  0  0  0  0  0  0  0  0
  -17.0838  -42.9751   -9.7326 C   0  0  0  0  0  0  0  0  0  0  0  0
  -17.3550  -42.8813   -7.2349 C   0  0  0  0  0  0  0  0  0  0  0  0
  -17.7196  -43.5582   -6.1975 O   0  0  0  0  0  0  0  0  0  0  0  0
  -17.1816  -41.5066   -7.0348 N   0  0  0  0  0  0  0  0  0  0  0  0
  -17.8744  -40.3943   -7.6397 C   0  0  1  0  0  0  0  0  0  0  0  0
  -18.8089  -39.8426   -6.5730 C   0  0  0  0  0  0  0  0  0  0  0  0
  -16.8294  -39.3097   -7.9551 C   0  0  2  0  0  0  0  0  0  0  0  0
  -17.5055  -38.1767   -8.3593 O   0  0  0  0  0  0  0  0  0  0  0  0
  -15.8510  -39.7979   -8.9978 C   0  0  0  0  0  0  0  0  0  0  0  0
  -14.4966  -39.7567   -8.5642 N   0  0  0  0  0  0  0  0  0  0  0  0
  -13.5572  -40.4392   -9.4177 C   0  0  0  0  0  0  0  0  0  0  0  0
  -12.8807  -39.5145  -10.3606 C   0  0  0  0  0  0  0  0  0  0  0  0
  -11.6514  -39.7438  -10.9344 C   0  0  0  0  0  0  0  0  0  0  0  0
  -11.1366  -38.8312  -11.7812 N   0  0  0  0  0  0  0  0  0  0  0  0
  -11.7839  -37.6771  -12.1002 C   0  0  0  0  0  0  0  0  0  0  0  0
  -13.0258  -37.4088  -11.5427 C   0  0  0  0  0  0  0  0  0  0  0  0
  -13.9513  -35.7924  -11.9802 Br  0  0  0  0  0  0  0  0  0  0  0  0
  -13.5365  -38.3438  -10.6847 C   0  0  0  0  0  0  0  0  0  0  0  0
  2  1  1  6
  2  3  1  0
  3  4  1  0
  4  5  1  0
  5  6  1  0
  6  7  1  0
  7  8  1  0
  8  9  1  0
  9 10  1  0
 10 11  1  0
 11 12  2  0
 11 13  1  0
 13 14  1  0
 13 15  1  0
 15 16  1  6
 15 17  1  0
 17 18  2  0
 17 19  1  0
 19 20  1  0
 20 21  1  1
 20 22  1  0
 22 23  1  6
 22 24  1  0
 24 25  1  0
 25 26  1  0
 26 27  1  0
 27 28  2  0
 28 29  1  0
 29 30  2  0
 30 31  1  0
 31 32  1  0
 31 33  2  0
 21  2  1  0
 33 27  1  0
M  END
$$$$
