
     RDKit          3D

 33 34  0  0  0  0  0  0  0  0999 V2000
  -20.4697  -38.7060   -8.7750 C   0  0  0  0  0  0  0  0  0  0  0  0
  -20.2762  -39.2046   -7.3806 C   0  0  2  0  0  0  0  0  0  0  0  0
  -20.7385  -38.0896   -6.4446 C   0  0  0  0  0  0  0  0  0  0  0  0
  -21.6720  -38.5902   -5.3891 C   0  0  0  0  0  0  0  0  0  0  0  0
  -22.9247  -39.1631   -5.9791 C   0  0  0  0  0  0  0  0  0  0  0  0
  -23.4076  -40.3534   -5.1819 C   0  0  0  0  0  0  0  0  0  0  0  0
  -23.1165  -41.6556   -5.8999 C   0  0  0  0  0  0  0  0  0  0  0  0
  -21.8598  -42.2256   -5.2972 C   0  0  0  0  0  0  0  0  0  0  0  0
  -21.5455  -43.4809   -5.7525 O   0  0  0  0  0  0  0  0  0  0  0  0
  -20.9722  -43.5186   -7.0139 C   0  0  0  0  0  0  0  0  0  0  0  0
  -20.1025  -44.6987   -7.1074 C   0  0  0  0  0  0  0  0  0  0  0  0
  -20.4097  -45.6840   -6.3424 O   0  0  0  0  0  0  0  0  0  0  0  0
  -18.9748  -44.8600   -7.9433 N   0  0  0  0  0  0  0  0  0  0  0  0
  -18.8009  -46.1102   -8.6632 C   0  0  0  0  0  0  0  0  0  0  0  0
  -17.9347  -43.8648   -8.1593 C   0  0  1  0  0  0  0  0  0  0  0  0
  -17.8595  -43.4202   -9.5790 C   0  0  0  0  0  0  0  0  0  0  0  0
  -17.8878  -42.8264   -7.1362 C   0  0  0  0  0  0  0  0  0  0  0  0
  -18.2373  -43.2411   -5.9642 O   0  0  0  0  0  0  0  0  0  0  0  0
  -17.5279  -41.4763   -7.2220 N   0  0  0  0  0  0  0  0  0  0  0  0
  -18.1299  -40.4106   -7.9869 C   0  0  1  0  0  0  0  0  0  0  0  0
  -18.8875  -39.5454   -6.9904 C   0  0  0  0  0  0  0  0  0  0  0  0
  -16.9917  -39.5598   -8.5774 C   0  0  2  0  0  0  0  0  0  0  0  0
  -16.6881  -40.0676   -9.8240 O   0  0  0  0  0  0  0  0  0  0  0  0
  -15.7964  -39.5515   -7.6533 C   0  0  0  0  0  0  0  0  0  0  0  0
  -14.5801  -39.2086   -8.3068 N   0  0  0  0  0  0  0  0  0  0  0  0
  -14.6098  -37.9759   -9.0527 C   0  0  0  0  0  0  0  0  0  0  0  0
  -13.8959  -38.0865  -10.3488 C   0  0  0  0  0  0  0  0  0  0  0  0
  -13.6820  -37.0397  -11.2157 C   0  0  0  0  0  0  0  0  0  0  0  0
  -13.0157  -37.2596  -12.3658 N   0  0  0  0  0  0  0  0  0  0  0  0
  -12.5379  -38.4851  -12.7156 C   0  0  0  0  0  0  0  0  0  0  0  0
  -12.7329  -39.5664  -11.8684 C   0  0  0  0  0  0  0  0  0  0  0  0
  -12.0673  -41.2964  -12.3426 Br  0  0  0  0  0  0  0  0  0  0  0  0
  -13.4109  -39.3290  -10.7043 C   0  0  0  0  0  0  0  0  0  0  0  0
  2  1  1  6
  2  3  1  0
  3  4  1  0
  4  5  1  0
  5  6  1  0
  6  7  1  0
  7  8  1  0
  8  9  1  0
  9 10  1  0
 10 11  1  0
 11 12  2  0
 11 13  1  0
 13 14  1  0
 13 15  1  0
 15 16  1  6
 15 17  1  0
 17 18  2  0
 17 19  1  0
 19 20  1  0
 20 21  1  1
 20 22  1  0
 22 23  1  6
 22 24  1  0
 24 25  1  0
 25 26  1  0
 26 27  1  0
 27 28  2  0
 28 29  1  0
 29 30  2  0
 30 31  1  0
 31 32  1  0
 31 33  2  0
 21  2  1  0
 33 27  1  0
M  END
$$$$
