
     RDKit          3D

 33 34  0  0  0  0  0  0  0  0999 V2000
  -20.5019  -38.0119   -7.8242 C   0  0  0  0  0  0  0  0  0  0  0  0
  -20.4014  -38.8573   -6.5970 C   0  0  2  0  0  0  0  0  0  0  0  0
  -20.9696  -38.0318   -5.4443 C   0  0  0  0  0  0  0  0  0  0  0  0
  -21.9658  -38.8013   -4.6371 C   0  0  0  0  0  0  0  0  0  0  0  0
  -23.1505  -39.2116   -5.4580 C   0  0  0  0  0  0  0  0  0  0  0  0
  -23.6561  -40.5742   -5.0418 C   0  0  0  0  0  0  0  0  0  0  0  0
  -23.2697  -41.6392   -6.0480 C   0  0  0  0  0  0  0  0  0  0  0  0
  -22.0461  -42.3349   -5.5128 C   0  0  0  0  0  0  0  0  0  0  0  0
  -21.6583  -43.4234   -6.2522 O   0  0  0  0  0  0  0  0  0  0  0  0
  -20.9882  -43.1229   -7.4276 C   0  0  0  0  0  0  0  0  0  0  0  0
  -20.0773  -44.2283   -7.7533 C   0  0  0  0  0  0  0  0  0  0  0  0
  -20.4118  -45.3829   -7.3001 O   0  0  0  0  0  0  0  0  0  0  0  0
  -18.8838  -44.1532   -8.5058 N   0  0  0  0  0  0  0  0  0  0  0  0
  -18.6155  -45.1687   -9.5100 C   0  0  0  0  0  0  0  0  0  0  0  0
  -17.8617  -43.1260   -8.3676 C   0  0  1  0  0  0  0  0  0  0  0  0
  -17.6908  -42.3234   -9.6109 C   0  0  0  0  0  0  0  0  0  0  0  0
  -17.9268  -42.3922   -7.1088 C   0  0  0  0  0  0  0  0  0  0  0  0
  -18.3528  -43.1035   -6.1188 O   0  0  0  0  0  0  0  0  0  0  0  0
  -17.6038  -41.0634   -6.8092 N   0  0  0  0  0  0  0  0  0  0  0  0
  -18.1779  -39.8403   -7.3168 C   0  0  1  0  0  0  0  0  0  0  0  0
  -19.0371  -39.2748   -6.1955 C   0  0  0  0  0  0  0  0  0  0  0  0
  -17.0246  -38.8530   -7.5683 C   0  0  2  0  0  0  0  0  0  0  0  0
  -17.5779  -37.6228   -7.8592 O   0  0  0  0  0  0  0  0  0  0  0  0
  -16.1240  -39.3540   -8.6732 C   0  0  0  0  0  0  0  0  0  0  0  0
  -15.6656  -40.6851   -8.4678 N   0  0  0  0  0  0  0  0  0  0  0  0
  -14.2638  -40.8987   -8.7253 C   0  0  0  0  0  0  0  0  0  0  0  0
  -14.0092  -41.3333  -10.1210 C   0  0  0  0  0  0  0  0  0  0  0  0
  -13.5751  -40.5059  -11.1309 C   0  0  0  0  0  0  0  0  0  0  0  0
  -13.3743  -41.0148  -12.3620 N   0  0  0  0  0  0  0  0  0  0  0  0
  -13.5834  -42.3267  -12.6581 C   0  0  0  0  0  0  0  0  0  0  0  0
  -14.0211  -43.1937  -11.6672 C   0  0  0  0  0  0  0  0  0  0  0  0
  -14.3193  -45.0415  -12.0642 Br  0  0  0  0  0  0  0  0  0  0  0  0
  -14.2210  -42.6637  -10.4221 C   0  0  0  0  0  0  0  0  0  0  0  0
  2  1  1  6
  2  3  1  0
  3  4  1  0
  4  5  1  0
  5  6  1  0
  6  7  1  0
  7  8  1  0
  8  9  1  0
  9 10  1  0
 10 11  1  0
 11 12  2  0
 11 13  1  0
 13 14  1  0
 13 15  1  0
 15 16  1  6
 15 17  1  0
 17 18  2  0
 17 19  1  0
 19 20  1  0
 20 21  1  1
 20 22  1  0
 22 23  1  6
 22 24  1  0
 24 25  1  0
 25 26  1  0
 26 27  1  0
 27 28  2  0
 28 29  1  0
 29 30  2  0
 30 31  1  0
 31 32  1  0
 31 33  2  0
 21  2  1  0
 33 27  1  0
M  END
$$$$
