
     RDKit          3D

 33 34  0  0  0  0  0  0  0  0999 V2000
  -20.2310  -38.7060   -8.9112 C   0  0  0  0  0  0  0  0  0  0  0  0
  -20.0936  -39.2303   -7.5195 C   0  0  2  0  0  0  0  0  0  0  0  0
  -20.6470  -38.1555   -6.5859 C   0  0  0  0  0  0  0  0  0  0  0  0
  -21.6160  -38.7149   -5.5938 C   0  0  0  0  0  0  0  0  0  0  0  0
  -22.8129  -39.3190   -6.2633 C   0  0  0  0  0  0  0  0  0  0  0  0
  -23.2923  -40.5448   -5.5196 C   0  0  0  0  0  0  0  0  0  0  0  0
  -22.9143  -41.8180   -6.2490 C   0  0  0  0  0  0  0  0  0  0  0  0
  -21.6709  -42.3559   -5.5916 C   0  0  0  0  0  0  0  0  0  0  0  0
  -21.2856  -43.5876   -6.0565 O   0  0  0  0  0  0  0  0  0  0  0  0
  -20.6448  -43.5743   -7.2853 C   0  0  0  0  0  0  0  0  0  0  0  0
  -19.7274  -44.7193   -7.3573 C   0  0  0  0  0  0  0  0  0  0  0  0
  -20.0376  -45.7331   -6.6318 O   0  0  0  0  0  0  0  0  0  0  0  0
  -18.5513  -44.8194   -8.1340 N   0  0  0  0  0  0  0  0  0  0  0  0
  -18.2922  -46.0449   -8.8706 C   0  0  0  0  0  0  0  0  0  0  0  0
  -17.5395  -43.7819   -8.2715 C   0  0  1  0  0  0  0  0  0  0  0  0
  -17.4055  -43.3011   -9.6750 C   0  0  0  0  0  0  0  0  0  0  0  0
  -17.5866  -42.7672   -7.2249 C   0  0  0  0  0  0  0  0  0  0  0  0
  -17.9823  -43.2221   -6.0831 O   0  0  0  0  0  0  0  0  0  0  0  0
  -17.2739  -41.4032   -7.2617 N   0  0  0  0  0  0  0  0  0  0  0  0
  -17.8740  -40.3422   -8.0347 C   0  0  1  0  0  0  0  0  0  0  0  0
  -18.7158  -39.5293   -7.0621 C   0  0  0  0  0  0  0  0  0  0  0  0
  -16.7388  -39.4366   -8.5438 C   0  0  2  0  0  0  0  0  0  0  0  0
  -17.0658  -38.1331   -8.2303 O   0  0  0  0  0  0  0  0  0  0  0  0
  -16.5218  -39.6343  -10.0259 C   0  0  0  0  0  0  0  0  0  0  0  0
  -15.4313  -40.4970  -10.3266 N   0  0  0  0  0  0  0  0  0  0  0  0
  -14.1257  -39.8952  -10.2252 C   0  0  0  0  0  0  0  0  0  0  0  0
  -13.9269  -38.8139  -11.2217 C   0  0  0  0  0  0  0  0  0  0  0  0
  -14.8608  -38.4304  -12.1564 C   0  0  0  0  0  0  0  0  0  0  0  0
  -14.5690  -37.4301  -13.0104 N   0  0  0  0  0  0  0  0  0  0  0  0
  -13.3777  -36.7721  -12.9921 C   0  0  0  0  0  0  0  0  0  0  0  0
  -12.4095  -37.1289  -12.0645 C   0  0  0  0  0  0  0  0  0  0  0  0
  -10.7294  -36.2145  -12.0228 Br  0  0  0  0  0  0  0  0  0  0  0  0
  -12.7190  -38.1460  -11.2037 C   0  0  0  0  0  0  0  0  0  0  0  0
  2  1  1  6
  2  3  1  0
  3  4  1  0
  4  5  1  0
  5  6  1  0
  6  7  1  0
  7  8  1  0
  8  9  1  0
  9 10  1  0
 10 11  1  0
 11 12  2  0
 11 13  1  0
 13 14  1  0
 13 15  1  0
 15 16  1  6
 15 17  1  0
 17 18  2  0
 17 19  1  0
 19 20  1  0
 20 21  1  1
 20 22  1  0
 22 23  1  6
 22 24  1  0
 24 25  1  0
 25 26  1  0
 26 27  1  0
 27 28  2  0
 28 29  1  0
 29 30  2  0
 30 31  1  0
 31 32  1  0
 31 33  2  0
 21  2  1  0
 33 27  1  0
M  END
$$$$
