
     RDKit          3D

 36 38  0  0  0  0  0  0  0  0999 V2000
  -17.3990  -47.5808   -6.9234 C   0  0  0  0  0  0  0  0  0  0  0  0
  -18.7817  -47.5853   -6.9091 O   0  0  0  0  0  0  0  0  0  0  0  0
  -19.3223  -46.6156   -6.1018 C   0  0  0  0  0  0  0  0  0  0  0  0
  -19.4598  -45.3508   -6.8762 C   0  0  0  0  0  0  0  0  0  0  0  0
  -20.5620  -45.0678   -7.6313 C   0  0  0  0  0  0  0  0  0  0  0  0
  -20.7218  -43.8708   -8.3814 C   0  0  0  0  0  0  0  0  0  0  0  0
  -19.7112  -42.9378   -8.3518 C   0  0  0  0  0  0  0  0  0  0  0  0
  -18.5720  -43.1629   -7.6076 C   0  0  0  0  0  0  0  0  0  0  0  0
  -18.4951  -44.3907   -6.8852 C   0  0  0  0  0  0  0  0  0  0  0  0
  -17.3614  -42.3663   -7.3920 C   0  0  0  0  0  0  0  0  0  0  0  0
  -16.2077  -43.0178   -7.3733 O   0  0  0  0  0  0  0  0  0  0  0  0
  -17.0912  -40.9990   -7.1828 N   0  0  0  0  0  0  0  0  0  0  0  0
  -17.8946  -39.8665   -7.6823 C   0  0  1  0  0  0  0  0  0  0  0  0
  -18.7106  -39.3849   -6.5320 C   0  0  0  0  0  0  0  0  0  0  0  0
  -19.4997  -38.1526   -6.6925 C   0  0  2  0  0  0  0  0  0  0  0  0
  -20.1306  -37.8772   -5.3091 C   0  0  0  0  0  0  0  0  0  0  0  0
  -20.6342  -38.2112   -7.6603 C   0  0  0  0  0  0  0  0  0  0  0  0
  -21.4521  -39.4320   -7.6596 C   0  0  0  0  0  0  0  0  0  0  0  0
  -22.6432  -39.3998   -6.7285 C   0  0  0  0  0  0  0  0  0  0  0  0
  -23.6727  -40.3745   -7.3039 C   0  0  0  0  0  0  0  0  0  0  0  0
  -23.3223  -41.7975   -6.9718 C   0  0  0  0  0  0  0  0  0  0  0  0
  -23.8862  -42.7801   -7.9700 C   0  0  0  0  0  0  0  0  0  0  0  0
  -23.0086  -42.8950   -9.2035 C   0  0  0  0  0  0  0  0  0  0  0  0
  -21.9837  -43.9099   -9.0457 N   0  0  0  0  0  0  0  0  0  0  0  0
  -16.9053  -38.7771   -8.1393 C   0  0  2  0  0  0  0  0  0  0  0  0
  -17.4870  -37.5722   -8.3789 O   0  0  0  0  0  0  0  0  0  0  0  0
  -16.2505  -39.2937   -9.3945 C   0  0  0  0  0  0  0  0  0  0  0  0
  -15.1834  -40.2056   -9.2247 N   0  0  0  0  0  0  0  0  0  0  0  0
  -13.8938  -39.8054   -9.6724 C   0  0  0  0  0  0  0  0  0  0  0  0
  -12.8838  -40.8854   -9.2728 C   0  0  0  0  0  0  0  0  0  0  0  0
  -12.6789  -41.7531  -10.4420 C   0  0  0  0  0  0  0  0  0  0  0  0
  -12.2075  -43.0295  -10.2646 C   0  0  0  0  0  0  0  0  0  0  0  0
  -12.0148  -43.8423  -11.3812 C   0  0  0  0  0  0  0  0  0  0  0  0
  -12.2811  -43.3992  -12.6185 N   0  0  0  0  0  0  0  0  0  0  0  0
  -12.7431  -42.1522  -12.8088 C   0  0  0  0  0  0  0  0  0  0  0  0
  -12.9453  -41.3172  -11.7081 C   0  0  0  0  0  0  0  0  0  0  0  0
  1  2  1  0
  2  3  1  0
  3  4  1  0
  4  5  2  0
  5  6  1  0
  6  7  2  0
  7  8  1  0
  8  9  2  0
  8 10  1  0
 10 11  2  0
 10 12  1  0
 12 13  1  0
 13 14  1  1
 14 15  1  0
 15 16  1  1
 15 17  1  0
 17 18  1  0
 18 19  1  0
 19 20  1  0
 20 21  1  0
 21 22  1  0
 22 23  1  0
 23 24  1  0
 13 25  1  0
 25 26  1  6
 25 27  1  0
 27 28  1  0
 28 29  1  0
 29 30  1  0
 30 31  1  0
 31 32  2  0
 32 33  1  0
 33 34  2  0
 34 35  1  0
 35 36  2  0
  9  4  1  0
 24  6  1  0
 36 31  1  0
M  END
$$$$
