
     RDKit          3D

 36 38  0  0  0  0  0  0  0  0999 V2000
  -21.3168  -45.1516  -11.1535 C   0  0  0  0  0  0  0  0  0  0  0  0
  -20.1594  -44.7186  -11.7739 O   0  0  0  0  0  0  0  0  0  0  0  0
  -19.0599  -45.4832  -11.4725 C   0  0  0  0  0  0  0  0  0  0  0  0
  -17.9518  -44.5958  -11.0219 C   0  0  0  0  0  0  0  0  0  0  0  0
  -16.6579  -44.7760  -11.4203 C   0  0  0  0  0  0  0  0  0  0  0  0
  -15.5795  -43.9470  -11.0070 C   0  0  0  0  0  0  0  0  0  0  0  0
  -15.8455  -42.9004  -10.1547 C   0  0  0  0  0  0  0  0  0  0  0  0
  -17.1315  -42.6639   -9.7161 C   0  0  0  0  0  0  0  0  0  0  0  0
  -18.1530  -43.5448  -10.1808 C   0  0  0  0  0  0  0  0  0  0  0  0
  -17.6991  -41.6468   -8.8273 C   0  0  0  0  0  0  0  0  0  0  0  0
  -18.6272  -42.0467   -7.9702 O   0  0  0  0  0  0  0  0  0  0  0  0
  -17.5019  -40.2640   -8.6395 N   0  0  0  0  0  0  0  0  0  0  0  0
  -16.2527  -39.5205   -8.8931 C   0  0  1  0  0  0  0  0  0  0  0  0
  -16.4296  -38.8270  -10.2003 C   0  0  0  0  0  0  0  0  0  0  0  0
  -15.3967  -37.8745  -10.6400 C   0  0  2  0  0  0  0  0  0  0  0  0
  -15.9264  -37.2619  -11.9561 C   0  0  0  0  0  0  0  0  0  0  0  0
  -14.0569  -38.4481  -10.9605 C   0  0  0  0  0  0  0  0  0  0  0  0
  -14.0319  -39.7183  -11.6991 C   0  0  0  0  0  0  0  0  0  0  0  0
  -13.9976  -39.5787  -13.2044 C   0  0  0  0  0  0  0  0  0  0  0  0
  -13.3417  -40.8508  -13.7453 C   0  0  0  0  0  0  0  0  0  0  0  0
  -14.3129  -41.9971  -13.7714 C   0  0  0  0  0  0  0  0  0  0  0  0
  -13.6261  -43.3392  -13.6878 C   0  0  0  0  0  0  0  0  0  0  0  0
  -13.2894  -43.7105  -12.2548 C   0  0  0  0  0  0  0  0  0  0  0  0
  -14.3774  -44.4223  -11.6105 N   0  0  0  0  0  0  0  0  0  0  0  0
  -16.0966  -38.4962   -7.7525 C   0  0  2  0  0  0  0  0  0  0  0  0
  -14.8264  -38.3882   -7.2811 O   0  0  0  0  0  0  0  0  0  0  0  0
  -17.0215  -38.9413   -6.6489 C   0  0  0  0  0  0  0  0  0  0  0  0
  -18.4078  -38.8852   -6.9213 N   0  0  0  0  0  0  0  0  0  0  0  0
  -19.3036  -39.1643   -5.8520 C   0  0  0  0  0  0  0  0  0  0  0  0
  -20.7380  -39.0136   -6.3679 C   0  0  0  0  0  0  0  0  0  0  0  0
  -21.6002  -39.8601   -5.5300 C   0  0  0  0  0  0  0  0  0  0  0  0
  -22.9459  -39.9246   -5.7905 C   0  0  0  0  0  0  0  0  0  0  0  0
  -23.7539  -40.7288   -4.9874 C   0  0  0  0  0  0  0  0  0  0  0  0
  -23.2402  -41.4361   -3.9706 N   0  0  0  0  0  0  0  0  0  0  0  0
  -21.9248  -41.3836   -3.7028 C   0  0  0  0  0  0  0  0  0  0  0  0
  -21.0927  -40.5862   -4.4913 C   0  0  0  0  0  0  0  0  0  0  0  0
  1  2  1  0
  2  3  1  0
  3  4  1  0
  4  5  2  0
  5  6  1  0
  6  7  2  0
  7  8  1  0
  8  9  2  0
  8 10  1  0
 10 11  2  0
 10 12  1  0
 12 13  1  0
 13 14  1  6
 14 15  1  0
 15 16  1  6
 15 17  1  0
 17 18  1  0
 18 19  1  0
 19 20  1  0
 20 21  1  0
 21 22  1  0
 22 23  1  0
 23 24  1  0
 13 25  1  0
 25 26  1  1
 25 27  1  0
 27 28  1  0
 28 29  1  0
 29 30  1  0
 30 31  1  0
 31 32  2  0
 32 33  1  0
 33 34  2  0
 34 35  1  0
 35 36  2  0
  9  4  1  0
 24  6  1  0
 36 31  1  0
M  END
$$$$
