
     RDKit          3D

 36 38  0  0  0  0  0  0  0  0999 V2000
  -17.3232  -47.3556   -5.8456 C   0  0  0  0  0  0  0  0  0  0  0  0
  -17.5301  -46.9810   -7.1605 O   0  0  0  0  0  0  0  0  0  0  0  0
  -18.8548  -46.9601   -7.5200 C   0  0  0  0  0  0  0  0  0  0  0  0
  -19.2333  -45.5778   -7.9248 C   0  0  0  0  0  0  0  0  0  0  0  0
  -20.5282  -45.2067   -8.1502 C   0  0  0  0  0  0  0  0  0  0  0  0
  -20.9203  -43.8965   -8.5381 C   0  0  0  0  0  0  0  0  0  0  0  0
  -19.9446  -42.9402   -8.6996 C   0  0  0  0  0  0  0  0  0  0  0  0
  -18.6178  -43.2505   -8.4864 C   0  0  0  0  0  0  0  0  0  0  0  0
  -18.3138  -44.5895   -8.0992 C   0  0  0  0  0  0  0  0  0  0  0  0
  -17.3915  -42.4543   -8.5792 C   0  0  0  0  0  0  0  0  0  0  0  0
  -16.3313  -43.0420   -9.1145 O   0  0  0  0  0  0  0  0  0  0  0  0
  -17.0248  -41.1418   -8.2198 N   0  0  0  0  0  0  0  0  0  0  0  0
  -17.9238  -39.9734   -8.1560 C   0  0  1  0  0  0  0  0  0  0  0  0
  -18.2428  -39.7615   -6.7157 C   0  0  0  0  0  0  0  0  0  0  0  0
  -19.0005  -38.5599   -6.3293 C   0  0  2  0  0  0  0  0  0  0  0  0
  -19.0672  -38.5864   -4.7857 C   0  0  0  0  0  0  0  0  0  0  0  0
  -20.4135  -38.4843   -6.8032 C   0  0  0  0  0  0  0  0  0  0  0  0
  -21.2071  -39.7195   -6.7416 C   0  0  0  0  0  0  0  0  0  0  0  0
  -21.9681  -39.9235   -5.4509 C   0  0  0  0  0  0  0  0  0  0  0  0
  -23.1644  -40.8164   -5.7866 C   0  0  0  0  0  0  0  0  0  0  0  0
  -22.7561  -42.2586   -5.8932 C   0  0  0  0  0  0  0  0  0  0  0  0
  -23.6764  -43.0559   -6.7861 C   0  0  0  0  0  0  0  0  0  0  0  0
  -23.3207  -42.8893   -8.2525 C   0  0  0  0  0  0  0  0  0  0  0  0
  -22.3390  -43.8662   -8.6854 N   0  0  0  0  0  0  0  0  0  0  0  0
  -17.1434  -38.7709   -8.7212 C   0  0  2  0  0  0  0  0  0  0  0  0
  -16.7247  -38.9410  -10.0030 O   0  0  0  0  0  0  0  0  0  0  0  0
  -15.9582  -38.5656   -7.8132 C   0  0  0  0  0  0  0  0  0  0  0  0
  -14.9301  -39.5338   -7.8829 N   0  0  0  0  0  0  0  0  0  0  0  0
  -14.6074  -40.0650   -9.1625 C   0  0  0  0  0  0  0  0  0  0  0  0
  -13.5257  -39.1844   -9.7955 C   0  0  0  0  0  0  0  0  0  0  0  0
  -13.8829  -38.9930  -11.2089 C   0  0  0  0  0  0  0  0  0  0  0  0
  -13.7582  -40.0398  -12.0873 C   0  0  0  0  0  0  0  0  0  0  0  0
  -14.0977  -39.8455  -13.4258 C   0  0  0  0  0  0  0  0  0  0  0  0
  -14.5414  -38.6592  -13.8660 N   0  0  0  0  0  0  0  0  0  0  0  0
  -14.6690  -37.6246  -13.0186 C   0  0  0  0  0  0  0  0  0  0  0  0
  -14.3362  -37.7916  -11.6727 C   0  0  0  0  0  0  0  0  0  0  0  0
  1  2  1  0
  2  3  1  0
  3  4  1  0
  4  5  2  0
  5  6  1  0
  6  7  2  0
  7  8  1  0
  8  9  2  0
  8 10  1  0
 10 11  2  0
 10 12  1  0
 12 13  1  0
 13 14  1  1
 14 15  1  0
 15 16  1  1
 15 17  1  0
 17 18  1  0
 18 19  1  0
 19 20  1  0
 20 21  1  0
 21 22  1  0
 22 23  1  0
 23 24  1  0
 13 25  1  0
 25 26  1  6
 25 27  1  0
 27 28  1  0
 28 29  1  0
 29 30  1  0
 30 31  1  0
 31 32  2  0
 32 33  1  0
 33 34  2  0
 34 35  1  0
 35 36  2  0
  9  4  1  0
 24  6  1  0
 36 31  1  0
M  END
$$$$
