
     RDKit          3D

 36 38  0  0  0  0  0  0  0  0999 V2000
  -20.1513  -46.6633  -12.4887 C   0  0  0  0  0  0  0  0  0  0  0  0
  -19.7576  -45.3381  -12.4594 O   0  0  0  0  0  0  0  0  0  0  0  0
  -20.0171  -44.7181  -11.2625 C   0  0  0  0  0  0  0  0  0  0  0  0
  -18.9033  -43.7831  -10.9409 C   0  0  0  0  0  0  0  0  0  0  0  0
  -17.7604  -43.7180  -11.6857 C   0  0  0  0  0  0  0  0  0  0  0  0
  -16.6806  -42.8375  -11.4035 C   0  0  0  0  0  0  0  0  0  0  0  0
  -16.7838  -41.9991  -10.3177 C   0  0  0  0  0  0  0  0  0  0  0  0
  -17.9127  -42.0152   -9.5254 C   0  0  0  0  0  0  0  0  0  0  0  0
  -18.9480  -42.9300   -9.8813 C   0  0  0  0  0  0  0  0  0  0  0  0
  -18.2921  -41.2522   -8.3337 C   0  0  0  0  0  0  0  0  0  0  0  0
  -18.9107  -41.9143   -7.3668 O   0  0  0  0  0  0  0  0  0  0  0  0
  -18.1634  -39.9091   -7.9264 N   0  0  0  0  0  0  0  0  0  0  0  0
  -17.0980  -38.9736   -8.3356 C   0  0  1  0  0  0  0  0  0  0  0  0
  -17.6859  -38.0937   -9.3850 C   0  0  0  0  0  0  0  0  0  0  0  0
  -16.8962  -36.9508   -9.8722 C   0  0  2  0  0  0  0  0  0  0  0  0
  -17.8176  -36.1953  -10.8560 C   0  0  0  0  0  0  0  0  0  0  0  0
  -15.6557  -37.2771  -10.6350 C   0  0  0  0  0  0  0  0  0  0  0  0
  -15.7335  -38.3852  -11.5970 C   0  0  0  0  0  0  0  0  0  0  0  0
  -16.1293  -37.9835  -13.0001 C   0  0  0  0  0  0  0  0  0  0  0  0
  -15.5480  -39.0440  -13.9374 C   0  0  0  0  0  0  0  0  0  0  0  0
  -16.3922  -40.2871  -13.9454 C   0  0  0  0  0  0  0  0  0  0  0  0
  -15.6027  -41.5201  -14.3147 C   0  0  0  0  0  0  0  0  0  0  0  0
  -14.8531  -42.0862  -13.1221 C   0  0  0  0  0  0  0  0  0  0  0  0
  -15.6584  -43.0370  -12.3785 N   0  0  0  0  0  0  0  0  0  0  0  0
  -16.7155  -38.1511   -7.0900 C   0  0  2  0  0  0  0  0  0  0  0  0
  -15.3749  -38.0367   -6.8975 O   0  0  0  0  0  0  0  0  0  0  0  0
  -17.3499  -38.8418   -5.9103 C   0  0  0  0  0  0  0  0  0  0  0  0
  -18.7383  -38.6436   -5.7300 N   0  0  0  0  0  0  0  0  0  0  0  0
  -19.5362  -39.7837   -5.4344 C   0  0  0  0  0  0  0  0  0  0  0  0
  -21.0019  -39.3449   -5.3602 C   0  0  0  0  0  0  0  0  0  0  0  0
  -21.7632  -40.4479   -4.7553 C   0  0  0  0  0  0  0  0  0  0  0  0
  -22.8672  -40.9440   -5.4019 C   0  0  0  0  0  0  0  0  0  0  0  0
  -23.5827  -41.9885   -4.8173 C   0  0  0  0  0  0  0  0  0  0  0  0
  -23.2115  -42.5129   -3.6403 N   0  0  0  0  0  0  0  0  0  0  0  0
  -22.1331  -42.0384   -2.9950 C   0  0  0  0  0  0  0  0  0  0  0  0
  -21.3983  -40.9928   -3.5579 C   0  0  0  0  0  0  0  0  0  0  0  0
  1  2  1  0
  2  3  1  0
  3  4  1  0
  4  5  2  0
  5  6  1  0
  6  7  2  0
  7  8  1  0
  8  9  2  0
  8 10  1  0
 10 11  2  0
 10 12  1  0
 12 13  1  0
 13 14  1  6
 14 15  1  0
 15 16  1  6
 15 17  1  0
 17 18  1  0
 18 19  1  0
 19 20  1  0
 20 21  1  0
 21 22  1  0
 22 23  1  0
 23 24  1  0
 13 25  1  0
 25 26  1  1
 25 27  1  0
 27 28  1  0
 28 29  1  0
 29 30  1  0
 30 31  1  0
 31 32  2  0
 32 33  1  0
 33 34  2  0
 34 35  1  0
 35 36  2  0
  9  4  1  0
 24  6  1  0
 36 31  1  0
M  END
$$$$
