
     RDKit          3D

 36 38  0  0  0  0  0  0  0  0999 V2000
  -17.9246  -48.3135   -6.9062 C   0  0  0  0  0  0  0  0  0  0  0  0
  -18.1322  -47.0936   -7.5233 O   0  0  0  0  0  0  0  0  0  0  0  0
  -19.4517  -46.8428   -7.8065 C   0  0  0  0  0  0  0  0  0  0  0  0
  -19.6266  -45.3916   -8.0921 C   0  0  0  0  0  0  0  0  0  0  0  0
  -20.8414  -44.8422   -8.3883 C   0  0  0  0  0  0  0  0  0  0  0  0
  -21.0398  -43.4622   -8.6661 C   0  0  0  0  0  0  0  0  0  0  0  0
  -19.9494  -42.6238   -8.6384 C   0  0  0  0  0  0  0  0  0  0  0  0
  -18.6949  -43.1160   -8.3450 C   0  0  0  0  0  0  0  0  0  0  0  0
  -18.5868  -44.5134   -8.0787 C   0  0  0  0  0  0  0  0  0  0  0  0
  -17.3820  -42.4735   -8.2446 C   0  0  0  0  0  0  0  0  0  0  0  0
  -16.3486  -43.1346   -8.7455 O   0  0  0  0  0  0  0  0  0  0  0  0
  -16.9044  -41.2575   -7.7159 N   0  0  0  0  0  0  0  0  0  0  0  0
  -17.6650  -39.9978   -7.6056 C   0  0  1  0  0  0  0  0  0  0  0  0
  -18.0990  -39.8872   -6.1842 C   0  0  0  0  0  0  0  0  0  0  0  0
  -18.7482  -38.6433   -5.7386 C   0  0  2  0  0  0  0  0  0  0  0  0
  -18.9705  -38.8094   -4.2185 C   0  0  0  0  0  0  0  0  0  0  0  0
  -20.0890  -38.3471   -6.3229 C   0  0  0  0  0  0  0  0  0  0  0  0
  -21.0215  -39.4740   -6.4635 C   0  0  0  0  0  0  0  0  0  0  0  0
  -21.9254  -39.7047   -5.2734 C   0  0  0  0  0  0  0  0  0  0  0  0
  -23.1771  -40.4053   -5.8060 C   0  0  0  0  0  0  0  0  0  0  0  0
  -22.9288  -41.8701   -6.0307 C   0  0  0  0  0  0  0  0  0  0  0  0
  -23.8414  -42.4571   -7.0808 C   0  0  0  0  0  0  0  0  0  0  0  0
  -23.3249  -42.1961   -8.4843 C   0  0  0  0  0  0  0  0  0  0  0  0
  -22.4239  -43.2415   -8.9323 N   0  0  0  0  0  0  0  0  0  0  0  0
  -16.6992  -38.8532   -7.9684 C   0  0  2  0  0  0  0  0  0  0  0  0
  -17.1982  -37.9833   -8.8857 O   0  0  0  0  0  0  0  0  0  0  0  0
  -15.4472  -39.5026   -8.4994 C   0  0  0  0  0  0  0  0  0  0  0  0
  -14.9990  -39.0728   -9.7696 N   0  0  0  0  0  0  0  0  0  0  0  0
  -13.9620  -39.8210  -10.3930 C   0  0  0  0  0  0  0  0  0  0  0  0
  -14.5327  -40.4917  -11.6464 C   0  0  0  0  0  0  0  0  0  0  0  0
  -13.4283  -41.1999  -12.3103 C   0  0  0  0  0  0  0  0  0  0  0  0
  -12.1336  -40.9331  -11.9423 C   0  0  0  0  0  0  0  0  0  0  0  0
  -11.0944  -41.6091  -12.5808 C   0  0  0  0  0  0  0  0  0  0  0  0
  -11.3385  -42.5105  -13.5430 N   0  0  0  0  0  0  0  0  0  0  0  0
  -12.6004  -42.7829  -13.9146 C   0  0  0  0  0  0  0  0  0  0  0  0
  -13.6600  -42.1203  -13.2915 C   0  0  0  0  0  0  0  0  0  0  0  0
  1  2  1  0
  2  3  1  0
  3  4  1  0
  4  5  2  0
  5  6  1  0
  6  7  2  0
  7  8  1  0
  8  9  2  0
  8 10  1  0
 10 11  2  0
 10 12  1  0
 12 13  1  0
 13 14  1  1
 14 15  1  0
 15 16  1  1
 15 17  1  0
 17 18  1  0
 18 19  1  0
 19 20  1  0
 20 21  1  0
 21 22  1  0
 22 23  1  0
 23 24  1  0
 13 25  1  0
 25 26  1  6
 25 27  1  0
 27 28  1  0
 28 29  1  0
 29 30  1  0
 30 31  1  0
 31 32  2  0
 32 33  1  0
 33 34  2  0
 34 35  1  0
 35 36  2  0
  9  4  1  0
 24  6  1  0
 36 31  1  0
M  END
$$$$
