
     RDKit          3D

 36 38  0  0  0  0  0  0  0  0999 V2000
  -18.0663  -48.1093   -6.0234 C   0  0  0  0  0  0  0  0  0  0  0  0
  -18.7546  -46.9511   -6.3350 O   0  0  0  0  0  0  0  0  0  0  0  0
  -19.1609  -46.8934   -7.6449 C   0  0  0  0  0  0  0  0  0  0  0  0
  -19.4117  -45.4742   -8.0204 C   0  0  0  0  0  0  0  0  0  0  0  0
  -20.6583  -45.0023   -8.3185 C   0  0  0  0  0  0  0  0  0  0  0  0
  -20.9289  -43.6546   -8.6808 C   0  0  0  0  0  0  0  0  0  0  0  0
  -19.8794  -42.7670   -8.7384 C   0  0  0  0  0  0  0  0  0  0  0  0
  -18.5960  -43.1803   -8.4480 C   0  0  0  0  0  0  0  0  0  0  0  0
  -18.4150  -44.5503   -8.0934 C   0  0  0  0  0  0  0  0  0  0  0  0
  -17.3133  -42.4729   -8.4263 C   0  0  0  0  0  0  0  0  0  0  0  0
  -16.2620  -43.1178   -8.9110 O   0  0  0  0  0  0  0  0  0  0  0  0
  -16.8813  -41.2035   -7.9922 N   0  0  0  0  0  0  0  0  0  0  0  0
  -17.6982  -39.9755   -7.9440 C   0  0  1  0  0  0  0  0  0  0  0  0
  -18.1021  -39.7900   -6.5215 C   0  0  0  0  0  0  0  0  0  0  0  0
  -18.7987  -38.5502   -6.1409 C   0  0  2  0  0  0  0  0  0  0  0  0
  -18.9756  -38.6241   -4.6076 C   0  0  0  0  0  0  0  0  0  0  0  0
  -20.1660  -38.3557   -6.7062 C   0  0  0  0  0  0  0  0  0  0  0  0
  -21.0469  -39.5312   -6.7467 C   0  0  0  0  0  0  0  0  0  0  0  0
  -21.9094  -39.7229   -5.5194 C   0  0  0  0  0  0  0  0  0  0  0  0
  -23.1389  -40.5143   -5.9700 C   0  0  0  0  0  0  0  0  0  0  0  0
  -22.8267  -41.9780   -6.1047 C   0  0  0  0  0  0  0  0  0  0  0  0
  -23.7356  -42.6753   -7.0883 C   0  0  0  0  0  0  0  0  0  0  0  0
  -23.2666  -42.4855   -8.5197 C   0  0  0  0  0  0  0  0  0  0  0  0
  -22.3281  -43.5160   -8.9227 N   0  0  0  0  0  0  0  0  0  0  0  0
  -16.7973  -38.8146   -8.4077 C   0  0  2  0  0  0  0  0  0  0  0  0
  -17.4295  -37.6122   -8.4516 O   0  0  0  0  0  0  0  0  0  0  0  0
  -16.2953  -39.1850   -9.7796 C   0  0  0  0  0  0  0  0  0  0  0  0
  -15.2532  -40.1388   -9.8381 N   0  0  0  0  0  0  0  0  0  0  0  0
  -14.9323  -40.6907  -11.1094 C   0  0  0  0  0  0  0  0  0  0  0  0
  -13.8027  -39.8614  -11.7281 C   0  0  0  0  0  0  0  0  0  0  0  0
  -12.9667  -40.7752  -12.5206 C   0  0  0  0  0  0  0  0  0  0  0  0
  -12.4488  -41.9018  -11.9329 C   0  0  0  0  0  0  0  0  0  0  0  0
  -11.6554  -42.7596  -12.6940 C   0  0  0  0  0  0  0  0  0  0  0  0
  -11.3918  -42.5028  -13.9834 N   0  0  0  0  0  0  0  0  0  0  0  0
  -11.8914  -41.4041  -14.5733 C   0  0  0  0  0  0  0  0  0  0  0  0
  -12.6892  -40.5281  -13.8343 C   0  0  0  0  0  0  0  0  0  0  0  0
  1  2  1  0
  2  3  1  0
  3  4  1  0
  4  5  2  0
  5  6  1  0
  6  7  2  0
  7  8  1  0
  8  9  2  0
  8 10  1  0
 10 11  2  0
 10 12  1  0
 12 13  1  0
 13 14  1  1
 14 15  1  0
 15 16  1  1
 15 17  1  0
 17 18  1  0
 18 19  1  0
 19 20  1  0
 20 21  1  0
 21 22  1  0
 22 23  1  0
 23 24  1  0
 13 25  1  0
 25 26  1  6
 25 27  1  0
 27 28  1  0
 28 29  1  0
 29 30  1  0
 30 31  1  0
 31 32  2  0
 32 33  1  0
 33 34  2  0
 34 35  1  0
 35 36  2  0
  9  4  1  0
 24  6  1  0
 36 31  1  0
M  END
$$$$
