
     RDKit          3D

 36 38  0  0  0  0  0  0  0  0999 V2000
  -17.5056  -48.1089   -8.0747 C   0  0  0  0  0  0  0  0  0  0  0  0
  -18.6964  -47.4824   -7.7558 O   0  0  0  0  0  0  0  0  0  0  0  0
  -19.4710  -47.1926   -8.8514 C   0  0  0  0  0  0  0  0  0  0  0  0
  -19.7953  -45.7390   -8.8543 C   0  0  0  0  0  0  0  0  0  0  0  0
  -21.0420  -45.2648   -9.1480 C   0  0  0  0  0  0  0  0  0  0  0  0
  -21.3816  -43.8844   -9.1599 C   0  0  0  0  0  0  0  0  0  0  0  0
  -20.4029  -42.9652   -8.8603 C   0  0  0  0  0  0  0  0  0  0  0  0
  -19.1235  -43.3792   -8.5540 C   0  0  0  0  0  0  0  0  0  0  0  0
  -18.8704  -44.7831   -8.5654 C   0  0  0  0  0  0  0  0  0  0  0  0
  -17.9065  -42.6433   -8.2018 C   0  0  0  0  0  0  0  0  0  0  0  0
  -16.7686  -43.0764   -8.7248 O   0  0  0  0  0  0  0  0  0  0  0  0
  -17.6155  -41.5241   -7.3961 N   0  0  0  0  0  0  0  0  0  0  0  0
  -18.5258  -40.3991   -7.1074 C   0  0  1  0  0  0  0  0  0  0  0  0
  -19.0714  -40.6347   -5.7407 C   0  0  0  0  0  0  0  0  0  0  0  0
  -19.8936  -39.5845   -5.1176 C   0  0  2  0  0  0  0  0  0  0  0  0
  -20.2041  -40.0886   -3.6903 C   0  0  0  0  0  0  0  0  0  0  0  0
  -21.2143  -39.3085   -5.7552 C   0  0  0  0  0  0  0  0  0  0  0  0
  -21.9944  -40.4686   -6.2080 C   0  0  0  0  0  0  0  0  0  0  0  0
  -22.9483  -41.0347   -5.1802 C   0  0  0  0  0  0  0  0  0  0  0  0
  -24.0665  -41.7298   -5.9596 C   0  0  0  0  0  0  0  0  0  0  0  0
  -23.6311  -43.0818   -6.4499 C   0  0  0  0  0  0  0  0  0  0  0  0
  -24.3895  -43.5233   -7.6787 C   0  0  0  0  0  0  0  0  0  0  0  0
  -23.8075  -42.9219   -8.9452 C   0  0  0  0  0  0  0  0  0  0  0  0
  -22.7592  -43.7532   -9.5067 N   0  0  0  0  0  0  0  0  0  0  0  0
  -17.6785  -39.1124   -7.1387 C   0  0  2  0  0  0  0  0  0  0  0  0
  -18.1684  -38.1128   -6.3588 O   0  0  0  0  0  0  0  0  0  0  0  0
  -17.6292  -38.6681   -8.5779 C   0  0  0  0  0  0  0  0  0  0  0  0
  -16.3503  -38.3889   -9.1125 N   0  0  0  0  0  0  0  0  0  0  0  0
  -15.4363  -39.4714   -9.2407 C   0  0  0  0  0  0  0  0  0  0  0  0
  -14.6893  -39.3219  -10.5696 C   0  0  0  0  0  0  0  0  0  0  0  0
  -14.9456  -40.5354  -11.3595 C   0  0  0  0  0  0  0  0  0  0  0  0
  -15.8682  -40.5011  -12.3746 C   0  0  0  0  0  0  0  0  0  0  0  0
  -16.1045  -41.6588  -13.1152 C   0  0  0  0  0  0  0  0  0  0  0  0
  -15.4485  -42.7986  -12.8528 N   0  0  0  0  0  0  0  0  0  0  0  0
  -14.5423  -42.8483  -11.8623 C   0  0  0  0  0  0  0  0  0  0  0  0
  -14.2861  -41.7034  -11.1051 C   0  0  0  0  0  0  0  0  0  0  0  0
  1  2  1  0
  2  3  1  0
  3  4  1  0
  4  5  2  0
  5  6  1  0
  6  7  2  0
  7  8  1  0
  8  9  2  0
  8 10  1  0
 10 11  2  0
 10 12  1  0
 12 13  1  0
 13 14  1  1
 14 15  1  0
 15 16  1  1
 15 17  1  0
 17 18  1  0
 18 19  1  0
 19 20  1  0
 20 21  1  0
 21 22  1  0
 22 23  1  0
 23 24  1  0
 13 25  1  0
 25 26  1  1
 25 27  1  0
 27 28  1  0
 28 29  1  0
 29 30  1  0
 30 31  1  0
 31 32  2  0
 32 33  1  0
 33 34  2  0
 34 35  1  0
 35 36  2  0
  9  4  1  0
 24  6  1  0
 36 31  1  0
M  END
$$$$
