
     RDKit          3D

 36 38  0  0  0  0  0  0  0  0999 V2000
  -20.2012  -38.0585  -15.8622 C   0  0  0  0  0  0  0  0  0  0  0  0
  -19.4219  -38.8165  -15.0078 O   0  0  0  0  0  0  0  0  0  0  0  0
  -20.1541  -39.6189  -14.1685 C   0  0  0  0  0  0  0  0  0  0  0  0
  -19.9586  -39.1685  -12.7624 C   0  0  0  0  0  0  0  0  0  0  0  0
  -20.8174  -38.3077  -12.1405 C   0  0  0  0  0  0  0  0  0  0  0  0
  -20.6571  -37.8593  -10.8010 C   0  0  0  0  0  0  0  0  0  0  0  0
  -19.5755  -38.3131  -10.0820 C   0  0  0  0  0  0  0  0  0  0  0  0
  -18.6716  -39.1850  -10.6520 C   0  0  0  0  0  0  0  0  0  0  0  0
  -18.9094  -39.5834  -12.0011 C   0  0  0  0  0  0  0  0  0  0  0  0
  -17.4557  -39.8205  -10.1381 C   0  0  0  0  0  0  0  0  0  0  0  0
  -16.4233  -39.9013  -10.9649 O   0  0  0  0  0  0  0  0  0  0  0  0
  -17.0784  -40.4084   -8.9141 N   0  0  0  0  0  0  0  0  0  0  0  0
  -17.6049  -40.0574   -7.5810 C   0  0  1  0  0  0  0  0  0  0  0  0
  -18.5981  -41.1105   -7.2262 C   0  0  0  0  0  0  0  0  0  0  0  0
  -19.1762  -41.1088   -5.8723 C   0  0  2  0  0  0  0  0  0  0  0  0
  -20.0685  -42.3681   -5.7974 C   0  0  0  0  0  0  0  0  0  0  0  0
  -20.0585  -39.9556   -5.5278 C   0  0  0  0  0  0  0  0  0  0  0  0
  -20.9953  -39.4969   -6.5630 C   0  0  0  0  0  0  0  0  0  0  0  0
  -22.3547  -40.1584   -6.5295 C   0  0  0  0  0  0  0  0  0  0  0  0
  -23.3350  -39.1724   -7.1681 C   0  0  0  0  0  0  0  0  0  0  0  0
  -23.2429  -39.2050   -8.6676 C   0  0  0  0  0  0  0  0  0  0  0  0
  -23.6776  -37.9057   -9.3023 C   0  0  0  0  0  0  0  0  0  0  0  0
  -22.5620  -36.8761   -9.2970 C   0  0  0  0  0  0  0  0  0  0  0  0
  -21.7295  -36.9744  -10.4813 N   0  0  0  0  0  0  0  0  0  0  0  0
  -16.4142  -40.0836   -6.6033 C   0  0  2  0  0  0  0  0  0  0  0  0
  -15.9147  -38.8534   -6.3127 O   0  0  0  0  0  0  0  0  0  0  0  0
  -15.3503  -40.9342   -7.2481 C   0  0  0  0  0  0  0  0  0  0  0  0
  -14.2904  -40.2496   -7.8862 N   0  0  0  0  0  0  0  0  0  0  0  0
  -14.2034  -40.3391   -9.3032 C   0  0  0  0  0  0  0  0  0  0  0  0
  -12.7617  -40.0343   -9.7218 C   0  0  0  0  0  0  0  0  0  0  0  0
  -12.1575  -41.2956  -10.1759 C   0  0  0  0  0  0  0  0  0  0  0  0
  -12.4787  -41.7941  -11.4133 C   0  0  0  0  0  0  0  0  0  0  0  0
  -11.9013  -42.9924  -11.8320 C   0  0  0  0  0  0  0  0  0  0  0  0
  -11.0421  -43.6615  -11.0496 N   0  0  0  0  0  0  0  0  0  0  0  0
  -10.7175  -43.1865   -9.8356 C   0  0  0  0  0  0  0  0  0  0  0  0
  -11.2811  -41.9886   -9.3914 C   0  0  0  0  0  0  0  0  0  0  0  0
  1  2  1  0
  2  3  1  0
  3  4  1  0
  4  5  2  0
  5  6  1  0
  6  7  2  0
  7  8  1  0
  8  9  2  0
  8 10  1  0
 10 11  2  0
 10 12  1  0
 12 13  1  0
 13 14  1  1
 14 15  1  0
 15 16  1  6
 15 17  1  0
 17 18  1  0
 18 19  1  0
 19 20  1  0
 20 21  1  0
 21 22  1  0
 22 23  1  0
 23 24  1  0
 13 25  1  0
 25 26  1  6
 25 27  1  0
 27 28  1  0
 28 29  1  0
 29 30  1  0
 30 31  1  0
 31 32  2  0
 32 33  1  0
 33 34  2  0
 34 35  1  0
 35 36  2  0
  9  4  1  0
 24  6  1  0
 36 31  1  0
M  END
$$$$
