
     RDKit          3D

 36 38  0  0  0  0  0  0  0  0999 V2000
  -17.4288  -48.2707   -7.7912 C   0  0  0  0  0  0  0  0  0  0  0  0
  -17.7196  -47.5465   -6.6496 O   0  0  0  0  0  0  0  0  0  0  0  0
  -19.0419  -47.1917   -6.5505 C   0  0  0  0  0  0  0  0  0  0  0  0
  -19.2396  -45.8513   -7.1690 C   0  0  0  0  0  0  0  0  0  0  0  0
  -20.3844  -45.5089   -7.8304 C   0  0  0  0  0  0  0  0  0  0  0  0
  -20.6020  -44.2391   -8.4313 C   0  0  0  0  0  0  0  0  0  0  0  0
  -19.6058  -43.2940   -8.3477 C   0  0  0  0  0  0  0  0  0  0  0  0
  -18.4255  -43.5768   -7.6925 C   0  0  0  0  0  0  0  0  0  0  0  0
  -18.2917  -44.8759   -7.1183 C   0  0  0  0  0  0  0  0  0  0  0  0
  -17.2177  -42.7839   -7.4500 C   0  0  0  0  0  0  0  0  0  0  0  0
  -16.0546  -43.4086   -7.5636 O   0  0  0  0  0  0  0  0  0  0  0  0
  -16.9579  -41.4432   -7.1016 N   0  0  0  0  0  0  0  0  0  0  0  0
  -17.8039  -40.2792   -7.4285 C   0  0  1  0  0  0  0  0  0  0  0  0
  -18.5653  -39.9470   -6.1912 C   0  0  0  0  0  0  0  0  0  0  0  0
  -19.3807  -38.7215   -6.1711 C   0  0  2  0  0  0  0  0  0  0  0  0
  -19.9418  -38.6164   -4.7352 C   0  0  0  0  0  0  0  0  0  0  0  0
  -20.5637  -38.6954   -7.0805 C   0  0  0  0  0  0  0  0  0  0  0  0
  -21.3615  -39.9257   -7.1763 C   0  0  0  0  0  0  0  0  0  0  0  0
  -22.5021  -40.0234   -6.1883 C   0  0  0  0  0  0  0  0  0  0  0  0
  -23.5454  -40.9491   -6.8171 C   0  0  0  0  0  0  0  0  0  0  0  0
  -23.1561  -42.3926   -6.6662 C   0  0  0  0  0  0  0  0  0  0  0  0
  -23.7567  -43.2689   -7.7392 C   0  0  0  0  0  0  0  0  0  0  0  0
  -22.9438  -43.2261   -9.0207 C   0  0  0  0  0  0  0  0  0  0  0  0
  -21.8965  -44.2303   -9.0308 N   0  0  0  0  0  0  0  0  0  0  0  0
  -16.8570  -39.1246   -7.8090 C   0  0  2  0  0  0  0  0  0  0  0  0
  -17.4464  -37.9000   -7.7849 O   0  0  0  0  0  0  0  0  0  0  0  0
  -16.3500  -39.4270   -9.1957 C   0  0  0  0  0  0  0  0  0  0  0  0
  -15.1407  -40.1541   -9.2848 N   0  0  0  0  0  0  0  0  0  0  0  0
  -14.0077  -39.4889   -9.8304 C   0  0  0  0  0  0  0  0  0  0  0  0
  -13.4297  -40.3554  -10.9536 C   0  0  0  0  0  0  0  0  0  0  0  0
  -12.7894  -39.4536  -11.9225 C   0  0  0  0  0  0  0  0  0  0  0  0
  -12.2435  -39.9697  -13.0707 C   0  0  0  0  0  0  0  0  0  0  0  0
  -11.6366  -39.1049  -13.9809 C   0  0  0  0  0  0  0  0  0  0  0  0
  -11.5783  -37.7847  -13.7535 N   0  0  0  0  0  0  0  0  0  0  0  0
  -12.1081  -37.2640  -12.6342 C   0  0  0  0  0  0  0  0  0  0  0  0
  -12.7219  -38.1073  -11.7058 C   0  0  0  0  0  0  0  0  0  0  0  0
  1  2  1  0
  2  3  1  0
  3  4  1  0
  4  5  2  0
  5  6  1  0
  6  7  2  0
  7  8  1  0
  8  9  2  0
  8 10  1  0
 10 11  2  0
 10 12  1  0
 12 13  1  0
 13 14  1  1
 14 15  1  0
 15 16  1  1
 15 17  1  0
 17 18  1  0
 18 19  1  0
 19 20  1  0
 20 21  1  0
 21 22  1  0
 22 23  1  0
 23 24  1  0
 13 25  1  0
 25 26  1  6
 25 27  1  0
 27 28  1  0
 28 29  1  0
 29 30  1  0
 30 31  1  0
 31 32  2  0
 32 33  1  0
 33 34  2  0
 34 35  1  0
 35 36  2  0
  9  4  1  0
 24  6  1  0
 36 31  1  0
M  END
$$$$
