
     RDKit          3D

 36 38  0  0  0  0  0  0  0  0999 V2000
  -23.0327  -37.5073  -10.2289 C   0  0  0  0  0  0  0  0  0  0  0  0
  -21.7296  -37.1365   -9.9523 O   0  0  0  0  0  0  0  0  0  0  0  0
  -21.5046  -36.8844   -8.6218 C   0  0  0  0  0  0  0  0  0  0  0  0
  -21.0199  -38.1276   -7.9604 C   0  0  0  0  0  0  0  0  0  0  0  0
  -21.8039  -38.8674   -7.1217 C   0  0  0  0  0  0  0  0  0  0  0  0
  -21.3697  -40.0568   -6.4755 C   0  0  0  0  0  0  0  0  0  0  0  0
  -20.0854  -40.4951   -6.7015 C   0  0  0  0  0  0  0  0  0  0  0  0
  -19.2432  -39.7937   -7.5388 C   0  0  0  0  0  0  0  0  0  0  0  0
  -19.7612  -38.6111   -8.1458 C   0  0  0  0  0  0  0  0  0  0  0  0
  -17.8572  -40.0182   -7.9573 C   0  0  0  0  0  0  0  0  0  0  0  0
  -17.0728  -38.9532   -8.0377 O   0  0  0  0  0  0  0  0  0  0  0  0
  -17.0959  -41.1465   -8.3227 N   0  0  0  0  0  0  0  0  0  0  0  0
  -17.3053  -42.5284   -7.8494 C   0  0  1  0  0  0  0  0  0  0  0  0
  -18.0103  -43.2504   -8.9461 C   0  0  0  0  0  0  0  0  0  0  0  0
  -18.2132  -44.7030   -8.8193 C   0  0  2  0  0  0  0  0  0  0  0  0
  -18.8642  -45.1514  -10.1470 C   0  0  0  0  0  0  0  0  0  0  0  0
  -19.1336  -45.1532   -7.7344 C   0  0  0  0  0  0  0  0  0  0  0  0
  -20.3619  -44.3725   -7.5318 C   0  0  0  0  0  0  0  0  0  0  0  0
  -21.5563  -44.8468   -8.3288 C   0  0  0  0  0  0  0  0  0  0  0  0
  -22.8000  -44.4017   -7.5568 C   0  0  0  0  0  0  0  0  0  0  0  0
  -23.0945  -42.9465   -7.7883 C   0  0  0  0  0  0  0  0  0  0  0  0
  -23.8614  -42.3227   -6.6469 C   0  0  0  0  0  0  0  0  0  0  0  0
  -22.9430  -41.9138   -5.5093 C   0  0  0  0  0  0  0  0  0  0  0  0
  -22.4393  -40.5637   -5.6792 N   0  0  0  0  0  0  0  0  0  0  0  0
  -15.9116  -43.1392   -7.6063 C   0  0  2  0  0  0  0  0  0  0  0  0
  -15.7724  -43.7221   -6.3864 O   0  0  0  0  0  0  0  0  0  0  0  0
  -14.9198  -42.0146   -7.7580 C   0  0  0  0  0  0  0  0  0  0  0  0
  -14.4523  -41.7527   -9.0665 N   0  0  0  0  0  0  0  0  0  0  0  0
  -14.5726  -40.4232   -9.5580 C   0  0  0  0  0  0  0  0  0  0  0  0
  -14.0984  -40.3987  -11.0143 C   0  0  0  0  0  0  0  0  0  0  0  0
  -13.5966  -39.0450  -11.2929 C   0  0  0  0  0  0  0  0  0  0  0  0
  -12.2919  -38.8725  -11.6816 C   0  0  0  0  0  0  0  0  0  0  0  0
  -11.8267  -37.5837  -11.9407 C   0  0  0  0  0  0  0  0  0  0  0  0
  -12.6289  -36.5164  -11.8168 N   0  0  0  0  0  0  0  0  0  0  0  0
  -13.9085  -36.6687  -11.4373 C   0  0  0  0  0  0  0  0  0  0  0  0
  -14.4005  -37.9483  -11.1717 C   0  0  0  0  0  0  0  0  0  0  0  0
  1  2  1  0
  2  3  1  0
  3  4  1  0
  4  5  2  0
  5  6  1  0
  6  7  2  0
  7  8  1  0
  8  9  2  0
  8 10  1  0
 10 11  2  0
 10 12  1  0
 12 13  1  0
 13 14  1  6
 14 15  1  0
 15 16  1  6
 15 17  1  0
 17 18  1  0
 18 19  1  0
 19 20  1  0
 20 21  1  0
 21 22  1  0
 22 23  1  0
 23 24  1  0
 13 25  1  0
 25 26  1  1
 25 27  1  0
 27 28  1  0
 28 29  1  0
 29 30  1  0
 30 31  1  0
 31 32  2  0
 32 33  1  0
 33 34  2  0
 34 35  1  0
 35 36  2  0
  9  4  1  0
 24  6  1  0
 36 31  1  0
M  END
$$$$
