
     RDKit          3D

 36 38  0  0  0  0  0  0  0  0999 V2000
  -21.3117  -43.3984   -2.3613 C   0  0  0  0  0  0  0  0  0  0  0  0
  -21.4250  -42.0229   -2.2756 O   0  0  0  0  0  0  0  0  0  0  0  0
  -22.1894  -41.4750   -3.2756 C   0  0  0  0  0  0  0  0  0  0  0  0
  -21.5360  -41.7287   -4.5897 C   0  0  0  0  0  0  0  0  0  0  0  0
  -22.1398  -42.4436   -5.5846 C   0  0  0  0  0  0  0  0  0  0  0  0
  -21.5419  -42.7029   -6.8479 C   0  0  0  0  0  0  0  0  0  0  0  0
  -20.2808  -42.2097   -7.0909 C   0  0  0  0  0  0  0  0  0  0  0  0
  -19.6172  -41.4789   -6.1278 C   0  0  0  0  0  0  0  0  0  0  0  0
  -20.2914  -41.2660   -4.8887 C   0  0  0  0  0  0  0  0  0  0  0  0
  -18.2975  -40.8428   -6.1075 C   0  0  0  0  0  0  0  0  0  0  0  0
  -17.6009  -40.9375   -4.9842 O   0  0  0  0  0  0  0  0  0  0  0  0
  -17.5308  -40.1065   -7.0328 N   0  0  0  0  0  0  0  0  0  0  0  0
  -17.5820  -40.2334   -8.5021 C   0  0  1  0  0  0  0  0  0  0  0  0
  -18.3961  -39.0883   -8.9989 C   0  0  0  0  0  0  0  0  0  0  0  0
  -18.4880  -38.8643  -10.4510 C   0  0  2  0  0  0  0  0  0  0  0  0
  -19.3001  -37.5609  -10.6222 C   0  0  0  0  0  0  0  0  0  0  0  0
  -19.2076  -39.9067  -11.2401 C   0  0  0  0  0  0  0  0  0  0  0  0
  -20.4380  -40.4579  -10.6556 C   0  0  0  0  0  0  0  0  0  0  0  0
  -21.7060  -39.7260  -11.0342 C   0  0  0  0  0  0  0  0  0  0  0  0
  -22.8463  -40.7390  -10.9142 C   0  0  0  0  0  0  0  0  0  0  0  0
  -23.2610  -40.9271   -9.4823 C   0  0  0  0  0  0  0  0  0  0  0  0
  -23.8869  -42.2786   -9.2340 C   0  0  0  0  0  0  0  0  0  0  0  0
  -22.8368  -43.3556   -9.0285 C   0  0  0  0  0  0  0  0  0  0  0  0
  -22.4481  -43.4735   -7.6355 N   0  0  0  0  0  0  0  0  0  0  0  0
  -16.1327  -40.1315   -9.0156 C   0  0  2  0  0  0  0  0  0  0  0  0
  -15.4290  -41.2894   -8.9079 O   0  0  0  0  0  0  0  0  0  0  0  0
  -15.4685  -39.0461   -8.2081 C   0  0  0  0  0  0  0  0  0  0  0  0
  -15.3593  -37.7762   -8.8202 N   0  0  0  0  0  0  0  0  0  0  0  0
  -14.0570  -37.2234   -8.9686 C   0  0  0  0  0  0  0  0  0  0  0  0
  -14.1697  -35.9223   -9.7692 C   0  0  0  0  0  0  0  0  0  0  0  0
  -13.3685  -36.0848  -10.9914 C   0  0  0  0  0  0  0  0  0  0  0  0
  -11.9988  -36.0740  -10.9103 C   0  0  0  0  0  0  0  0  0  0  0  0
  -11.2496  -36.2265  -12.0765 C   0  0  0  0  0  0  0  0  0  0  0  0
  -11.8426  -36.3825  -13.2690 N   0  0  0  0  0  0  0  0  0  0  0  0
  -13.1825  -36.3952  -13.3650 C   0  0  0  0  0  0  0  0  0  0  0  0
  -13.9570  -36.2447  -12.2129 C   0  0  0  0  0  0  0  0  0  0  0  0
  1  2  1  0
  2  3  1  0
  3  4  1  0
  4  5  2  0
  5  6  1  0
  6  7  2  0
  7  8  1  0
  8  9  2  0
  8 10  1  0
 10 11  2  0
 10 12  1  0
 12 13  1  0
 13 14  1  6
 14 15  1  0
 15 16  1  1
 15 17  1  0
 17 18  1  0
 18 19  1  0
 19 20  1  0
 20 21  1  0
 21 22  1  0
 22 23  1  0
 23 24  1  0
 13 25  1  0
 25 26  1  1
 25 27  1  0
 27 28  1  0
 28 29  1  0
 29 30  1  0
 30 31  1  0
 31 32  2  0
 32 33  1  0
 33 34  2  0
 34 35  1  0
 35 36  2  0
  9  4  1  0
 24  6  1  0
 36 31  1  0
M  END
$$$$
