
     RDKit          3D

 36 38  0  0  0  0  0  0  0  0999 V2000
  -23.4010  -40.4089  -11.9342 C   0  0  0  0  0  0  0  0  0  0  0  0
  -22.3844  -41.3082  -12.1985 O   0  0  0  0  0  0  0  0  0  0  0  0
  -21.3200  -40.7494  -12.8613 C   0  0  0  0  0  0  0  0  0  0  0  0
  -20.0705  -41.0098  -12.0938 C   0  0  0  0  0  0  0  0  0  0  0  0
  -19.0946  -41.8531  -12.5431 C   0  0  0  0  0  0  0  0  0  0  0  0
  -17.8926  -42.1224  -11.8335 C   0  0  0  0  0  0  0  0  0  0  0  0
  -17.6928  -41.5025  -10.6217 C   0  0  0  0  0  0  0  0  0  0  0  0
  -18.6397  -40.6385  -10.1126 C   0  0  0  0  0  0  0  0  0  0  0  0
  -19.8162  -40.4258  -10.8910 C   0  0  0  0  0  0  0  0  0  0  0  0
  -18.6954  -39.8532   -8.8770 C   0  0  0  0  0  0  0  0  0  0  0  0
  -19.8634  -39.7933   -8.2541 O   0  0  0  0  0  0  0  0  0  0  0  0
  -17.7684  -39.0942   -8.1350 N   0  0  0  0  0  0  0  0  0  0  0  0
  -16.3117  -39.3211   -8.0693 C   0  0  1  0  0  0  0  0  0  0  0  0
  -15.6842  -38.3130   -8.9699 C   0  0  0  0  0  0  0  0  0  0  0  0
  -14.2168  -38.1958   -8.9850 C   0  0  2  0  0  0  0  0  0  0  0  0
  -13.9020  -37.0096   -9.9239 C   0  0  0  0  0  0  0  0  0  0  0  0
  -13.4623  -39.3637   -9.5268 C   0  0  0  0  0  0  0  0  0  0  0  0
  -14.0080  -40.0154  -10.7255 C   0  0  0  0  0  0  0  0  0  0  0  0
  -13.5000  -39.4621  -12.0379 C   0  0  0  0  0  0  0  0  0  0  0  0
  -13.6222  -40.5911  -13.0634 C   0  0  0  0  0  0  0  0  0  0  0  0
  -15.0357  -40.7331  -13.5530 C   0  0  0  0  0  0  0  0  0  0  0  0
  -15.3420  -42.1293  -14.0395 C   0  0  0  0  0  0  0  0  0  0  0  0
  -15.6891  -43.0611  -12.8924 C   0  0  0  0  0  0  0  0  0  0  0  0
  -17.1083  -43.0425  -12.5908 N   0  0  0  0  0  0  0  0  0  0  0  0
  -15.8827  -39.0847   -6.6083 C   0  0  2  0  0  0  0  0  0  0  0  0
  -14.7832  -39.7923   -6.2371 O   0  0  0  0  0  0  0  0  0  0  0  0
  -17.0596  -39.4702   -5.7495 C   0  0  0  0  0  0  0  0  0  0  0  0
  -18.1899  -38.6224   -5.8040 N   0  0  0  0  0  0  0  0  0  0  0  0
  -19.3181  -38.9726   -5.0115 C   0  0  0  0  0  0  0  0  0  0  0  0
  -20.5584  -38.9847   -5.9103 C   0  0  0  0  0  0  0  0  0  0  0  0
  -21.2187  -40.2868   -5.7347 C   0  0  0  0  0  0  0  0  0  0  0  0
  -22.2384  -40.4124   -4.8251 C   0  0  0  0  0  0  0  0  0  0  0  0
  -22.8553  -41.6528   -4.6656 C   0  0  0  0  0  0  0  0  0  0  0  0
  -22.4703  -42.7186   -5.3824 N   0  0  0  0  0  0  0  0  0  0  0  0
  -21.4737  -42.6119   -6.2767 C   0  0  0  0  0  0  0  0  0  0  0  0
  -20.8386  -41.3813   -6.4567 C   0  0  0  0  0  0  0  0  0  0  0  0
  1  2  1  0
  2  3  1  0
  3  4  1  0
  4  5  2  0
  5  6  1  0
  6  7  2  0
  7  8  1  0
  8  9  2  0
  8 10  1  0
 10 11  2  0
 10 12  1  0
 12 13  1  0
 13 14  1  6
 14 15  1  0
 15 16  1  6
 15 17  1  0
 17 18  1  0
 18 19  1  0
 19 20  1  0
 20 21  1  0
 21 22  1  0
 22 23  1  0
 23 24  1  0
 13 25  1  0
 25 26  1  1
 25 27  1  0
 27 28  1  0
 28 29  1  0
 29 30  1  0
 30 31  1  0
 31 32  2  0
 32 33  1  0
 33 34  2  0
 34 35  1  0
 35 36  2  0
  9  4  1  0
 24  6  1  0
 36 31  1  0
M  END
$$$$
