
     RDKit          3D

 36 38  0  0  0  0  0  0  0  0999 V2000
  -21.8628  -47.7521   -8.5313 C   0  0  0  0  0  0  0  0  0  0  0  0
  -21.0222  -46.6743   -8.3224 O   0  0  0  0  0  0  0  0  0  0  0  0
  -20.7618  -45.9562   -9.4630 C   0  0  0  0  0  0  0  0  0  0  0  0
  -19.5626  -45.1008   -9.2432 C   0  0  0  0  0  0  0  0  0  0  0  0
  -18.3189  -45.4515   -9.6853 C   0  0  0  0  0  0  0  0  0  0  0  0
  -17.1561  -44.6572   -9.4901 C   0  0  0  0  0  0  0  0  0  0  0  0
  -17.2816  -43.4644   -8.8162 C   0  0  0  0  0  0  0  0  0  0  0  0
  -18.5105  -43.0523   -8.3448 C   0  0  0  0  0  0  0  0  0  0  0  0
  -19.6242  -43.9110   -8.5851 C   0  0  0  0  0  0  0  0  0  0  0  0
  -18.9352  -41.8576   -7.6110 C   0  0  0  0  0  0  0  0  0  0  0  0
  -19.8212  -42.0303   -6.6409 O   0  0  0  0  0  0  0  0  0  0  0  0
  -18.6269  -40.4840   -7.6775 N   0  0  0  0  0  0  0  0  0  0  0  0
  -17.3512  -39.8992   -8.1339 C   0  0  1  0  0  0  0  0  0  0  0  0
  -17.5776  -39.4218   -9.5274 C   0  0  0  0  0  0  0  0  0  0  0  0
  -16.5165  -38.6451  -10.1891 C   0  0  2  0  0  0  0  0  0  0  0  0
  -17.1002  -38.2195  -11.5551 C   0  0  0  0  0  0  0  0  0  0  0  0
  -15.2489  -39.3731  -10.4896 C   0  0  0  0  0  0  0  0  0  0  0  0
  -15.3702  -40.7465  -10.9979 C   0  0  0  0  0  0  0  0  0  0  0  0
  -15.4411  -40.8639  -12.5039 C   0  0  0  0  0  0  0  0  0  0  0  0
  -14.9199  -42.2584  -12.8573 C   0  0  0  0  0  0  0  0  0  0  0  0
  -15.9690  -43.3086  -12.6238 C   0  0  0  0  0  0  0  0  0  0  0  0
  -15.3746  -44.6700  -12.3533 C   0  0  0  0  0  0  0  0  0  0  0  0
  -14.9568  -44.8230  -10.9019 C   0  0  0  0  0  0  0  0  0  0  0  0
  -16.0401  -45.3245  -10.0771 N   0  0  0  0  0  0  0  0  0  0  0  0
  -17.0365  -38.7151   -7.1993 C   0  0  2  0  0  0  0  0  0  0  0  0
  -15.7322  -38.3331   -7.2166 O   0  0  0  0  0  0  0  0  0  0  0  0
  -17.4293  -39.1503   -5.8110 C   0  0  0  0  0  0  0  0  0  0  0  0
  -18.7148  -38.7658   -5.3651 N   0  0  0  0  0  0  0  0  0  0  0  0
  -19.7670  -38.7418   -6.3221 C   0  0  0  0  0  0  0  0  0  0  0  0
  -21.0850  -38.4745   -5.5887 C   0  0  0  0  0  0  0  0  0  0  0  0
  -21.8354  -39.7385   -5.5537 C   0  0  0  0  0  0  0  0  0  0  0  0
  -21.9303  -40.4380   -4.3770 C   0  0  0  0  0  0  0  0  0  0  0  0
  -22.6425  -41.6367   -4.3566 C   0  0  0  0  0  0  0  0  0  0  0  0
  -23.2326  -42.1142   -5.4619 N   0  0  0  0  0  0  0  0  0  0  0  0
  -23.1489  -41.4413   -6.6215 C   0  0  0  0  0  0  0  0  0  0  0  0
  -22.4419  -40.2381   -6.6701 C   0  0  0  0  0  0  0  0  0  0  0  0
  1  2  1  0
  2  3  1  0
  3  4  1  0
  4  5  2  0
  5  6  1  0
  6  7  2  0
  7  8  1  0
  8  9  2  0
  8 10  1  0
 10 11  2  0
 10 12  1  0
 12 13  1  0
 13 14  1  6
 14 15  1  0
 15 16  1  6
 15 17  1  0
 17 18  1  0
 18 19  1  0
 19 20  1  0
 20 21  1  0
 21 22  1  0
 22 23  1  0
 23 24  1  0
 13 25  1  0
 25 26  1  1
 25 27  1  0
 27 28  1  0
 28 29  1  0
 29 30  1  0
 30 31  1  0
 31 32  2  0
 32 33  1  0
 33 34  2  0
 34 35  1  0
 35 36  2  0
  9  4  1  0
 24  6  1  0
 36 31  1  0
M  END
$$$$
