
     RDKit          3D

 36 38  0  0  0  0  0  0  0  0999 V2000
  -20.3553  -48.7783   -5.9766 C   0  0  0  0  0  0  0  0  0  0  0  0
  -20.1918  -47.4164   -6.1512 O   0  0  0  0  0  0  0  0  0  0  0  0
  -19.1324  -47.0934   -6.9621 C   0  0  0  0  0  0  0  0  0  0  0  0
  -19.3138  -45.7093   -7.4812 C   0  0  0  0  0  0  0  0  0  0  0  0
  -20.4593  -45.3023   -8.1036 C   0  0  0  0  0  0  0  0  0  0  0  0
  -20.6617  -43.9894   -8.6100 C   0  0  0  0  0  0  0  0  0  0  0  0
  -19.6490  -43.0688   -8.4703 C   0  0  0  0  0  0  0  0  0  0  0  0
  -18.4672  -43.4164   -7.8502 C   0  0  0  0  0  0  0  0  0  0  0  0
  -18.3493  -44.7552   -7.3716 C   0  0  0  0  0  0  0  0  0  0  0  0
  -17.2439  -42.6622   -7.5652 C   0  0  0  0  0  0  0  0  0  0  0  0
  -16.0926  -43.2957   -7.7361 O   0  0  0  0  0  0  0  0  0  0  0  0
  -16.9583  -41.3542   -7.1249 N   0  0  0  0  0  0  0  0  0  0  0  0
  -17.7880  -40.1564   -7.3585 C   0  0  1  0  0  0  0  0  0  0  0  0
  -18.5313  -39.9015   -6.0922 C   0  0  0  0  0  0  0  0  0  0  0  0
  -19.3260  -38.6677   -5.9757 C   0  0  2  0  0  0  0  0  0  0  0  0
  -19.8709  -38.6567   -4.5298 C   0  0  0  0  0  0  0  0  0  0  0  0
  -20.5173  -38.5578   -6.8676 C   0  0  0  0  0  0  0  0  0  0  0  0
  -21.3365  -39.7653   -7.0421 C   0  0  0  0  0  0  0  0  0  0  0  0
  -22.4686  -39.9152   -6.0508 C   0  0  0  0  0  0  0  0  0  0  0  0
  -23.5335  -40.7768   -6.7324 C   0  0  0  0  0  0  0  0  0  0  0  0
  -23.1669  -42.2334   -6.6893 C   0  0  0  0  0  0  0  0  0  0  0  0
  -23.7927  -43.0211   -7.8153 C   0  0  0  0  0  0  0  0  0  0  0  0
  -22.9921  -42.8997   -9.0994 C   0  0  0  0  0  0  0  0  0  0  0  0
  -21.9618  -43.9172   -9.1928 N   0  0  0  0  0  0  0  0  0  0  0  0
  -16.8259  -38.9928   -7.6663 C   0  0  2  0  0  0  0  0  0  0  0  0
  -17.4530  -37.8414   -8.0243 O   0  0  0  0  0  0  0  0  0  0  0  0
  -15.9305  -39.4628   -8.7837 C   0  0  0  0  0  0  0  0  0  0  0  0
  -14.7514  -40.1464   -8.4075 N   0  0  0  0  0  0  0  0  0  0  0  0
  -14.5015  -41.4126   -9.0058 C   0  0  0  0  0  0  0  0  0  0  0  0
  -14.1031  -41.1891  -10.4679 C   0  0  0  0  0  0  0  0  0  0  0  0
  -12.6768  -41.5237  -10.5933 C   0  0  0  0  0  0  0  0  0  0  0  0
  -12.0821  -41.5038  -11.8298 C   0  0  0  0  0  0  0  0  0  0  0  0
  -10.7295  -41.8254  -11.9366 C   0  0  0  0  0  0  0  0  0  0  0  0
  -10.0046  -42.1520  -10.8568 N   0  0  0  0  0  0  0  0  0  0  0  0
  -10.5722  -42.1761   -9.6394 C   0  0  0  0  0  0  0  0  0  0  0  0
  -11.9251  -41.8582   -9.5039 C   0  0  0  0  0  0  0  0  0  0  0  0
  1  2  1  0
  2  3  1  0
  3  4  1  0
  4  5  2  0
  5  6  1  0
  6  7  2  0
  7  8  1  0
  8  9  2  0
  8 10  1  0
 10 11  2  0
 10 12  1  0
 12 13  1  0
 13 14  1  1
 14 15  1  0
 15 16  1  1
 15 17  1  0
 17 18  1  0
 18 19  1  0
 19 20  1  0
 20 21  1  0
 21 22  1  0
 22 23  1  0
 23 24  1  0
 13 25  1  0
 25 26  1  6
 25 27  1  0
 27 28  1  0
 28 29  1  0
 29 30  1  0
 30 31  1  0
 31 32  2  0
 32 33  1  0
 33 34  2  0
 34 35  1  0
 35 36  2  0
  9  4  1  0
 24  6  1  0
 36 31  1  0
M  END
$$$$
