
     RDKit          3D

 36 38  0  0  0  0  0  0  0  0999 V2000
  -21.2563  -45.8256  -10.0909 C   0  0  0  0  0  0  0  0  0  0  0  0
  -19.9378  -46.1701   -9.8561 O   0  0  0  0  0  0  0  0  0  0  0  0
  -19.1162  -45.9505  -10.9336 C   0  0  0  0  0  0  0  0  0  0  0  0
  -17.9724  -45.0940  -10.5139 C   0  0  0  0  0  0  0  0  0  0  0  0
  -16.6805  -45.3725  -10.8589 C   0  0  0  0  0  0  0  0  0  0  0  0
  -15.5686  -44.5752  -10.4732 C   0  0  0  0  0  0  0  0  0  0  0  0
  -15.7978  -43.4563   -9.7062 C   0  0  0  0  0  0  0  0  0  0  0  0
  -17.0796  -43.1193   -9.3249 C   0  0  0  0  0  0  0  0  0  0  0  0
  -18.1363  -43.9751   -9.7564 C   0  0  0  0  0  0  0  0  0  0  0  0
  -17.6125  -42.0109   -8.5286 C   0  0  0  0  0  0  0  0  0  0  0  0
  -18.5839  -42.2964   -7.6738 O   0  0  0  0  0  0  0  0  0  0  0  0
  -17.3429  -40.6308   -8.4340 N   0  0  0  0  0  0  0  0  0  0  0  0
  -16.0477  -39.9764   -8.7018 C   0  0  1  0  0  0  0  0  0  0  0  0
  -16.1507  -39.3715  -10.0599 C   0  0  0  0  0  0  0  0  0  0  0  0
  -15.0547  -38.5109  -10.5348 C   0  0  2  0  0  0  0  0  0  0  0  0
  -15.5141  -37.9681  -11.9067 C   0  0  0  0  0  0  0  0  0  0  0  0
  -13.7412  -39.1780  -10.7726 C   0  0  0  0  0  0  0  0  0  0  0  0
  -13.7680  -40.4981  -11.4176 C   0  0  0  0  0  0  0  0  0  0  0  0
  -13.6862  -40.4707  -12.9274 C   0  0  0  0  0  0  0  0  0  0  0  0
  -13.0886  -41.8124  -13.3559 C   0  0  0  0  0  0  0  0  0  0  0  0
  -14.1217  -42.9033  -13.3297 C   0  0  0  0  0  0  0  0  0  0  0  0
  -13.5138  -44.2710  -13.1298 C   0  0  0  0  0  0  0  0  0  0  0  0
  -13.2366  -44.5546  -11.6644 C   0  0  0  0  0  0  0  0  0  0  0  0
  -14.3795  -45.1575  -11.0044 N   0  0  0  0  0  0  0  0  0  0  0  0
  -15.8645  -38.8817   -7.6329 C   0  0  2  0  0  0  0  0  0  0  0  0
  -14.6701  -38.9389   -6.9869 O   0  0  0  0  0  0  0  0  0  0  0  0
  -16.9931  -39.0522   -6.6488 C   0  0  0  0  0  0  0  0  0  0  0  0
  -18.2430  -38.5015   -7.0147 N   0  0  0  0  0  0  0  0  0  0  0  0
  -19.3193  -38.6346   -6.0941 C   0  0  0  0  0  0  0  0  0  0  0  0
  -20.5724  -38.0128   -6.7183 C   0  0  0  0  0  0  0  0  0  0  0  0
  -21.1581  -39.0129   -7.6232 C   0  0  0  0  0  0  0  0  0  0  0  0
  -21.6873  -40.1681   -7.1052 C   0  0  0  0  0  0  0  0  0  0  0  0
  -22.2378  -41.1103   -7.9734 C   0  0  0  0  0  0  0  0  0  0  0  0
  -22.2581  -40.9070   -9.2986 N   0  0  0  0  0  0  0  0  0  0  0  0
  -21.7440  -39.7812   -9.8212 C   0  0  0  0  0  0  0  0  0  0  0  0
  -21.1866  -38.8209   -8.9745 C   0  0  0  0  0  0  0  0  0  0  0  0
  1  2  1  0
  2  3  1  0
  3  4  1  0
  4  5  2  0
  5  6  1  0
  6  7  2  0
  7  8  1  0
  8  9  2  0
  8 10  1  0
 10 11  2  0
 10 12  1  0
 12 13  1  0
 13 14  1  6
 14 15  1  0
 15 16  1  6
 15 17  1  0
 17 18  1  0
 18 19  1  0
 19 20  1  0
 20 21  1  0
 21 22  1  0
 22 23  1  0
 23 24  1  0
 13 25  1  0
 25 26  1  1
 25 27  1  0
 27 28  1  0
 28 29  1  0
 29 30  1  0
 30 31  1  0
 31 32  2  0
 32 33  1  0
 33 34  2  0
 34 35  1  0
 35 36  2  0
  9  4  1  0
 24  6  1  0
 36 31  1  0
M  END
$$$$
