
     RDKit          3D

 36 38  0  0  0  0  0  0  0  0999 V2000
  -23.6292  -35.4614   -8.6715 C   0  0  0  0  0  0  0  0  0  0  0  0
  -23.0206  -36.6061   -9.1526 O   0  0  0  0  0  0  0  0  0  0  0  0
  -23.4665  -37.7559   -8.5497 C   0  0  0  0  0  0  0  0  0  0  0  0
  -22.3036  -38.5052   -7.9981 C   0  0  0  0  0  0  0  0  0  0  0  0
  -22.4474  -39.5503   -7.1306 C   0  0  0  0  0  0  0  0  0  0  0  0
  -21.3578  -40.2836   -6.5868 C   0  0  0  0  0  0  0  0  0  0  0  0
  -20.0798  -39.9257   -6.9492 C   0  0  0  0  0  0  0  0  0  0  0  0
  -19.8665  -38.8796   -7.8223 C   0  0  0  0  0  0  0  0  0  0  0  0
  -21.0171  -38.1986   -8.3200 C   0  0  0  0  0  0  0  0  0  0  0  0
  -18.6446  -38.2894   -8.3746 C   0  0  0  0  0  0  0  0  0  0  0  0
  -18.6048  -36.9684   -8.4715 O   0  0  0  0  0  0  0  0  0  0  0  0
  -17.4242  -38.7973   -8.8634 N   0  0  0  0  0  0  0  0  0  0  0  0
  -16.7734  -40.0534   -8.4434 C   0  0  1  0  0  0  0  0  0  0  0  0
  -17.0610  -41.0566   -9.5073 C   0  0  0  0  0  0  0  0  0  0  0  0
  -16.4009  -42.3706   -9.4361 C   0  0  2  0  0  0  0  0  0  0  0  0
  -16.8212  -43.1194  -10.7208 C   0  0  0  0  0  0  0  0  0  0  0  0
  -16.7938  -43.2508   -8.2969 C   0  0  0  0  0  0  0  0  0  0  0  0
  -18.2200  -43.2944   -7.9456 C   0  0  0  0  0  0  0  0  0  0  0  0
  -19.0178  -44.3655   -8.6549 C   0  0  0  0  0  0  0  0  0  0  0  0
  -20.2102  -44.6901   -7.7527 C   0  0  0  0  0  0  0  0  0  0  0  0
  -21.2912  -43.6547   -7.8831 C   0  0  0  0  0  0  0  0  0  0  0  0
  -22.1538  -43.5600   -6.6474 C   0  0  0  0  0  0  0  0  0  0  0  0
  -21.5113  -42.6953   -5.5778 C   0  0  0  0  0  0  0  0  0  0  0  0
  -21.8712  -41.2972   -5.7241 N   0  0  0  0  0  0  0  0  0  0  0  0
  -15.2608  -39.7723   -8.3577 C   0  0  2  0  0  0  0  0  0  0  0  0
  -14.6472  -40.3818   -7.3092 O   0  0  0  0  0  0  0  0  0  0  0  0
  -15.1096  -38.2769   -8.2468 C   0  0  0  0  0  0  0  0  0  0  0  0
  -15.6440  -37.5048   -9.3039 N   0  0  0  0  0  0  0  0  0  0  0  0
  -14.8831  -36.3933   -9.7614 C   0  0  0  0  0  0  0  0  0  0  0  0
  -15.4285  -35.9593  -11.1254 C   0  0  0  0  0  0  0  0  0  0  0  0
  -14.3285  -36.0657  -12.0953 C   0  0  0  0  0  0  0  0  0  0  0  0
  -13.0358  -35.8723  -11.6778 C   0  0  0  0  0  0  0  0  0  0  0  0
  -12.0011  -35.9733  -12.6073 C   0  0  0  0  0  0  0  0  0  0  0  0
  -12.2476  -36.2546  -13.8950 N   0  0  0  0  0  0  0  0  0  0  0  0
  -13.5077  -36.4466  -14.3193 C   0  0  0  0  0  0  0  0  0  0  0  0
  -14.5628  -36.3515  -13.4096 C   0  0  0  0  0  0  0  0  0  0  0  0
  1  2  1  0
  2  3  1  0
  3  4  1  0
  4  5  2  0
  5  6  1  0
  6  7  2  0
  7  8  1  0
  8  9  2  0
  8 10  1  0
 10 11  2  0
 10 12  1  0
 12 13  1  0
 13 14  1  6
 14 15  1  0
 15 16  1  6
 15 17  1  0
 17 18  1  0
 18 19  1  0
 19 20  1  0
 20 21  1  0
 21 22  1  0
 22 23  1  0
 23 24  1  0
 13 25  1  0
 25 26  1  1
 25 27  1  0
 27 28  1  0
 28 29  1  0
 29 30  1  0
 30 31  1  0
 31 32  2  0
 32 33  1  0
 33 34  2  0
 34 35  1  0
 35 36  2  0
  9  4  1  0
 24  6  1  0
 36 31  1  0
M  END
$$$$
