
     RDKit          3D

 36 38  0  0  0  0  0  0  0  0999 V2000
  -16.3993  -47.8812   -7.8005 C   0  0  0  0  0  0  0  0  0  0  0  0
  -17.4600  -47.1659   -8.3252 O   0  0  0  0  0  0  0  0  0  0  0  0
  -18.4418  -46.8924   -7.4056 C   0  0  0  0  0  0  0  0  0  0  0  0
  -19.0140  -45.5455   -7.6824 C   0  0  0  0  0  0  0  0  0  0  0  0
  -20.3592  -45.3140   -7.7285 C   0  0  0  0  0  0  0  0  0  0  0  0
  -20.9350  -44.0410   -7.9910 C   0  0  0  0  0  0  0  0  0  0  0  0
  -20.0954  -42.9743   -8.2140 C   0  0  0  0  0  0  0  0  0  0  0  0
  -18.7268  -43.1414   -8.1802 C   0  0  0  0  0  0  0  0  0  0  0  0
  -18.2348  -44.4529   -7.9095 C   0  0  0  0  0  0  0  0  0  0  0  0
  -17.6142  -42.2081   -8.3745 C   0  0  0  0  0  0  0  0  0  0  0  0
  -16.5732  -42.6483   -9.0663 O   0  0  0  0  0  0  0  0  0  0  0  0
  -17.3477  -40.8794   -7.9876 N   0  0  0  0  0  0  0  0  0  0  0  0
  -18.3513  -39.8242   -7.7493 C   0  0  1  0  0  0  0  0  0  0  0  0
  -18.5070  -39.7125   -6.2714 C   0  0  0  0  0  0  0  0  0  0  0  0
  -19.3341  -38.6223   -5.7286 C   0  0  2  0  0  0  0  0  0  0  0  0
  -19.2025  -38.7231   -4.1923 C   0  0  0  0  0  0  0  0  0  0  0  0
  -20.7955  -38.6867   -6.0237 C   0  0  0  0  0  0  0  0  0  0  0  0
  -21.4383  -40.0053   -5.9376 C   0  0  0  0  0  0  0  0  0  0  0  0
  -22.0043  -40.3500   -4.5783 C   0  0  0  0  0  0  0  0  0  0  0  0
  -23.1309  -41.3572   -4.8179 C   0  0  0  0  0  0  0  0  0  0  0  0
  -22.5874  -42.7379   -5.0550 C   0  0  0  0  0  0  0  0  0  0  0  0
  -23.5223  -43.5947   -5.8746 C   0  0  0  0  0  0  0  0  0  0  0  0
  -23.3741  -43.3255   -7.3613 C   0  0  0  0  0  0  0  0  0  0  0  0
  -22.3560  -44.1652   -7.9643 N   0  0  0  0  0  0  0  0  0  0  0  0
  -17.7815  -38.5176   -8.3349 C   0  0  2  0  0  0  0  0  0  0  0  0
  -18.7253  -37.5751   -8.5961 O   0  0  0  0  0  0  0  0  0  0  0  0
  -17.0634  -38.8959   -9.6047 C   0  0  0  0  0  0  0  0  0  0  0  0
  -15.6507  -38.8460   -9.5740 N   0  0  0  0  0  0  0  0  0  0  0  0
  -14.9781  -38.4215  -10.7535 C   0  0  0  0  0  0  0  0  0  0  0  0
  -14.1163  -37.2027  -10.4095 C   0  0  0  0  0  0  0  0  0  0  0  0
  -13.3580  -36.8428  -11.6168 C   0  0  0  0  0  0  0  0  0  0  0  0
  -14.0082  -36.2669  -12.6790 C   0  0  0  0  0  0  0  0  0  0  0  0
  -13.2790  -35.9322  -13.8196 C   0  0  0  0  0  0  0  0  0  0  0  0
  -11.9602  -36.1629  -13.8947 N   0  0  0  0  0  0  0  0  0  0  0  0
  -11.3092  -36.7260  -12.8633 C   0  0  0  0  0  0  0  0  0  0  0  0
  -12.0151  -37.0710  -11.7089 C   0  0  0  0  0  0  0  0  0  0  0  0
  1  2  1  0
  2  3  1  0
  3  4  1  0
  4  5  2  0
  5  6  1  0
  6  7  2  0
  7  8  1  0
  8  9  2  0
  8 10  1  0
 10 11  2  0
 10 12  1  0
 12 13  1  0
 13 14  1  1
 14 15  1  0
 15 16  1  1
 15 17  1  0
 17 18  1  0
 18 19  1  0
 19 20  1  0
 20 21  1  0
 21 22  1  0
 22 23  1  0
 23 24  1  0
 13 25  1  0
 25 26  1  6
 25 27  1  0
 27 28  1  0
 28 29  1  0
 29 30  1  0
 30 31  1  0
 31 32  2  0
 32 33  1  0
 33 34  2  0
 34 35  1  0
 35 36  2  0
  9  4  1  0
 24  6  1  0
 36 31  1  0
M  END
$$$$
