
     RDKit          3D

 36 38  0  0  0  0  0  0  0  0999 V2000
  -14.6409  -44.4508  -14.0923 C   0  0  0  0  0  0  0  0  0  0  0  0
  -13.8314  -43.7541  -13.2140 O   0  0  0  0  0  0  0  0  0  0  0  0
  -13.3002  -42.6088  -13.7529 C   0  0  0  0  0  0  0  0  0  0  0  0
  -13.3603  -41.5158  -12.7431 C   0  0  0  0  0  0  0  0  0  0  0  0
  -12.4181  -40.5297  -12.6707 C   0  0  0  0  0  0  0  0  0  0  0  0
  -12.4478  -39.4746  -11.7183 C   0  0  0  0  0  0  0  0  0  0  0  0
  -13.4819  -39.4377  -10.8118 C   0  0  0  0  0  0  0  0  0  0  0  0
  -14.4661  -40.4036  -10.8324 C   0  0  0  0  0  0  0  0  0  0  0  0
  -14.3583  -41.4256  -11.8220 C   0  0  0  0  0  0  0  0  0  0  0  0
  -15.6602  -40.6128  -10.0096 C   0  0  0  0  0  0  0  0  0  0  0  0
  -15.9414  -41.8605   -9.6632 O   0  0  0  0  0  0  0  0  0  0  0  0
  -16.6516  -39.7757   -9.4595 N   0  0  0  0  0  0  0  0  0  0  0  0
  -16.4789  -38.3638   -9.0665 C   0  0  1  0  0  0  0  0  0  0  0  0
  -17.0764  -37.5434  -10.1579 C   0  0  0  0  0  0  0  0  0  0  0  0
  -17.1918  -36.0885   -9.9656 C   0  0  2  0  0  0  0  0  0  0  0  0
  -17.9370  -35.5601  -11.2119 C   0  0  0  0  0  0  0  0  0  0  0  0
  -15.9122  -35.3240   -9.8937 C   0  0  0  0  0  0  0  0  0  0  0  0
  -14.8506  -35.7059  -10.8354 C   0  0  0  0  0  0  0  0  0  0  0  0
  -14.8703  -34.9628  -12.1523 C   0  0  0  0  0  0  0  0  0  0  0  0
  -13.4362  -34.9823  -12.6852 C   0  0  0  0  0  0  0  0  0  0  0  0
  -13.1073  -36.3043  -13.3191 C   0  0  0  0  0  0  0  0  0  0  0  0
  -11.6283  -36.6069  -13.2921 C   0  0  0  0  0  0  0  0  0  0  0  0
  -11.1970  -37.1863  -11.9568 C   0  0  0  0  0  0  0  0  0  0  0  0
  -11.3162  -38.6322  -11.9306 N   0  0  0  0  0  0  0  0  0  0  0  0
  -17.2544  -38.1627   -7.7502 C   0  0  2  0  0  0  0  0  0  0  0  0
  -16.5328  -38.4576   -6.6368 O   0  0  0  0  0  0  0  0  0  0  0  0
  -18.4688  -39.0516   -7.8296 C   0  0  0  0  0  0  0  0  0  0  0  0
  -18.3959  -40.2882   -7.1478 N   0  0  0  0  0  0  0  0  0  0  0  0
  -19.5077  -41.1691   -7.2552 C   0  0  0  0  0  0  0  0  0  0  0  0
  -19.2453  -42.3927   -6.3718 C   0  0  0  0  0  0  0  0  0  0  0  0
  -20.5311  -42.7978   -5.7847 C   0  0  0  0  0  0  0  0  0  0  0  0
  -21.5312  -43.2649   -6.5997 C   0  0  0  0  0  0  0  0  0  0  0  0
  -22.7472  -43.6437   -6.0317 C   0  0  0  0  0  0  0  0  0  0  0  0
  -22.9537  -43.5593   -4.7095 N   0  0  0  0  0  0  0  0  0  0  0  0
  -21.9845  -43.1041   -3.8982 C   0  0  0  0  0  0  0  0  0  0  0  0
  -20.7571  -42.7180   -4.4406 C   0  0  0  0  0  0  0  0  0  0  0  0
  1  2  1  0
  2  3  1  0
  3  4  1  0
  4  5  2  0
  5  6  1  0
  6  7  2  0
  7  8  1  0
  8  9  2  0
  8 10  1  0
 10 11  2  0
 10 12  1  0
 12 13  1  0
 13 14  1  6
 14 15  1  0
 15 16  1  6
 15 17  1  0
 17 18  1  0
 18 19  1  0
 19 20  1  0
 20 21  1  0
 21 22  1  0
 22 23  1  0
 23 24  1  0
 13 25  1  0
 25 26  1  1
 25 27  1  0
 27 28  1  0
 28 29  1  0
 29 30  1  0
 30 31  1  0
 31 32  2  0
 32 33  1  0
 33 34  2  0
 34 35  1  0
 35 36  2  0
  9  4  1  0
 24  6  1  0
 36 31  1  0
M  END
$$$$
