
     RDKit          3D

 36 38  0  0  0  0  0  0  0  0999 V2000
  -19.4168  -45.7965   -3.4288 C   0  0  0  0  0  0  0  0  0  0  0  0
  -19.6738  -44.5322   -2.9312 O   0  0  0  0  0  0  0  0  0  0  0  0
  -20.8711  -44.0117   -3.3554 C   0  0  0  0  0  0  0  0  0  0  0  0
  -20.6841  -43.3669   -4.6849 C   0  0  0  0  0  0  0  0  0  0  0  0
  -21.6340  -43.4152   -5.6651 C   0  0  0  0  0  0  0  0  0  0  0  0
  -21.4843  -42.8110   -6.9431 C   0  0  0  0  0  0  0  0  0  0  0  0
  -20.3169  -42.1370   -7.2178 C   0  0  0  0  0  0  0  0  0  0  0  0
  -19.3185  -42.0508   -6.2702 C   0  0  0  0  0  0  0  0  0  0  0  0
  -19.5526  -42.6861   -5.0144 C   0  0  0  0  0  0  0  0  0  0  0  0
  -18.0001  -41.4120   -6.2820 C   0  0  0  0  0  0  0  0  0  0  0  0
  -17.0041  -42.0767   -5.7143 O   0  0  0  0  0  0  0  0  0  0  0  0
  -17.4863  -40.1937   -6.7697 N   0  0  0  0  0  0  0  0  0  0  0  0
  -18.0008  -39.4319   -7.9241 C   0  0  1  0  0  0  0  0  0  0  0  0
  -18.8090  -38.3108   -7.3665 C   0  0  0  0  0  0  0  0  0  0  0  0
  -19.3214  -37.2831   -8.2877 C   0  0  2  0  0  0  0  0  0  0  0  0
  -20.0113  -36.2278   -7.3943 C   0  0  0  0  0  0  0  0  0  0  0  0
  -20.3503  -37.7273   -9.2731 C   0  0  0  0  0  0  0  0  0  0  0  0
  -21.3892  -38.6462   -8.7877 C   0  0  0  0  0  0  0  0  0  0  0  0
  -22.6318  -37.9742   -8.2480 C   0  0  0  0  0  0  0  0  0  0  0  0
  -23.7753  -38.9778   -8.4100 C   0  0  0  0  0  0  0  0  0  0  0  0
  -23.7447  -40.0196   -7.3275 C   0  0  0  0  0  0  0  0  0  0  0  0
  -24.3959  -41.3141   -7.7519 C   0  0  0  0  0  0  0  0  0  0  0  0
  -23.4476  -42.1829   -8.5583 C   0  0  0  0  0  0  0  0  0  0  0  0
  -22.6620  -43.0589   -7.7092 N   0  0  0  0  0  0  0  0  0  0  0  0
  -16.7780  -38.8905   -8.6898 C   0  0  2  0  0  0  0  0  0  0  0  0
  -17.0982  -38.0936   -9.7433 O   0  0  0  0  0  0  0  0  0  0  0  0
  -16.0060  -40.0934   -9.1676 C   0  0  0  0  0  0  0  0  0  0  0  0
  -14.7920  -40.3748   -8.4996 N   0  0  0  0  0  0  0  0  0  0  0  0
  -14.2256  -41.6681   -8.6739 C   0  0  0  0  0  0  0  0  0  0  0  0
  -13.5822  -41.7337  -10.0625 C   0  0  0  0  0  0  0  0  0  0  0  0
  -12.2038  -41.2382   -9.9346 C   0  0  0  0  0  0  0  0  0  0  0  0
  -11.9782  -39.8929   -9.7856 C   0  0  0  0  0  0  0  0  0  0  0  0
  -10.6664  -39.4345   -9.6678 C   0  0  0  0  0  0  0  0  0  0  0  0
   -9.6279  -40.2823   -9.6976 N   0  0  0  0  0  0  0  0  0  0  0  0
   -9.8322  -41.6021   -9.8429 C   0  0  0  0  0  0  0  0  0  0  0  0
  -11.1358  -42.0881   -9.9630 C   0  0  0  0  0  0  0  0  0  0  0  0
  1  2  1  0
  2  3  1  0
  3  4  1  0
  4  5  2  0
  5  6  1  0
  6  7  2  0
  7  8  1  0
  8  9  2  0
  8 10  1  0
 10 11  2  0
 10 12  1  0
 12 13  1  0
 13 14  1  1
 14 15  1  0
 15 16  1  1
 15 17  1  0
 17 18  1  0
 18 19  1  0
 19 20  1  0
 20 21  1  0
 21 22  1  0
 22 23  1  0
 23 24  1  0
 13 25  1  0
 25 26  1  6
 25 27  1  0
 27 28  1  0
 28 29  1  0
 29 30  1  0
 30 31  1  0
 31 32  2  0
 32 33  1  0
 33 34  2  0
 34 35  1  0
 35 36  2  0
  9  4  1  0
 24  6  1  0
 36 31  1  0
M  END
$$$$
