
     RDKit          3D

 36 38  0  0  0  0  0  0  0  0999 V2000
  -17.7271  -47.0399  -11.3837 C   0  0  0  0  0  0  0  0  0  0  0  0
  -16.6114  -46.2270  -11.4648 O   0  0  0  0  0  0  0  0  0  0  0  0
  -16.7737  -45.1606  -12.3138 C   0  0  0  0  0  0  0  0  0  0  0  0
  -16.1252  -43.9574  -11.7223 C   0  0  0  0  0  0  0  0  0  0  0  0
  -14.9785  -43.4164  -12.2299 C   0  0  0  0  0  0  0  0  0  0  0  0
  -14.3360  -42.2702  -11.6873 C   0  0  0  0  0  0  0  0  0  0  0  0
  -14.8946  -41.6647  -10.5854 C   0  0  0  0  0  0  0  0  0  0  0  0
  -16.0529  -42.1614  -10.0254 C   0  0  0  0  0  0  0  0  0  0  0  0
  -16.6308  -43.3151  -10.6341 C   0  0  0  0  0  0  0  0  0  0  0  0
  -16.8562  -41.7326   -8.8776 C   0  0  0  0  0  0  0  0  0  0  0  0
  -17.3426  -42.6841   -8.0942 O   0  0  0  0  0  0  0  0  0  0  0  0
  -17.2740  -40.4896   -8.3612 N   0  0  0  0  0  0  0  0  0  0  0  0
  -16.5576  -39.2063   -8.4946 C   0  0  1  0  0  0  0  0  0  0  0  0
  -17.2487  -38.4446   -9.5732 C   0  0  0  0  0  0  0  0  0  0  0  0
  -16.8479  -37.0499   -9.8210 C   0  0  2  0  0  0  0  0  0  0  0  0
  -17.8131  -36.5245  -10.9073 C   0  0  0  0  0  0  0  0  0  0  0  0
  -15.4703  -36.8392  -10.3547 C   0  0  0  0  0  0  0  0  0  0  0  0
  -15.0028  -37.7732  -11.3883 C   0  0  0  0  0  0  0  0  0  0  0  0
  -15.2933  -37.3471  -12.8099 C   0  0  0  0  0  0  0  0  0  0  0  0
  -14.2382  -38.0193  -13.6907 C   0  0  0  0  0  0  0  0  0  0  0  0
  -14.5775  -39.4609  -13.9451 C   0  0  0  0  0  0  0  0  0  0  0  0
  -13.3569  -40.2987  -14.2421 C   0  0  0  0  0  0  0  0  0  0  0  0
  -12.6494  -40.7322  -12.9708 C   0  0  0  0  0  0  0  0  0  0  0  0
  -13.1719  -41.9864  -12.4616 N   0  0  0  0  0  0  0  0  0  0  0  0
  -16.6869  -38.4739   -7.1451 C   0  0  2  0  0  0  0  0  0  0  0  0
  -15.7682  -37.4886   -6.9645 O   0  0  0  0  0  0  0  0  0  0  0  0
  -16.5372  -39.5229   -6.0734 C   0  0  0  0  0  0  0  0  0  0  0  0
  -17.7039  -40.2385   -5.7184 N   0  0  0  0  0  0  0  0  0  0  0  0
  -18.6775  -39.5662   -4.9287 C   0  0  0  0  0  0  0  0  0  0  0  0
  -19.3916  -40.6005   -4.0531 C   0  0  0  0  0  0  0  0  0  0  0  0
  -20.7327  -40.8082   -4.6190 C   0  0  0  0  0  0  0  0  0  0  0  0
  -21.2025  -39.9503   -5.5814 C   0  0  0  0  0  0  0  0  0  0  0  0
  -22.4769  -40.1558   -6.1089 C   0  0  0  0  0  0  0  0  0  0  0  0
  -23.2463  -41.1723   -5.6933 N   0  0  0  0  0  0  0  0  0  0  0  0
  -22.8008  -42.0208   -4.7519 C   0  0  0  0  0  0  0  0  0  0  0  0
  -21.5282  -41.8382   -4.2067 C   0  0  0  0  0  0  0  0  0  0  0  0
  1  2  1  0
  2  3  1  0
  3  4  1  0
  4  5  2  0
  5  6  1  0
  6  7  2  0
  7  8  1  0
  8  9  2  0
  8 10  1  0
 10 11  2  0
 10 12  1  0
 12 13  1  0
 13 14  1  6
 14 15  1  0
 15 16  1  6
 15 17  1  0
 17 18  1  0
 18 19  1  0
 19 20  1  0
 20 21  1  0
 21 22  1  0
 22 23  1  0
 23 24  1  0
 13 25  1  0
 25 26  1  1
 25 27  1  0
 27 28  1  0
 28 29  1  0
 29 30  1  0
 30 31  1  0
 31 32  2  0
 32 33  1  0
 33 34  2  0
 34 35  1  0
 35 36  2  0
  9  4  1  0
 24  6  1  0
 36 31  1  0
M  END
$$$$
