
     RDKit          3D

 36 38  0  0  0  0  0  0  0  0999 V2000
  -20.8392  -44.5926   -2.5610 C   0  0  0  0  0  0  0  0  0  0  0  0
  -20.2437  -44.3390   -3.7830 O   0  0  0  0  0  0  0  0  0  0  0  0
  -21.0683  -44.5833   -4.8529 C   0  0  0  0  0  0  0  0  0  0  0  0
  -20.8406  -43.5456   -5.8967 C   0  0  0  0  0  0  0  0  0  0  0  0
  -21.8588  -43.0023   -6.6272 C   0  0  0  0  0  0  0  0  0  0  0  0
  -21.6731  -42.0119   -7.6299 C   0  0  0  0  0  0  0  0  0  0  0  0
  -20.3960  -41.5697   -7.8871 C   0  0  0  0  0  0  0  0  0  0  0  0
  -19.3241  -42.0776   -7.1834 C   0  0  0  0  0  0  0  0  0  0  0  0
  -19.6014  -43.0683   -6.1950 C   0  0  0  0  0  0  0  0  0  0  0  0
  -17.8866  -41.8007   -7.2404 C   0  0  0  0  0  0  0  0  0  0  0  0
  -17.0691  -42.8387   -7.1388 O   0  0  0  0  0  0  0  0  0  0  0  0
  -17.0991  -40.6404   -7.3810 N   0  0  0  0  0  0  0  0  0  0  0  0
  -17.4891  -39.4037   -8.0852 C   0  0  1  0  0  0  0  0  0  0  0  0
  -17.8841  -38.4234   -7.0344 C   0  0  0  0  0  0  0  0  0  0  0  0
  -18.1729  -37.0365   -7.4349 C   0  0  2  0  0  0  0  0  0  0  0  0
  -18.4399  -36.2691   -6.1206 C   0  0  0  0  0  0  0  0  0  0  0  0
  -19.3796  -36.8286   -8.2878 C   0  0  0  0  0  0  0  0  0  0  0  0
  -20.5827  -37.5995   -7.9446 C   0  0  0  0  0  0  0  0  0  0  0  0
  -21.5214  -36.9166   -6.9755 C   0  0  0  0  0  0  0  0  0  0  0  0
  -22.9136  -37.4953   -7.2360 C   0  0  0  0  0  0  0  0  0  0  0  0
  -23.0718  -38.8458   -6.5963 C   0  0  0  0  0  0  0  0  0  0  0  0
  -24.1041  -39.6989   -7.2938 C   0  0  0  0  0  0  0  0  0  0  0  0
  -23.5288  -40.3908   -8.5165 C   0  0  0  0  0  0  0  0  0  0  0  0
  -22.9437  -41.6767   -8.1853 N   0  0  0  0  0  0  0  0  0  0  0  0
  -16.2467  -38.9077   -8.8500 C   0  0  2  0  0  0  0  0  0  0  0  0
  -16.5376  -38.1202   -9.9189 O   0  0  0  0  0  0  0  0  0  0  0  0
  -15.5035  -40.1385   -9.3019 C   0  0  0  0  0  0  0  0  0  0  0  0
  -15.4020  -41.1967   -8.3696 N   0  0  0  0  0  0  0  0  0  0  0  0
  -14.9746  -42.4647   -8.8524 C   0  0  0  0  0  0  0  0  0  0  0  0
  -15.1152  -43.4880   -7.7212 C   0  0  0  0  0  0  0  0  0  0  0  0
  -15.0906  -44.8261   -8.3302 C   0  0  0  0  0  0  0  0  0  0  0  0
  -16.2120  -45.6152   -8.2783 C   0  0  0  0  0  0  0  0  0  0  0  0
  -16.1758  -46.8833   -8.8573 C   0  0  0  0  0  0  0  0  0  0  0  0
  -15.0693  -47.3415   -9.4603 N   0  0  0  0  0  0  0  0  0  0  0  0
  -13.9634  -46.5812   -9.5195 C   0  0  0  0  0  0  0  0  0  0  0  0
  -13.9721  -45.3071   -8.9479 C   0  0  0  0  0  0  0  0  0  0  0  0
  1  2  1  0
  2  3  1  0
  3  4  1  0
  4  5  2  0
  5  6  1  0
  6  7  2  0
  7  8  1  0
  8  9  2  0
  8 10  1  0
 10 11  2  0
 10 12  1  0
 12 13  1  0
 13 14  1  1
 14 15  1  0
 15 16  1  1
 15 17  1  0
 17 18  1  0
 18 19  1  0
 19 20  1  0
 20 21  1  0
 21 22  1  0
 22 23  1  0
 23 24  1  0
 13 25  1  0
 25 26  1  6
 25 27  1  0
 27 28  1  0
 28 29  1  0
 29 30  1  0
 30 31  1  0
 31 32  2  0
 32 33  1  0
 33 34  2  0
 34 35  1  0
 35 36  2  0
  9  4  1  0
 24  6  1  0
 36 31  1  0
M  END
$$$$
