
     RDKit          3D

 42 45  0  0  0  0  0  0  0  0999 V2000
  -25.9493  -43.6525   -6.9046 C   0  0  0  0  0  0  0  0  0  0  0  0
  -24.8944  -42.8854   -7.6493 C   0  0  0  0  0  0  0  0  0  0  0  0
  -23.5815  -42.9415   -7.0421 N   0  0  0  0  0  0  0  0  0  0  0  0
  -23.2956  -41.9384   -6.0245 C   0  0  0  0  0  0  0  0  0  0  0  0
  -23.4794  -40.5316   -6.4594 C   0  0  0  0  0  0  0  0  0  0  0  0
  -22.5157  -40.0449   -7.5045 C   0  0  0  0  0  0  0  0  0  0  0  0
  -21.3152  -39.4571   -6.7956 C   0  0  0  0  0  0  0  0  0  0  0  0
  -20.2901  -38.9415   -7.7937 C   0  0  0  0  0  0  0  0  0  0  0  0
  -19.0190  -38.6940   -7.0121 C   0  0  1  0  0  0  0  0  0  0  0  0
  -19.4051  -38.1124   -5.6326 C   0  0  0  0  0  0  0  0  0  0  0  0
  -18.2398  -39.9215   -6.7454 C   0  0  0  0  0  0  0  0  0  0  0  0
  -17.6444  -40.5340   -7.9355 C   0  0  2  0  0  0  0  0  0  0  0  0
  -16.9617  -41.8142   -7.6778 N   0  0  0  0  0  0  0  0  0  0  0  0
  -17.5374  -42.9109   -6.9902 C   0  0  0  0  0  0  0  0  0  0  0  0
  -16.6589  -43.3651   -6.1220 O   0  0  0  0  0  0  0  0  0  0  0  0
  -18.8187  -43.6208   -7.0220 C   0  0  0  0  0  0  0  0  0  0  0  0
  -20.1206  -43.1857   -7.2599 C   0  0  0  0  0  0  0  0  0  0  0  0
  -21.1971  -44.0748   -7.2305 C   0  0  0  0  0  0  0  0  0  0  0  0
  -20.9112  -45.4345   -6.9505 C   0  0  0  0  0  0  0  0  0  0  0  0
  -19.6647  -45.9238   -6.7097 C   0  0  0  0  0  0  0  0  0  0  0  0
  -18.6542  -45.0242   -6.7483 C   0  0  0  0  0  0  0  0  0  0  0  0
  -19.4179  -47.3451   -6.4227 C   0  0  0  0  0  0  0  0  0  0  0  0
  -18.3696  -48.0265   -6.8831 N   0  0  0  0  0  0  0  0  0  0  0  0
  -18.4272  -49.3001   -6.4465 C   0  0  0  0  0  0  0  0  0  0  0  0
  -19.5855  -49.3498   -5.6863 C   0  0  0  0  0  0  0  0  0  0  0  0
  -20.1375  -48.1601   -5.7045 O   0  0  0  0  0  0  0  0  0  0  0  0
  -22.6355  -43.9367   -7.4257 C   0  0  0  0  0  0  0  0  0  0  0  0
  -23.2591  -44.8869   -8.0806 O   0  0  0  0  0  0  0  0  0  0  0  0
  -16.7364  -39.5383   -8.6173 C   0  0  2  0  0  0  0  0  0  0  0  0
  -17.3133  -39.2237   -9.8771 O   0  0  0  0  0  0  0  0  0  0  0  0
  -15.3553  -40.1156   -8.8274 C   0  0  0  0  0  0  0  0  0  0  0  0
  -14.2982  -39.4163   -8.1919 N   0  0  0  0  0  0  0  0  0  0  0  0
  -13.0939  -39.1872   -8.8896 C   0  0  0  0  0  0  0  0  0  0  0  0
  -13.2805  -39.1877  -10.3637 C   0  0  0  0  0  0  0  0  0  0  0  0
  -13.1662  -38.0026  -11.0985 C   0  0  0  0  0  0  0  0  0  0  0  0
  -13.3386  -37.9672  -12.4582 C   0  0  0  0  0  0  0  0  0  0  0  0
  -13.6376  -39.1256  -13.1630 C   0  0  0  0  0  0  0  0  0  0  0  0
  -13.7547  -40.2988  -12.4637 C   0  0  0  0  0  0  0  0  0  0  0  0
  -13.5753  -40.3157  -11.0761 C   0  0  0  0  0  0  0  0  0  0  0  0
  -13.2149  -36.7134  -13.2503 C   0  0  0  0  0  0  0  0  0  0  0  0
  -11.9129  -36.7733  -14.0578 C   0  0  0  0  0  0  0  0  0  0  0  0
  -14.3564  -36.6624  -14.2394 C   0  0  0  0  0  0  0  0  0  0  0  0
  1  2  1  0
  2  3  1  0
  3  4  1  0
  4  5  1  0
  5  6  1  0
  6  7  1  0
  7  8  1  0
  8  9  1  0
  9 10  1  1
  9 11  1  0
 12 11  1  1
 12 13  1  0
 13 14  1  0
 14 15  2  0
 14 16  1  0
 16 17  2  0
 17 18  1  0
 18 19  2  0
 19 20  1  0
 20 21  2  0
 20 22  1  0
 22 23  2  0
 23 24  1  0
 24 25  2  0
 25 26  1  0
 18 27  1  0
 27 28  2  0
 12 29  1  0
 29 30  1  6
 29 31  1  0
 31 32  1  0
 32 33  1  0
 33 34  1  0
 34 35  2  0
 35 36  1  0
 36 37  2  0
 37 38  1  0
 38 39  2  0
 36 40  1  0
 40 41  1  0
 40 42  1  0
 21 16  1  0
 26 22  1  0
 27  3  1  0
 39 34  1  0
M  END
$$$$
