
     RDKit          3D

 42 45  0  0  0  0  0  0  0  0999 V2000
  -24.1846  -41.4377  -10.3467 C   0  0  0  0  0  0  0  0  0  0  0  0
  -24.7443  -41.4143   -8.9531 C   0  0  0  0  0  0  0  0  0  0  0  0
  -23.8296  -40.9000   -7.9560 N   0  0  0  0  0  0  0  0  0  0  0  0
  -23.7421  -39.4498   -7.8445 C   0  0  0  0  0  0  0  0  0  0  0  0
  -23.4054  -38.7417   -9.1045 C   0  0  0  0  0  0  0  0  0  0  0  0
  -22.0234  -38.9907   -9.6387 C   0  0  0  0  0  0  0  0  0  0  0  0
  -21.0982  -37.9516   -9.0441 C   0  0  0  0  0  0  0  0  0  0  0  0
  -19.6733  -38.1411   -9.5406 C   0  0  0  0  0  0  0  0  0  0  0  0
  -18.7935  -37.2924   -8.6497 C   0  0  1  0  0  0  0  0  0  0  0  0
  -19.5445  -35.9768   -8.3405 C   0  0  0  0  0  0  0  0  0  0  0  0
  -18.4927  -37.9190   -7.3452 C   0  0  0  0  0  0  0  0  0  0  0  0
  -17.6376  -39.1059   -7.4238 C   0  0  2  0  0  0  0  0  0  0  0  0
  -17.4313  -39.7874   -6.1337 N   0  0  0  0  0  0  0  0  0  0  0  0
  -18.4702  -40.1819   -5.2550 C   0  0  0  0  0  0  0  0  0  0  0  0
  -18.1374  -39.8277   -4.0320 O   0  0  0  0  0  0  0  0  0  0  0  0
  -19.7624  -40.8596   -5.3864 C   0  0  0  0  0  0  0  0  0  0  0  0
  -20.7243  -40.8469   -6.3940 C   0  0  0  0  0  0  0  0  0  0  0  0
  -21.9005  -41.5911   -6.2807 C   0  0  0  0  0  0  0  0  0  0  0  0
  -22.0744  -42.3588   -5.1020 C   0  0  0  0  0  0  0  0  0  0  0  0
  -21.1755  -42.4150   -4.0822 C   0  0  0  0  0  0  0  0  0  0  0  0
  -20.0519  -41.6766   -4.2374 C   0  0  0  0  0  0  0  0  0  0  0  0
  -21.4012  -43.2271   -2.8767 C   0  0  0  0  0  0  0  0  0  0  0  0
  -20.5894  -43.2330   -1.8202 N   0  0  0  0  0  0  0  0  0  0  0  0
  -21.0675  -44.0755   -0.8835 C   0  0  0  0  0  0  0  0  0  0  0  0
  -22.2297  -44.5851   -1.4419 C   0  0  0  0  0  0  0  0  0  0  0  0
  -22.3824  -44.0479   -2.6287 O   0  0  0  0  0  0  0  0  0  0  0  0
  -23.0700  -41.7803   -7.1309 C   0  0  0  0  0  0  0  0  0  0  0  0
  -23.5882  -42.9832   -7.2015 O   0  0  0  0  0  0  0  0  0  0  0  0
  -16.3292  -38.7447   -8.0859 C   0  0  2  0  0  0  0  0  0  0  0  0
  -16.5907  -37.6986   -9.0111 O   0  0  0  0  0  0  0  0  0  0  0  0
  -15.7449  -39.9299   -8.8199 C   0  0  0  0  0  0  0  0  0  0  0  0
  -14.9006  -40.7692   -8.0496 N   0  0  0  0  0  0  0  0  0  0  0  0
  -14.0095  -41.6486   -8.6993 C   0  0  0  0  0  0  0  0  0  0  0  0
  -14.7129  -42.6767   -9.5094 C   0  0  0  0  0  0  0  0  0  0  0  0
  -15.6138  -43.5642   -8.9107 C   0  0  0  0  0  0  0  0  0  0  0  0
  -16.2744  -44.5280   -9.6278 C   0  0  0  0  0  0  0  0  0  0  0  0
  -16.0679  -44.6578  -10.9948 C   0  0  0  0  0  0  0  0  0  0  0  0
  -15.1894  -43.7990  -11.6028 C   0  0  0  0  0  0  0  0  0  0  0  0
  -14.5241  -42.8214  -10.8548 C   0  0  0  0  0  0  0  0  0  0  0  0
  -17.2378  -45.4744   -9.0024 C   0  0  0  0  0  0  0  0  0  0  0  0
  -18.0438  -46.1555  -10.1147 C   0  0  0  0  0  0  0  0  0  0  0  0
  -16.4515  -46.5515   -8.2916 C   0  0  0  0  0  0  0  0  0  0  0  0
  1  2  1  0
  2  3  1  0
  3  4  1  0
  4  5  1  0
  5  6  1  0
  6  7  1  0
  7  8  1  0
  8  9  1  0
  9 10  1  1
  9 11  1  0
 12 11  1  1
 12 13  1  0
 13 14  1  0
 14 15  2  0
 14 16  1  0
 16 17  2  0
 17 18  1  0
 18 19  2  0
 19 20  1  0
 20 21  2  0
 20 22  1  0
 22 23  2  0
 23 24  1  0
 24 25  2  0
 25 26  1  0
 18 27  1  0
 27 28  2  0
 12 29  1  0
 29 30  1  6
 29 31  1  0
 31 32  1  0
 32 33  1  0
 33 34  1  0
 34 35  2  0
 35 36  1  0
 36 37  2  0
 37 38  1  0
 38 39  2  0
 36 40  1  0
 40 41  1  0
 40 42  1  0
 21 16  1  0
 26 22  1  0
 27  3  1  0
 39 34  1  0
M  END
$$$$
