
     RDKit          3D

 42 45  0  0  0  0  0  0  0  0999 V2000
  -24.2145  -42.5140   -9.3763 C   0  0  0  0  0  0  0  0  0  0  0  0
  -24.7044  -41.9771   -8.0618 C   0  0  0  0  0  0  0  0  0  0  0  0
  -23.6693  -41.3857   -7.2407 N   0  0  0  0  0  0  0  0  0  0  0  0
  -23.5862  -39.9309   -7.2521 C   0  0  0  0  0  0  0  0  0  0  0  0
  -23.4332  -39.3206   -8.5961 C   0  0  0  0  0  0  0  0  0  0  0  0
  -22.1335  -39.6064   -9.2938 C   0  0  0  0  0  0  0  0  0  0  0  0
  -21.1495  -38.5226   -8.9113 C   0  0  0  0  0  0  0  0  0  0  0  0
  -19.8031  -38.7460   -9.5820 C   0  0  0  0  0  0  0  0  0  0  0  0
  -18.8213  -37.8294   -8.8864 C   0  0  1  0  0  0  0  0  0  0  0  0
  -19.5402  -36.4958   -8.5777 C   0  0  0  0  0  0  0  0  0  0  0  0
  -18.3378  -38.3535   -7.5915 C   0  0  0  0  0  0  0  0  0  0  0  0
  -17.4861  -39.5408   -7.6963 C   0  0  2  0  0  0  0  0  0  0  0  0
  -17.0975  -40.1210   -6.3987 N   0  0  0  0  0  0  0  0  0  0  0  0
  -18.0021  -40.4495   -5.3591 C   0  0  0  0  0  0  0  0  0  0  0  0
  -17.5107  -40.0019   -4.2233 O   0  0  0  0  0  0  0  0  0  0  0  0
  -19.2913  -41.1386   -5.2612 C   0  0  0  0  0  0  0  0  0  0  0  0
  -20.3814  -41.2054   -6.1260 C   0  0  0  0  0  0  0  0  0  0  0  0
  -21.5216  -41.9416   -5.7972 C   0  0  0  0  0  0  0  0  0  0  0  0
  -21.5236  -42.6172   -4.5512 C   0  0  0  0  0  0  0  0  0  0  0  0
  -20.4938  -42.5929   -3.6624 C   0  0  0  0  0  0  0  0  0  0  0  0
  -19.4113  -41.8658   -4.0250 C   0  0  0  0  0  0  0  0  0  0  0  0
  -20.5429  -43.3108   -2.3795 C   0  0  0  0  0  0  0  0  0  0  0  0
  -19.6859  -43.1083   -1.3797 N   0  0  0  0  0  0  0  0  0  0  0  0
  -19.9940  -43.9154   -0.3455 C   0  0  0  0  0  0  0  0  0  0  0  0
  -21.1006  -44.6265   -0.7836 C   0  0  0  0  0  0  0  0  0  0  0  0
  -21.3864  -44.2288   -2.0003 O   0  0  0  0  0  0  0  0  0  0  0  0
  -22.7933  -42.1983   -6.4630 C   0  0  0  0  0  0  0  0  0  0  0  0
  -23.3007  -43.4043   -6.3710 O   0  0  0  0  0  0  0  0  0  0  0  0
  -16.2847  -39.2282   -8.5563 C   0  0  2  0  0  0  0  0  0  0  0  0
  -15.3547  -40.2905   -8.3971 O   0  0  0  0  0  0  0  0  0  0  0  0
  -15.6384  -37.9277   -8.1370 C   0  0  0  0  0  0  0  0  0  0  0  0
  -14.3589  -38.0473   -7.5378 N   0  0  0  0  0  0  0  0  0  0  0  0
  -13.2290  -38.2897   -8.3466 C   0  0  0  0  0  0  0  0  0  0  0  0
  -13.2727  -37.5367   -9.6268 C   0  0  0  0  0  0  0  0  0  0  0  0
  -13.9256  -38.0664  -10.7451 C   0  0  0  0  0  0  0  0  0  0  0  0
  -13.9791  -37.4007  -11.9424 C   0  0  0  0  0  0  0  0  0  0  0  0
  -13.3767  -36.1580  -12.0877 C   0  0  0  0  0  0  0  0  0  0  0  0
  -12.7309  -35.6194  -11.0051 C   0  0  0  0  0  0  0  0  0  0  0  0
  -12.6867  -36.3134   -9.7909 C   0  0  0  0  0  0  0  0  0  0  0  0
  -14.6744  -37.9524  -13.1370 C   0  0  0  0  0  0  0  0  0  0  0  0
  -14.7916  -39.4725  -12.9739 C   0  0  0  0  0  0  0  0  0  0  0  0
  -16.0780  -37.3933  -13.1695 C   0  0  0  0  0  0  0  0  0  0  0  0
  1  2  1  0
  2  3  1  0
  3  4  1  0
  4  5  1  0
  5  6  1  0
  6  7  1  0
  7  8  1  0
  8  9  1  0
  9 10  1  1
  9 11  1  0
 12 11  1  1
 12 13  1  0
 13 14  1  0
 14 15  2  0
 14 16  1  0
 16 17  2  0
 17 18  1  0
 18 19  2  0
 19 20  1  0
 20 21  2  0
 20 22  1  0
 22 23  2  0
 23 24  1  0
 24 25  2  0
 25 26  1  0
 18 27  1  0
 27 28  2  0
 12 29  1  0
 29 30  1  1
 29 31  1  0
 31 32  1  0
 32 33  1  0
 33 34  1  0
 34 35  2  0
 35 36  1  0
 36 37  2  0
 37 38  1  0
 38 39  2  0
 36 40  1  0
 40 41  1  0
 40 42  1  0
 21 16  1  0
 26 22  1  0
 27  3  1  0
 39 34  1  0
M  END
$$$$
