
     RDKit          3D

 42 45  0  0  0  0  0  0  0  0999 V2000
  -25.0134  -42.8911  -11.4623 C   0  0  0  0  0  0  0  0  0  0  0  0
  -23.8103  -42.0085  -11.2910 C   0  0  0  0  0  0  0  0  0  0  0  0
  -23.0333  -42.2901  -10.1024 N   0  0  0  0  0  0  0  0  0  0  0  0
  -23.3999  -41.5533   -8.8999 C   0  0  0  0  0  0  0  0  0  0  0  0
  -23.3981  -40.0762   -9.0426 C   0  0  0  0  0  0  0  0  0  0  0  0
  -22.0516  -39.4481   -9.2663 C   0  0  0  0  0  0  0  0  0  0  0  0
  -21.4601  -39.1163   -7.9138 C   0  0  0  0  0  0  0  0  0  0  0  0
  -20.0892  -38.4747   -8.0599 C   0  0  0  0  0  0  0  0  0  0  0  0
  -19.4585  -38.4951   -6.6852 C   0  0  1  0  0  0  0  0  0  0  0  0
  -20.5611  -38.1973   -5.6431 C   0  0  0  0  0  0  0  0  0  0  0  0
  -18.8796  -39.8050   -6.3192 C   0  0  0  0  0  0  0  0  0  0  0  0
  -17.7021  -40.1890   -7.1015 C   0  0  2  0  0  0  0  0  0  0  0  0
  -17.1963  -41.5412   -6.8063 N   0  0  0  0  0  0  0  0  0  0  0  0
  -17.9896  -42.7149   -6.7988 C   0  0  0  0  0  0  0  0  0  0  0  0
  -17.6959  -43.4086   -5.7196 O   0  0  0  0  0  0  0  0  0  0  0  0
  -19.0080  -43.3054   -7.6710 C   0  0  0  0  0  0  0  0  0  0  0  0
  -19.9967  -42.7350   -8.4696 C   0  0  0  0  0  0  0  0  0  0  0  0
  -20.8663  -43.5281   -9.2213 C   0  0  0  0  0  0  0  0  0  0  0  0
  -20.7012  -44.9334   -9.1393 C   0  0  0  0  0  0  0  0  0  0  0  0
  -19.7576  -45.5532   -8.3800 C   0  0  0  0  0  0  0  0  0  0  0  0
  -18.9390  -44.7430   -7.6690 C   0  0  0  0  0  0  0  0  0  0  0  0
  -19.6255  -47.0172   -8.3268 C   0  0  0  0  0  0  0  0  0  0  0  0
  -18.4583  -47.6593   -8.3079 N   0  0  0  0  0  0  0  0  0  0  0  0
  -18.6710  -48.9890   -8.2582 C   0  0  0  0  0  0  0  0  0  0  0  0
  -20.0516  -49.1151   -8.2482 C   0  0  0  0  0  0  0  0  0  0  0  0
  -20.5721  -47.9119   -8.2904 O   0  0  0  0  0  0  0  0  0  0  0  0
  -21.9760  -43.2460  -10.1243 C   0  0  0  0  0  0  0  0  0  0  0  0
  -22.0919  -43.9846  -11.2021 O   0  0  0  0  0  0  0  0  0  0  0  0
  -16.6273  -39.1393   -6.9476 C   0  0  2  0  0  0  0  0  0  0  0  0
  -17.2712  -37.8763   -6.8524 O   0  0  0  0  0  0  0  0  0  0  0  0
  -15.6929  -39.1384   -8.1357 C   0  0  0  0  0  0  0  0  0  0  0  0
  -14.4791  -39.8494   -7.9583 N   0  0  0  0  0  0  0  0  0  0  0  0
  -13.9960  -40.6757   -8.9944 C   0  0  0  0  0  0  0  0  0  0  0  0
  -13.6371  -39.9079  -10.2149 C   0  0  0  0  0  0  0  0  0  0  0  0
  -13.7435  -38.5131  -10.2382 C   0  0  0  0  0  0  0  0  0  0  0  0
  -13.4266  -37.7753  -11.3494 C   0  0  0  0  0  0  0  0  0  0  0  0
  -12.9824  -38.3982  -12.5083 C   0  0  0  0  0  0  0  0  0  0  0  0
  -12.8705  -39.7645  -12.5086 C   0  0  0  0  0  0  0  0  0  0  0  0
  -13.1985  -40.5010  -11.3650 C   0  0  0  0  0  0  0  0  0  0  0  0
  -13.5317  -36.2912  -11.3841 C   0  0  0  0  0  0  0  0  0  0  0  0
  -13.8835  -35.8606  -12.8130 C   0  0  0  0  0  0  0  0  0  0  0  0
  -14.6793  -35.8758  -10.4930 C   0  0  0  0  0  0  0  0  0  0  0  0
  1  2  1  0
  2  3  1  0
  3  4  1  0
  4  5  1  0
  5  6  1  0
  6  7  1  0
  7  8  1  0
  8  9  1  0
  9 10  1  1
  9 11  1  0
 12 11  1  1
 12 13  1  0
 13 14  1  0
 14 15  2  0
 14 16  1  0
 16 17  2  0
 17 18  1  0
 18 19  2  0
 19 20  1  0
 20 21  2  0
 20 22  1  0
 22 23  2  0
 23 24  1  0
 24 25  2  0
 25 26  1  0
 18 27  1  0
 27 28  2  0
 12 29  1  0
 29 30  1  6
 29 31  1  0
 31 32  1  0
 32 33  1  0
 33 34  1  0
 34 35  2  0
 35 36  1  0
 36 37  2  0
 37 38  1  0
 38 39  2  0
 36 40  1  0
 40 41  1  0
 40 42  1  0
 21 16  1  0
 26 22  1  0
 27  3  1  0
 39 34  1  0
M  END
$$$$
