
     RDKit          3D

 42 45  0  0  0  0  0  0  0  0999 V2000
  -25.3260  -42.8003   -6.7040 C   0  0  0  0  0  0  0  0  0  0  0  0
  -24.2589  -43.3244   -7.6220 C   0  0  0  0  0  0  0  0  0  0  0  0
  -22.9367  -43.3604   -7.0338 N   0  0  0  0  0  0  0  0  0  0  0  0
  -22.7855  -42.7058   -5.7407 C   0  0  0  0  0  0  0  0  0  0  0  0
  -23.2052  -41.2829   -5.7035 C   0  0  0  0  0  0  0  0  0  0  0  0
  -22.3633  -40.3373   -6.5125 C   0  0  0  0  0  0  0  0  0  0  0  0
  -21.2521  -39.8233   -5.6234 C   0  0  0  0  0  0  0  0  0  0  0  0
  -20.3529  -38.8559   -6.3771 C   0  0  0  0  0  0  0  0  0  0  0  0
  -19.1154  -38.6714   -5.5271 C   0  0  1  0  0  0  0  0  0  0  0  0
  -19.5490  -38.6349   -4.0435 C   0  0  0  0  0  0  0  0  0  0  0  0
  -18.1420  -39.7768   -5.6514 C   0  0  0  0  0  0  0  0  0  0  0  0
  -17.4914  -39.8694   -6.9608 C   0  0  2  0  0  0  0  0  0  0  0  0
  -16.6050  -41.0367   -7.1128 N   0  0  0  0  0  0  0  0  0  0  0  0
  -16.9769  -42.3740   -6.8293 C   0  0  0  0  0  0  0  0  0  0  0  0
  -16.0117  -42.9354   -6.1329 O   0  0  0  0  0  0  0  0  0  0  0  0
  -18.1281  -43.2326   -7.1189 C   0  0  0  0  0  0  0  0  0  0  0  0
  -19.4893  -42.9602   -7.2352 C   0  0  0  0  0  0  0  0  0  0  0  0
  -20.4080  -43.9727   -7.5198 C   0  0  0  0  0  0  0  0  0  0  0  0
  -19.8997  -45.2853   -7.6860 C   0  0  0  0  0  0  0  0  0  0  0  0
  -18.5844  -45.6183   -7.5857 C   0  0  0  0  0  0  0  0  0  0  0  0
  -17.7328  -44.6036   -7.3081 C   0  0  0  0  0  0  0  0  0  0  0  0
  -18.1044  -46.9969   -7.7661 C   0  0  0  0  0  0  0  0  0  0  0  0
  -18.7173  -48.0699   -7.2678 N   0  0  0  0  0  0  0  0  0  0  0  0
  -18.0345  -49.1817   -7.6049 C   0  0  0  0  0  0  0  0  0  0  0  0
  -16.9599  -48.7128   -8.3449 C   0  0  0  0  0  0  0  0  0  0  0  0
  -17.0485  -47.4058   -8.4109 O   0  0  0  0  0  0  0  0  0  0  0  0
  -21.8552  -44.0130   -7.6947 C   0  0  0  0  0  0  0  0  0  0  0  0
  -22.3373  -44.7893   -8.6356 O   0  0  0  0  0  0  0  0  0  0  0  0
  -16.7753  -38.5747   -7.2634 C   0  0  2  0  0  0  0  0  0  0  0  0
  -17.7614  -37.5616   -7.4047 O   0  0  0  0  0  0  0  0  0  0  0  0
  -15.9766  -38.6801   -8.5423 C   0  0  0  0  0  0  0  0  0  0  0  0
  -15.1381  -39.8188   -8.6462 N   0  0  0  0  0  0  0  0  0  0  0  0
  -13.8388  -39.6829   -9.1784 C   0  0  0  0  0  0  0  0  0  0  0  0
  -13.8474  -39.2297  -10.5935 C   0  0  0  0  0  0  0  0  0  0  0  0
  -13.5192  -37.9101  -10.9229 C   0  0  0  0  0  0  0  0  0  0  0  0
  -13.5235  -37.4582  -12.2172 C   0  0  0  0  0  0  0  0  0  0  0  0
  -13.8596  -38.3092  -13.2618 C   0  0  0  0  0  0  0  0  0  0  0  0
  -14.1849  -39.6068  -12.9627 C   0  0  0  0  0  0  0  0  0  0  0  0
  -14.1751  -40.0503  -11.6356 C   0  0  0  0  0  0  0  0  0  0  0  0
  -13.1719  -36.0582  -12.5795 C   0  0  0  0  0  0  0  0  0  0  0  0
  -14.3247  -35.1407  -12.1552 C   0  0  0  0  0  0  0  0  0  0  0  0
  -11.9555  -35.6523  -11.7801 C   0  0  0  0  0  0  0  0  0  0  0  0
  1  2  1  0
  2  3  1  0
  3  4  1  0
  4  5  1  0
  5  6  1  0
  6  7  1  0
  7  8  1  0
  8  9  1  0
  9 10  1  1
  9 11  1  0
 12 11  1  1
 12 13  1  0
 13 14  1  0
 14 15  2  0
 14 16  1  0
 16 17  2  0
 17 18  1  0
 18 19  2  0
 19 20  1  0
 20 21  2  0
 20 22  1  0
 22 23  2  0
 23 24  1  0
 24 25  2  0
 25 26  1  0
 18 27  1  0
 27 28  2  0
 12 29  1  0
 29 30  1  6
 29 31  1  0
 31 32  1  0
 32 33  1  0
 33 34  1  0
 34 35  2  0
 35 36  1  0
 36 37  2  0
 37 38  1  0
 38 39  2  0
 36 40  1  0
 40 41  1  0
 40 42  1  0
 21 16  1  0
 26 22  1  0
 27  3  1  0
 39 34  1  0
M  END
$$$$
