
     RDKit          3D

 42 45  0  0  0  0  0  0  0  0999 V2000
  -17.7002  -48.5930   -7.1146 C   0  0  0  0  0  0  0  0  0  0  0  0
  -18.9395  -48.4206   -7.9454 C   0  0  0  0  0  0  0  0  0  0  0  0
  -19.2848  -47.0409   -8.2150 N   0  0  0  0  0  0  0  0  0  0  0  0
  -19.1260  -46.5910   -9.5918 C   0  0  0  0  0  0  0  0  0  0  0  0
  -17.7714  -46.7874  -10.1650 C   0  0  0  0  0  0  0  0  0  0  0  0
  -16.6806  -45.9570   -9.5502 C   0  0  0  0  0  0  0  0  0  0  0  0
  -16.5960  -44.6550  -10.3164 C   0  0  0  0  0  0  0  0  0  0  0  0
  -15.5085  -43.7566   -9.7482 C   0  0  0  0  0  0  0  0  0  0  0  0
  -15.7297  -42.3856  -10.3477 C   0  0  1  0  0  0  0  0  0  0  0  0
  -16.1655  -42.5663  -11.8200 C   0  0  0  0  0  0  0  0  0  0  0  0
  -16.8038  -41.6163   -9.6848 C   0  0  0  0  0  0  0  0  0  0  0  0
  -16.4982  -41.2041   -8.3127 C   0  0  2  0  0  0  0  0  0  0  0  0
  -17.6135  -40.5331   -7.6217 N   0  0  0  0  0  0  0  0  0  0  0  0
  -18.9310  -41.0458   -7.5308 C   0  0  0  0  0  0  0  0  0  0  0  0
  -19.7753  -40.0739   -7.8038 O   0  0  0  0  0  0  0  0  0  0  0  0
  -19.5395  -42.3412   -7.2176 C   0  0  0  0  0  0  0  0  0  0  0  0
  -19.1305  -43.6491   -7.4686 C   0  0  0  0  0  0  0  0  0  0  0  0
  -19.9043  -44.7391   -7.0646 C   0  0  0  0  0  0  0  0  0  0  0  0
  -21.1191  -44.4608   -6.3894 C   0  0  0  0  0  0  0  0  0  0  0  0
  -21.5754  -43.2091   -6.1135 C   0  0  0  0  0  0  0  0  0  0  0  0
  -20.7916  -42.1854   -6.5252 C   0  0  0  0  0  0  0  0  0  0  0  0
  -22.8448  -42.9704   -5.4097 C   0  0  0  0  0  0  0  0  0  0  0  0
  -23.2042  -43.5958   -4.2896 N   0  0  0  0  0  0  0  0  0  0  0  0
  -24.4162  -43.1599   -3.8937 C   0  0  0  0  0  0  0  0  0  0  0  0
  -24.7732  -42.2231   -4.8514 C   0  0  0  0  0  0  0  0  0  0  0  0
  -23.8033  -42.1483   -5.7312 O   0  0  0  0  0  0  0  0  0  0  0  0
  -19.7609  -46.1858   -7.1784 C   0  0  0  0  0  0  0  0  0  0  0  0
  -20.1262  -46.9202   -6.1548 O   0  0  0  0  0  0  0  0  0  0  0  0
  -15.2429  -40.3646   -8.3036 C   0  0  2  0  0  0  0  0  0  0  0  0
  -15.0352  -39.9172   -6.9711 O   0  0  0  0  0  0  0  0  0  0  0  0
  -15.3802  -39.1696   -9.2190 C   0  0  0  0  0  0  0  0  0  0  0  0
  -15.0337  -37.9194   -8.6469 N   0  0  0  0  0  0  0  0  0  0  0  0
  -15.7877  -36.7715   -8.9684 C   0  0  0  0  0  0  0  0  0  0  0  0
  -17.1114  -37.1053   -9.5552 C   0  0  0  0  0  0  0  0  0  0  0  0
  -18.2657  -37.0972   -8.7646 C   0  0  0  0  0  0  0  0  0  0  0  0
  -19.5008  -37.4063   -9.2729 C   0  0  0  0  0  0  0  0  0  0  0  0
  -19.6499  -37.7435  -10.6117 C   0  0  0  0  0  0  0  0  0  0  0  0
  -18.5324  -37.7582  -11.4055 C   0  0  0  0  0  0  0  0  0  0  0  0
  -17.2799  -37.4399  -10.8692 C   0  0  0  0  0  0  0  0  0  0  0  0
  -20.7357  -37.3966   -8.4424 C   0  0  0  0  0  0  0  0  0  0  0  0
  -20.3501  -37.7095   -6.9918 C   0  0  0  0  0  0  0  0  0  0  0  0
  -21.3113  -35.9995   -8.4641 C   0  0  0  0  0  0  0  0  0  0  0  0
  1  2  1  0
  2  3  1  0
  3  4  1  0
  4  5  1  0
  5  6  1  0
  6  7  1  0
  7  8  1  0
  8  9  1  0
  9 10  1  6
  9 11  1  0
 12 11  1  6
 12 13  1  0
 13 14  1  0
 14 15  2  0
 14 16  1  0
 16 17  2  0
 17 18  1  0
 18 19  2  0
 19 20  1  0
 20 21  2  0
 20 22  1  0
 22 23  2  0
 23 24  1  0
 24 25  2  0
 25 26  1  0
 18 27  1  0
 27 28  2  0
 12 29  1  0
 29 30  1  1
 29 31  1  0
 31 32  1  0
 32 33  1  0
 33 34  1  0
 34 35  2  0
 35 36  1  0
 36 37  2  0
 37 38  1  0
 38 39  2  0
 36 40  1  0
 40 41  1  0
 40 42  1  0
 21 16  1  0
 26 22  1  0
 27  3  1  0
 39 34  1  0
M  END
$$$$
