
     RDKit          3D

 42 45  0  0  0  0  0  0  0  0999 V2000
  -24.9363  -41.8538   -8.5155 C   0  0  0  0  0  0  0  0  0  0  0  0
  -23.8438  -42.1940   -9.4884 C   0  0  0  0  0  0  0  0  0  0  0  0
  -22.5281  -42.2895   -8.8922 N   0  0  0  0  0  0  0  0  0  0  0  0
  -22.3747  -41.7065   -7.5656 C   0  0  0  0  0  0  0  0  0  0  0  0
  -22.7640  -40.2785   -7.4578 C   0  0  0  0  0  0  0  0  0  0  0  0
  -21.8945  -39.3109   -8.2096 C   0  0  0  0  0  0  0  0  0  0  0  0
  -20.7808  -38.8684   -7.2860 C   0  0  0  0  0  0  0  0  0  0  0  0
  -19.8540  -37.8832   -7.9810 C   0  0  0  0  0  0  0  0  0  0  0  0
  -18.6207  -37.7703   -7.1126 C   0  0  1  0  0  0  0  0  0  0  0  0
  -19.0670  -37.8013   -5.6327 C   0  0  0  0  0  0  0  0  0  0  0  0
  -17.6702  -38.8889   -7.2865 C   0  0  0  0  0  0  0  0  0  0  0  0
  -17.0098  -38.9277   -8.5935 C   0  0  2  0  0  0  0  0  0  0  0  0
  -16.1473  -40.1047   -8.7990 N   0  0  0  0  0  0  0  0  0  0  0  0
  -16.5506  -41.4464   -8.5886 C   0  0  0  0  0  0  0  0  0  0  0  0
  -15.6041  -42.0643   -7.9146 O   0  0  0  0  0  0  0  0  0  0  0  0
  -17.7173  -42.2634   -8.9318 C   0  0  0  0  0  0  0  0  0  0  0  0
  -19.0712  -41.9553   -9.0447 C   0  0  0  0  0  0  0  0  0  0  0  0
  -20.0089  -42.9313   -9.3890 C   0  0  0  0  0  0  0  0  0  0  0  0
  -19.5274  -44.2444   -9.6193 C   0  0  0  0  0  0  0  0  0  0  0  0
  -18.2206  -44.6109   -9.5258 C   0  0  0  0  0  0  0  0  0  0  0  0
  -17.3499  -43.6310   -9.1889 C   0  0  0  0  0  0  0  0  0  0  0  0
  -17.7688  -45.9886   -9.7739 C   0  0  0  0  0  0  0  0  0  0  0  0
  -17.6185  -46.9061   -8.8196 N   0  0  0  0  0  0  0  0  0  0  0  0
  -17.1939  -48.0635   -9.3638 C   0  0  0  0  0  0  0  0  0  0  0  0
  -17.0948  -47.7890  -10.7192 C   0  0  0  0  0  0  0  0  0  0  0  0
  -17.4483  -46.5404  -10.9100 O   0  0  0  0  0  0  0  0  0  0  0  0
  -21.4548  -42.9306   -9.5775 C   0  0  0  0  0  0  0  0  0  0  0  0
  -21.9449  -43.6463  -10.5614 O   0  0  0  0  0  0  0  0  0  0  0  0
  -16.2632  -37.6351   -8.8225 C   0  0  2  0  0  0  0  0  0  0  0  0
  -17.2265  -36.6223   -9.0775 O   0  0  0  0  0  0  0  0  0  0  0  0
  -15.3284  -37.7482  -10.0049 C   0  0  0  0  0  0  0  0  0  0  0  0
  -14.2074  -36.8803   -9.9821 N   0  0  0  0  0  0  0  0  0  0  0  0
  -13.2392  -36.9632  -11.0045 C   0  0  0  0  0  0  0  0  0  0  0  0
  -13.4455  -38.1381  -11.8905 C   0  0  0  0  0  0  0  0  0  0  0  0
  -13.3691  -39.4389  -11.3810 C   0  0  0  0  0  0  0  0  0  0  0  0
  -13.5480  -40.5443  -12.1720 C   0  0  0  0  0  0  0  0  0  0  0  0
  -13.8153  -40.4074  -13.5278 C   0  0  0  0  0  0  0  0  0  0  0  0
  -13.8947  -39.1421  -14.0490 C   0  0  0  0  0  0  0  0  0  0  0  0
  -13.7092  -38.0256  -13.2264 C   0  0  0  0  0  0  0  0  0  0  0  0
  -13.4732  -41.9323  -11.6402 C   0  0  0  0  0  0  0  0  0  0  0  0
  -13.9842  -42.8955  -12.7181 C   0  0  0  0  0  0  0  0  0  0  0  0
  -12.0211  -42.2666  -11.3890 C   0  0  0  0  0  0  0  0  0  0  0  0
  1  2  1  0
  2  3  1  0
  3  4  1  0
  4  5  1  0
  5  6  1  0
  6  7  1  0
  7  8  1  0
  8  9  1  0
  9 10  1  1
  9 11  1  0
 12 11  1  1
 12 13  1  0
 13 14  1  0
 14 15  2  0
 14 16  1  0
 16 17  2  0
 17 18  1  0
 18 19  2  0
 19 20  1  0
 20 21  2  0
 20 22  1  0
 22 23  2  0
 23 24  1  0
 24 25  2  0
 25 26  1  0
 18 27  1  0
 27 28  2  0
 12 29  1  0
 29 30  1  6
 29 31  1  0
 31 32  1  0
 32 33  1  0
 33 34  1  0
 34 35  2  0
 35 36  1  0
 36 37  2  0
 37 38  1  0
 38 39  2  0
 36 40  1  0
 40 41  1  0
 40 42  1  0
 21 16  1  0
 26 22  1  0
 27  3  1  0
 39 34  1  0
M  END
$$$$
