
     RDKit          3D

 42 45  0  0  0  0  0  0  0  0999 V2000
  -24.8034  -43.1778   -9.0281 C   0  0  0  0  0  0  0  0  0  0  0  0
  -24.7320  -44.0454   -7.8042 C   0  0  0  0  0  0  0  0  0  0  0  0
  -23.4437  -44.0340   -7.1442 N   0  0  0  0  0  0  0  0  0  0  0  0
  -23.3915  -43.3912   -5.8375 C   0  0  0  0  0  0  0  0  0  0  0  0
  -23.8728  -41.9878   -5.8077 C   0  0  0  0  0  0  0  0  0  0  0  0
  -23.0288  -40.9969   -6.5582 C   0  0  0  0  0  0  0  0  0  0  0  0
  -21.9909  -40.4490   -5.6033 C   0  0  0  0  0  0  0  0  0  0  0  0
  -21.0937  -39.4346   -6.2953 C   0  0  0  0  0  0  0  0  0  0  0  0
  -19.9136  -39.2100   -5.3761 C   0  0  1  0  0  0  0  0  0  0  0  0
  -20.4289  -39.2118   -3.9185 C   0  0  0  0  0  0  0  0  0  0  0  0
  -18.8886  -40.2720   -5.4588 C   0  0  0  0  0  0  0  0  0  0  0  0
  -18.1640  -40.3195   -6.7311 C   0  0  2  0  0  0  0  0  0  0  0  0
  -17.2217  -41.4465   -6.8469 N   0  0  0  0  0  0  0  0  0  0  0  0
  -17.5514  -42.8019   -6.5994 C   0  0  0  0  0  0  0  0  0  0  0  0
  -16.6028  -43.3318   -5.8570 O   0  0  0  0  0  0  0  0  0  0  0  0
  -18.6474  -43.7040   -6.9619 C   0  0  0  0  0  0  0  0  0  0  0  0
  -20.0106  -43.4872   -7.1502 C   0  0  0  0  0  0  0  0  0  0  0  0
  -20.8685  -44.5333   -7.4964 C   0  0  0  0  0  0  0  0  0  0  0  0
  -20.2964  -45.8211   -7.6490 C   0  0  0  0  0  0  0  0  0  0  0  0
  -18.9756  -46.1001   -7.4798 C   0  0  0  0  0  0  0  0  0  0  0  0
  -18.1844  -45.0545   -7.1442 C   0  0  0  0  0  0  0  0  0  0  0  0
  -18.4283  -47.4549   -7.6488 C   0  0  0  0  0  0  0  0  0  0  0  0
  -18.7889  -48.5014   -6.9074 N   0  0  0  0  0  0  0  0  0  0  0  0
  -18.1117  -49.5964   -7.3055 C   0  0  0  0  0  0  0  0  0  0  0  0
  -17.3108  -49.1454   -8.3435 C   0  0  0  0  0  0  0  0  0  0  0  0
  -17.5375  -47.8639   -8.5074 O   0  0  0  0  0  0  0  0  0  0  0  0
  -22.3008  -44.6317   -7.7516 C   0  0  0  0  0  0  0  0  0  0  0  0
  -22.6972  -45.4148   -8.7263 O   0  0  0  0  0  0  0  0  0  0  0  0
  -17.4881  -38.9920   -6.9791 C   0  0  2  0  0  0  0  0  0  0  0  0
  -18.5028  -38.0420   -7.2734 O   0  0  0  0  0  0  0  0  0  0  0  0
  -16.5283  -39.0787   -8.1435 C   0  0  0  0  0  0  0  0  0  0  0  0
  -15.1900  -39.4059   -7.8084 N   0  0  0  0  0  0  0  0  0  0  0  0
  -14.1289  -38.8672   -8.5657 C   0  0  0  0  0  0  0  0  0  0  0  0
  -14.3876  -38.9218  -10.0279 C   0  0  0  0  0  0  0  0  0  0  0  0
  -14.8825  -37.8036  -10.7079 C   0  0  0  0  0  0  0  0  0  0  0  0
  -15.1379  -37.8224  -12.0547 C   0  0  0  0  0  0  0  0  0  0  0  0
  -14.9103  -38.9708  -12.8013 C   0  0  0  0  0  0  0  0  0  0  0  0
  -14.4255  -40.0788  -12.1561 C   0  0  0  0  0  0  0  0  0  0  0  0
  -14.1708  -40.0412  -10.7807 C   0  0  0  0  0  0  0  0  0  0  0  0
  -15.6602  -36.6379  -12.7890 C   0  0  0  0  0  0  0  0  0  0  0  0
  -14.7376  -36.3575  -13.9810 C   0  0  0  0  0  0  0  0  0  0  0  0
  -17.0213  -36.9865  -13.3451 C   0  0  0  0  0  0  0  0  0  0  0  0
  1  2  1  0
  2  3  1  0
  3  4  1  0
  4  5  1  0
  5  6  1  0
  6  7  1  0
  7  8  1  0
  8  9  1  0
  9 10  1  1
  9 11  1  0
 12 11  1  1
 12 13  1  0
 13 14  1  0
 14 15  2  0
 14 16  1  0
 16 17  2  0
 17 18  1  0
 18 19  2  0
 19 20  1  0
 20 21  2  0
 20 22  1  0
 22 23  2  0
 23 24  1  0
 24 25  2  0
 25 26  1  0
 18 27  1  0
 27 28  2  0
 12 29  1  0
 29 30  1  6
 29 31  1  0
 31 32  1  0
 32 33  1  0
 33 34  1  0
 34 35  2  0
 35 36  1  0
 36 37  2  0
 37 38  1  0
 38 39  2  0
 36 40  1  0
 40 41  1  0
 40 42  1  0
 21 16  1  0
 26 22  1  0
 27  3  1  0
 39 34  1  0
M  END
$$$$
