
     RDKit          3D

 42 45  0  0  0  0  0  0  0  0999 V2000
  -18.3875  -49.4919   -7.0889 C   0  0  0  0  0  0  0  0  0  0  0  0
  -17.6394  -48.1962   -6.9573 C   0  0  0  0  0  0  0  0  0  0  0  0
  -18.3883  -47.0337   -7.3855 N   0  0  0  0  0  0  0  0  0  0  0  0
  -18.5023  -46.8308   -8.8239 C   0  0  0  0  0  0  0  0  0  0  0  0
  -17.2120  -46.7712   -9.5545 C   0  0  0  0  0  0  0  0  0  0  0  0
  -16.3470  -45.5818   -9.2469 C   0  0  0  0  0  0  0  0  0  0  0  0
  -16.7135  -44.4754  -10.2117 C   0  0  0  0  0  0  0  0  0  0  0  0
  -15.8757  -43.2315   -9.9599 C   0  0  0  0  0  0  0  0  0  0  0  0
  -16.5366  -42.1080  -10.7272 C   0  0  1  0  0  0  0  0  0  0  0  0
  -17.0475  -42.6757  -12.0715 C   0  0  0  0  0  0  0  0  0  0  0  0
  -17.7136  -41.5349  -10.0407 C   0  0  0  0  0  0  0  0  0  0  0  0
  -17.4027  -40.8016   -8.8112 C   0  0  2  0  0  0  0  0  0  0  0  0
  -18.5881  -40.3270   -8.0757 N   0  0  0  0  0  0  0  0  0  0  0  0
  -19.6893  -41.1399   -7.7104 C   0  0  0  0  0  0  0  0  0  0  0  0
  -20.7981  -40.4946   -8.0036 O   0  0  0  0  0  0  0  0  0  0  0  0
  -19.8694  -42.4645   -7.1108 C   0  0  0  0  0  0  0  0  0  0  0  0
  -19.1322  -43.6423   -7.2116 C   0  0  0  0  0  0  0  0  0  0  0  0
  -19.5194  -44.7985   -6.5310 C   0  0  0  0  0  0  0  0  0  0  0  0
  -20.6895  -44.7244   -5.7345 C   0  0  0  0  0  0  0  0  0  0  0  0
  -21.4533  -43.6073   -5.5934 C   0  0  0  0  0  0  0  0  0  0  0  0
  -21.0385  -42.5126   -6.2727 C   0  0  0  0  0  0  0  0  0  0  0  0
  -22.6614  -43.5794   -4.7547 C   0  0  0  0  0  0  0  0  0  0  0  0
  -22.8154  -44.3030   -3.6467 N   0  0  0  0  0  0  0  0  0  0  0  0
  -24.0253  -44.0569   -3.1068 C   0  0  0  0  0  0  0  0  0  0  0  0
  -24.6010  -43.1312   -3.9634 C   0  0  0  0  0  0  0  0  0  0  0  0
  -23.7477  -42.8810   -4.9277 O   0  0  0  0  0  0  0  0  0  0  0  0
  -18.9822  -46.1509   -6.4365 C   0  0  0  0  0  0  0  0  0  0  0  0
  -19.0194  -46.7448   -5.2676 O   0  0  0  0  0  0  0  0  0  0  0  0
  -16.4438  -39.6767   -9.1210 C   0  0  2  0  0  0  0  0  0  0  0  0
  -15.1392  -40.2339   -9.1989 O   0  0  0  0  0  0  0  0  0  0  0  0
  -16.4754  -38.6210   -8.0396 C   0  0  0  0  0  0  0  0  0  0  0  0
  -16.5575  -37.2813   -8.4967 N   0  0  0  0  0  0  0  0  0  0  0  0
  -17.7447  -36.8225   -9.1048 C   0  0  0  0  0  0  0  0  0  0  0  0
  -18.9651  -37.3138   -8.4141 C   0  0  0  0  0  0  0  0  0  0  0  0
  -18.9214  -37.6880   -7.0666 C   0  0  0  0  0  0  0  0  0  0  0  0
  -20.0271  -38.1512   -6.4014 C   0  0  0  0  0  0  0  0  0  0  0  0
  -21.2476  -38.2664   -7.0538 C   0  0  0  0  0  0  0  0  0  0  0  0
  -21.3140  -37.9056   -8.3745 C   0  0  0  0  0  0  0  0  0  0  0  0
  -20.1750  -37.4350   -9.0371 C   0  0  0  0  0  0  0  0  0  0  0  0
  -19.9933  -38.5478   -4.9674 C   0  0  0  0  0  0  0  0  0  0  0  0
  -21.3006  -38.0963   -4.3058 C   0  0  0  0  0  0  0  0  0  0  0  0
  -19.9485  -40.0565   -4.8933 C   0  0  0  0  0  0  0  0  0  0  0  0
  1  2  1  0
  2  3  1  0
  3  4  1  0
  4  5  1  0
  5  6  1  0
  6  7  1  0
  7  8  1  0
  8  9  1  0
  9 10  1  6
  9 11  1  0
 12 11  1  6
 12 13  1  0
 13 14  1  0
 14 15  2  0
 14 16  1  0
 16 17  2  0
 17 18  1  0
 18 19  2  0
 19 20  1  0
 20 21  2  0
 20 22  1  0
 22 23  2  0
 23 24  1  0
 24 25  2  0
 25 26  1  0
 18 27  1  0
 27 28  2  0
 12 29  1  0
 29 30  1  1
 29 31  1  0
 31 32  1  0
 32 33  1  0
 33 34  1  0
 34 35  2  0
 35 36  1  0
 36 37  2  0
 37 38  1  0
 38 39  2  0
 36 40  1  0
 40 41  1  0
 40 42  1  0
 21 16  1  0
 26 22  1  0
 27  3  1  0
 39 34  1  0
M  END
$$$$
