
     RDKit          3D

 42 45  0  0  0  0  0  0  0  0999 V2000
  -24.6887  -42.4832   -9.9189 C   0  0  0  0  0  0  0  0  0  0  0  0
  -25.1136  -42.3728   -8.4825 C   0  0  0  0  0  0  0  0  0  0  0  0
  -24.1321  -41.7488   -7.6207 N   0  0  0  0  0  0  0  0  0  0  0  0
  -24.2334  -40.3036   -7.4643 C   0  0  0  0  0  0  0  0  0  0  0  0
  -24.2076  -39.5309   -8.7310 C   0  0  0  0  0  0  0  0  0  0  0  0
  -22.9086  -39.5656   -9.4852 C   0  0  0  0  0  0  0  0  0  0  0  0
  -22.0558  -38.4138   -9.0005 C   0  0  0  0  0  0  0  0  0  0  0  0
  -20.7172  -38.3840   -9.7217 C   0  0  0  0  0  0  0  0  0  0  0  0
  -19.8341  -37.4324   -8.9454 C   0  0  1  0  0  0  0  0  0  0  0  0
  -20.7035  -36.2465   -8.4679 C   0  0  0  0  0  0  0  0  0  0  0  0
  -19.2415  -38.0323   -7.7313 C   0  0  0  0  0  0  0  0  0  0  0  0
  -18.2514  -39.0799   -7.9922 C   0  0  2  0  0  0  0  0  0  0  0  0
  -17.7458  -39.7476   -6.7798 N   0  0  0  0  0  0  0  0  0  0  0  0
  -18.5632  -40.3056   -5.7662 C   0  0  0  0  0  0  0  0  0  0  0  0
  -18.0910  -39.9292   -4.5969 O   0  0  0  0  0  0  0  0  0  0  0  0
  -19.7509  -41.1623   -5.7213 C   0  0  0  0  0  0  0  0  0  0  0  0
  -20.8547  -41.2715   -6.5642 C   0  0  0  0  0  0  0  0  0  0  0  0
  -21.8802  -42.1815   -6.2988 C   0  0  0  0  0  0  0  0  0  0  0  0
  -21.7517  -42.9879   -5.1403 C   0  0  0  0  0  0  0  0  0  0  0  0
  -20.7014  -42.9310   -4.2772 C   0  0  0  0  0  0  0  0  0  0  0  0
  -19.7331  -42.0337   -4.5760 C   0  0  0  0  0  0  0  0  0  0  0  0
  -20.6128  -43.7893   -3.0860 C   0  0  0  0  0  0  0  0  0  0  0  0
  -21.2605  -44.9458   -2.9518 N   0  0  0  0  0  0  0  0  0  0  0  0
  -20.9741  -45.4915   -1.7534 C   0  0  0  0  0  0  0  0  0  0  0  0
  -20.1051  -44.5865   -1.1636 C   0  0  0  0  0  0  0  0  0  0  0  0
  -19.9230  -43.5914   -1.9984 O   0  0  0  0  0  0  0  0  0  0  0  0
  -23.1329  -42.5237   -6.9622 C   0  0  0  0  0  0  0  0  0  0  0  0
  -23.4806  -43.7879   -7.0004 O   0  0  0  0  0  0  0  0  0  0  0  0
  -17.1311  -38.5195   -8.8358 C   0  0  2  0  0  0  0  0  0  0  0  0
  -17.5019  -38.6731  -10.1987 O   0  0  0  0  0  0  0  0  0  0  0  0
  -15.8364  -39.2570   -8.5813 C   0  0  0  0  0  0  0  0  0  0  0  0
  -14.7011  -38.4376   -8.3573 N   0  0  0  0  0  0  0  0  0  0  0  0
  -13.4179  -39.0212   -8.3070 C   0  0  0  0  0  0  0  0  0  0  0  0
  -13.2022  -40.0171   -9.3885 C   0  0  0  0  0  0  0  0  0  0  0  0
  -12.3125  -41.0823   -9.2115 C   0  0  0  0  0  0  0  0  0  0  0  0
  -12.0859  -42.0145  -10.1909 C   0  0  0  0  0  0  0  0  0  0  0  0
  -12.7425  -41.9310  -11.4116 C   0  0  0  0  0  0  0  0  0  0  0  0
  -13.6189  -40.8954  -11.6076 C   0  0  0  0  0  0  0  0  0  0  0  0
  -13.8376  -39.9533  -10.5964 C   0  0  0  0  0  0  0  0  0  0  0  0
  -11.1453  -43.1538  -10.0120 C   0  0  0  0  0  0  0  0  0  0  0  0
   -9.7320  -42.6803  -10.3716 C   0  0  0  0  0  0  0  0  0  0  0  0
  -11.1342  -43.5350   -8.5498 C   0  0  0  0  0  0  0  0  0  0  0  0
  1  2  1  0
  2  3  1  0
  3  4  1  0
  4  5  1  0
  5  6  1  0
  6  7  1  0
  7  8  1  0
  8  9  1  0
  9 10  1  1
  9 11  1  0
 12 11  1  1
 12 13  1  0
 13 14  1  0
 14 15  2  0
 14 16  1  0
 16 17  2  0
 17 18  1  0
 18 19  2  0
 19 20  1  0
 20 21  2  0
 20 22  1  0
 22 23  2  0
 23 24  1  0
 24 25  2  0
 25 26  1  0
 18 27  1  0
 27 28  2  0
 12 29  1  0
 29 30  1  6
 29 31  1  0
 31 32  1  0
 32 33  1  0
 33 34  1  0
 34 35  2  0
 35 36  1  0
 36 37  2  0
 37 38  1  0
 38 39  2  0
 36 40  1  0
 40 41  1  0
 40 42  1  0
 21 16  1  0
 26 22  1  0
 27  3  1  0
 39 34  1  0
M  END
$$$$
