
     RDKit          3D

 42 45  0  0  0  0  0  0  0  0999 V2000
  -25.5990  -43.9404   -7.4248 C   0  0  0  0  0  0  0  0  0  0  0  0
  -24.4910  -43.1852   -8.1015 C   0  0  0  0  0  0  0  0  0  0  0  0
  -23.2210  -43.2507   -7.4099 N   0  0  0  0  0  0  0  0  0  0  0  0
  -23.0900  -42.4238   -6.2173 C   0  0  0  0  0  0  0  0  0  0  0  0
  -23.3650  -40.9797   -6.4203 C   0  0  0  0  0  0  0  0  0  0  0  0
  -22.3801  -40.2478   -7.2874 C   0  0  0  0  0  0  0  0  0  0  0  0
  -21.2838  -39.7073   -6.3957 C   0  0  0  0  0  0  0  0  0  0  0  0
  -20.2434  -38.9507   -7.2068 C   0  0  0  0  0  0  0  0  0  0  0  0
  -19.0524  -38.7518   -6.2958 C   0  0  1  0  0  0  0  0  0  0  0  0
  -19.5771  -38.4514   -4.8728 C   0  0  0  0  0  0  0  0  0  0  0  0
  -18.1898  -39.9466   -6.1802 C   0  0  0  0  0  0  0  0  0  0  0  0
  -17.4670  -40.2952   -7.4058 C   0  0  2  0  0  0  0  0  0  0  0  0
  -16.6952  -41.5472   -7.3156 N   0  0  0  0  0  0  0  0  0  0  0  0
  -17.2185  -42.7869   -6.8723 C   0  0  0  0  0  0  0  0  0  0  0  0
  -16.3631  -43.3209   -6.0267 O   0  0  0  0  0  0  0  0  0  0  0  0
  -18.4290  -43.5721   -7.1262 C   0  0  0  0  0  0  0  0  0  0  0  0
  -19.7451  -43.1986   -7.3896 C   0  0  0  0  0  0  0  0  0  0  0  0
  -20.7407  -44.1555   -7.5975 C   0  0  0  0  0  0  0  0  0  0  0  0
  -20.3581  -45.5186   -7.5306 C   0  0  0  0  0  0  0  0  0  0  0  0
  -19.0927  -45.9498   -7.2778 C   0  0  0  0  0  0  0  0  0  0  0  0
  -18.1629  -44.9859   -7.0825 C   0  0  0  0  0  0  0  0  0  0  0  0
  -18.7439  -47.3775   -7.2176 C   0  0  0  0  0  0  0  0  0  0  0  0
  -19.1303  -48.1979   -6.2415 N   0  0  0  0  0  0  0  0  0  0  0  0
  -18.6519  -49.4364   -6.4717 C   0  0  0  0  0  0  0  0  0  0  0  0
  -17.9450  -49.3157   -7.6582 C   0  0  0  0  0  0  0  0  0  0  0  0
  -18.0312  -48.0702   -8.0603 O   0  0  0  0  0  0  0  0  0  0  0  0
  -22.1698  -44.0910   -7.8804 C   0  0  0  0  0  0  0  0  0  0  0  0
  -22.6649  -44.9545   -8.7347 O   0  0  0  0  0  0  0  0  0  0  0  0
  -16.6051  -39.1314   -7.8341 C   0  0  2  0  0  0  0  0  0  0  0  0
  -17.4187  -38.2536   -8.5998 O   0  0  0  0  0  0  0  0  0  0  0  0
  -15.4393  -39.5978   -8.6755 C   0  0  0  0  0  0  0  0  0  0  0  0
  -14.1541  -39.2851   -8.1648 N   0  0  0  0  0  0  0  0  0  0  0  0
  -13.1873  -38.7066   -9.0135 C   0  0  0  0  0  0  0  0  0  0  0  0
  -13.6235  -38.6718  -10.4335 C   0  0  0  0  0  0  0  0  0  0  0  0
  -13.9518  -37.4597  -11.0503 C   0  0  0  0  0  0  0  0  0  0  0  0
  -14.3637  -37.3932  -12.3562 C   0  0  0  0  0  0  0  0  0  0  0  0
  -14.4709  -38.5459  -13.1231 C   0  0  0  0  0  0  0  0  0  0  0  0
  -14.1545  -39.7453  -12.5395 C   0  0  0  0  0  0  0  0  0  0  0  0
  -13.7358  -39.7937  -11.2052 C   0  0  0  0  0  0  0  0  0  0  0  0
  -14.7112  -36.1092  -13.0237 C   0  0  0  0  0  0  0  0  0  0  0  0
  -15.8170  -35.4224  -12.2137 C   0  0  0  0  0  0  0  0  0  0  0  0
  -13.4977  -35.2095  -12.9826 C   0  0  0  0  0  0  0  0  0  0  0  0
  1  2  1  0
  2  3  1  0
  3  4  1  0
  4  5  1  0
  5  6  1  0
  6  7  1  0
  7  8  1  0
  8  9  1  0
  9 10  1  1
  9 11  1  0
 12 11  1  1
 12 13  1  0
 13 14  1  0
 14 15  2  0
 14 16  1  0
 16 17  2  0
 17 18  1  0
 18 19  2  0
 19 20  1  0
 20 21  2  0
 20 22  1  0
 22 23  2  0
 23 24  1  0
 24 25  2  0
 25 26  1  0
 18 27  1  0
 27 28  2  0
 12 29  1  0
 29 30  1  6
 29 31  1  0
 31 32  1  0
 32 33  1  0
 33 34  1  0
 34 35  2  0
 35 36  1  0
 36 37  2  0
 37 38  1  0
 38 39  2  0
 36 40  1  0
 40 41  1  0
 40 42  1  0
 21 16  1  0
 26 22  1  0
 27  3  1  0
 39 34  1  0
M  END
$$$$
