
     RDKit          3D

 42 45  0  0  0  0  0  0  0  0999 V2000
  -25.3478  -43.7237   -8.6501 C   0  0  0  0  0  0  0  0  0  0  0  0
  -25.7138  -42.8035   -7.5209 C   0  0  0  0  0  0  0  0  0  0  0  0
  -24.6169  -41.9905   -7.0399 N   0  0  0  0  0  0  0  0  0  0  0  0
  -24.5468  -40.6287   -7.5535 C   0  0  0  0  0  0  0  0  0  0  0  0
  -24.5144  -40.5157   -9.0328 C   0  0  0  0  0  0  0  0  0  0  0  0
  -23.2771  -41.0501   -9.6970 C   0  0  0  0  0  0  0  0  0  0  0  0
  -22.2727  -39.9224   -9.7904 C   0  0  0  0  0  0  0  0  0  0  0  0
  -20.9870  -40.3900  -10.4544 C   0  0  0  0  0  0  0  0  0  0  0  0
  -19.9566  -39.3129  -10.1974 C   0  0  1  0  0  0  0  0  0  0  0  0
  -20.6570  -37.9386  -10.3032 C   0  0  0  0  0  0  0  0  0  0  0  0
  -19.3596  -39.3754   -8.8465 C   0  0  0  0  0  0  0  0  0  0  0  0
  -18.5106  -40.5457   -8.6109 C   0  0  2  0  0  0  0  0  0  0  0  0
  -18.0075  -40.6579   -7.2304 N   0  0  0  0  0  0  0  0  0  0  0  0
  -18.8169  -40.5932   -6.0695 C   0  0  0  0  0  0  0  0  0  0  0  0
  -18.2335  -39.7965   -5.1995 O   0  0  0  0  0  0  0  0  0  0  0  0
  -20.0874  -41.1796   -5.6354 C   0  0  0  0  0  0  0  0  0  0  0  0
  -21.2471  -41.5131   -6.3316 C   0  0  0  0  0  0  0  0  0  0  0  0
  -22.3489  -42.0685   -5.6777 C   0  0  0  0  0  0  0  0  0  0  0  0
  -22.2387  -42.2795   -4.2804 C   0  0  0  0  0  0  0  0  0  0  0  0
  -21.1367  -41.9765   -3.5423 C   0  0  0  0  0  0  0  0  0  0  0  0
  -20.0951  -41.4399   -4.2199 C   0  0  0  0  0  0  0  0  0  0  0  0
  -21.0698  -42.2137   -2.0922 C   0  0  0  0  0  0  0  0  0  0  0  0
  -20.0499  -41.8365   -1.3223 N   0  0  0  0  0  0  0  0  0  0  0  0
  -20.2863  -42.1961   -0.0453 C   0  0  0  0  0  0  0  0  0  0  0  0
  -21.5235  -42.8204   -0.0884 C   0  0  0  0  0  0  0  0  0  0  0  0
  -21.9462  -42.8042   -1.3299 O   0  0  0  0  0  0  0  0  0  0  0  0
  -23.6710  -42.5087   -6.1076 C   0  0  0  0  0  0  0  0  0  0  0  0
  -24.1589  -43.6001   -5.5680 O   0  0  0  0  0  0  0  0  0  0  0  0
  -17.3899  -40.5706   -9.6228 C   0  0  2  0  0  0  0  0  0  0  0  0
  -17.2862  -41.8990  -10.1160 O   0  0  0  0  0  0  0  0  0  0  0  0
  -16.0774  -40.1651   -8.9921 C   0  0  0  0  0  0  0  0  0  0  0  0
  -16.1709  -39.6137   -7.6892 N   0  0  0  0  0  0  0  0  0  0  0  0
  -16.1955  -38.2131   -7.5239 C   0  0  0  0  0  0  0  0  0  0  0  0
  -15.8691  -37.4857   -8.7778 C   0  0  0  0  0  0  0  0  0  0  0  0
  -16.2861  -36.1634   -8.9656 C   0  0  0  0  0  0  0  0  0  0  0  0
  -16.0072  -35.4661  -10.1126 C   0  0  0  0  0  0  0  0  0  0  0  0
  -15.2899  -36.0587  -11.1433 C   0  0  0  0  0  0  0  0  0  0  0  0
  -14.8711  -37.3539  -10.9814 C   0  0  0  0  0  0  0  0  0  0  0  0
  -15.1650  -38.0500   -9.8037 C   0  0  0  0  0  0  0  0  0  0  0  0
  -16.4419  -34.0581  -10.3213 C   0  0  0  0  0  0  0  0  0  0  0  0
  -15.2036  -33.1548  -10.2826 C   0  0  0  0  0  0  0  0  0  0  0  0
  -17.0383  -33.9458  -11.7053 C   0  0  0  0  0  0  0  0  0  0  0  0
  1  2  1  0
  2  3  1  0
  3  4  1  0
  4  5  1  0
  5  6  1  0
  6  7  1  0
  7  8  1  0
  8  9  1  0
  9 10  1  1
  9 11  1  0
 12 11  1  1
 12 13  1  0
 13 14  1  0
 14 15  2  0
 14 16  1  0
 16 17  2  0
 17 18  1  0
 18 19  2  0
 19 20  1  0
 20 21  2  0
 20 22  1  0
 22 23  2  0
 23 24  1  0
 24 25  2  0
 25 26  1  0
 18 27  1  0
 27 28  2  0
 12 29  1  0
 29 30  1  1
 29 31  1  0
 31 32  1  0
 32 33  1  0
 33 34  1  0
 34 35  2  0
 35 36  1  0
 36 37  2  0
 37 38  1  0
 38 39  2  0
 36 40  1  0
 40 41  1  0
 40 42  1  0
 21 16  1  0
 26 22  1  0
 27  3  1  0
 39 34  1  0
M  END
$$$$
