
     RDKit          3D

 42 45  0  0  0  0  0  0  0  0999 V2000
  -25.7974  -43.9437   -7.9314 C   0  0  0  0  0  0  0  0  0  0  0  0
  -24.5735  -43.4975   -8.6790 C   0  0  0  0  0  0  0  0  0  0  0  0
  -23.3693  -43.4614   -7.8764 N   0  0  0  0  0  0  0  0  0  0  0  0
  -23.3818  -42.5609   -6.7308 C   0  0  0  0  0  0  0  0  0  0  0  0
  -23.6987  -41.1460   -7.0468 C   0  0  0  0  0  0  0  0  0  0  0  0
  -22.6717  -40.4195   -7.8685 C   0  0  0  0  0  0  0  0  0  0  0  0
  -21.6843  -39.7758   -6.9199 C   0  0  0  0  0  0  0  0  0  0  0  0
  -20.6083  -39.0188   -7.6826 C   0  0  0  0  0  0  0  0  0  0  0  0
  -19.5139  -38.7101   -6.6851 C   0  0  1  0  0  0  0  0  0  0  0  0
  -20.1770  -38.3527   -5.3350 C   0  0  0  0  0  0  0  0  0  0  0  0
  -18.6150  -39.8533   -6.4202 C   0  0  0  0  0  0  0  0  0  0  0  0
  -17.7705  -40.2377   -7.5538 C   0  0  2  0  0  0  0  0  0  0  0  0
  -16.9573  -41.4439   -7.3185 N   0  0  0  0  0  0  0  0  0  0  0  0
  -17.4650  -42.6792   -6.8461 C   0  0  0  0  0  0  0  0  0  0  0  0
  -16.6674  -43.1212   -5.8972 O   0  0  0  0  0  0  0  0  0  0  0  0
  -18.6132  -43.5351   -7.1553 C   0  0  0  0  0  0  0  0  0  0  0  0
  -19.9148  -43.2413   -7.5556 C   0  0  0  0  0  0  0  0  0  0  0  0
  -20.8460  -44.2554   -7.7895 C   0  0  0  0  0  0  0  0  0  0  0  0
  -20.4131  -45.5923   -7.6045 C   0  0  0  0  0  0  0  0  0  0  0  0
  -19.1585  -45.9468   -7.2156 C   0  0  0  0  0  0  0  0  0  0  0  0
  -18.2920  -44.9295   -7.0003 C   0  0  0  0  0  0  0  0  0  0  0  0
  -18.7560  -47.3501   -7.0361 C   0  0  0  0  0  0  0  0  0  0  0  0
  -17.4958  -47.7776   -7.1025 N   0  0  0  0  0  0  0  0  0  0  0  0
  -17.4552  -49.1086   -6.8959 C   0  0  0  0  0  0  0  0  0  0  0  0
  -18.7803  -49.4655   -6.6985 C   0  0  0  0  0  0  0  0  0  0  0  0
  -19.5135  -48.3819   -6.7922 O   0  0  0  0  0  0  0  0  0  0  0  0
  -22.2451  -44.2763   -8.1997 C   0  0  0  0  0  0  0  0  0  0  0  0
  -22.6239  -45.2110   -9.0384 O   0  0  0  0  0  0  0  0  0  0  0  0
  -16.9239  -39.0609   -7.9769 C   0  0  2  0  0  0  0  0  0  0  0  0
  -17.8006  -38.0544   -8.4637 O   0  0  0  0  0  0  0  0  0  0  0  0
  -15.9535  -39.4523   -9.0678 C   0  0  0  0  0  0  0  0  0  0  0  0
  -14.8786  -40.2821   -8.6597 N   0  0  0  0  0  0  0  0  0  0  0  0
  -13.6451  -40.2120   -9.3404 C   0  0  0  0  0  0  0  0  0  0  0  0
  -13.7745  -39.6116  -10.6934 C   0  0  0  0  0  0  0  0  0  0  0  0
  -13.4387  -38.2716  -10.9152 C   0  0  0  0  0  0  0  0  0  0  0  0
  -13.5523  -37.6852  -12.1492 C   0  0  0  0  0  0  0  0  0  0  0  0
  -14.0122  -38.4137  -13.2383 C   0  0  0  0  0  0  0  0  0  0  0  0
  -14.3473  -39.7287  -13.0444 C   0  0  0  0  0  0  0  0  0  0  0  0
  -14.2249  -40.3103  -11.7777 C   0  0  0  0  0  0  0  0  0  0  0  0
  -13.1939  -36.2623  -12.3976 C   0  0  0  0  0  0  0  0  0  0  0  0
  -12.5351  -36.1593  -13.7783 C   0  0  0  0  0  0  0  0  0  0  0  0
  -14.4693  -35.4531  -12.4456 C   0  0  0  0  0  0  0  0  0  0  0  0
  1  2  1  0
  2  3  1  0
  3  4  1  0
  4  5  1  0
  5  6  1  0
  6  7  1  0
  7  8  1  0
  8  9  1  0
  9 10  1  1
  9 11  1  0
 12 11  1  1
 12 13  1  0
 13 14  1  0
 14 15  2  0
 14 16  1  0
 16 17  2  0
 17 18  1  0
 18 19  2  0
 19 20  1  0
 20 21  2  0
 20 22  1  0
 22 23  2  0
 23 24  1  0
 24 25  2  0
 25 26  1  0
 18 27  1  0
 27 28  2  0
 12 29  1  0
 29 30  1  6
 29 31  1  0
 31 32  1  0
 32 33  1  0
 33 34  1  0
 34 35  2  0
 35 36  1  0
 36 37  2  0
 37 38  1  0
 38 39  2  0
 36 40  1  0
 40 41  1  0
 40 42  1  0
 21 16  1  0
 26 22  1  0
 27  3  1  0
 39 34  1  0
M  END
$$$$
