
     RDKit          3D

 42 45  0  0  0  0  0  0  0  0999 V2000
  -25.5120  -43.0038   -7.9446 C   0  0  0  0  0  0  0  0  0  0  0  0
  -24.3883  -43.5313   -8.7901 C   0  0  0  0  0  0  0  0  0  0  0  0
  -23.0926  -43.4905   -8.1459 N   0  0  0  0  0  0  0  0  0  0  0  0
  -23.0473  -42.8860   -6.8208 C   0  0  0  0  0  0  0  0  0  0  0  0
  -23.5809  -41.5036   -6.7420 C   0  0  0  0  0  0  0  0  0  0  0  0
  -22.7852  -40.4588   -7.4720 C   0  0  0  0  0  0  0  0  0  0  0  0
  -21.7561  -39.9007   -6.5135 C   0  0  0  0  0  0  0  0  0  0  0  0
  -20.9073  -38.8323   -7.1849 C   0  0  0  0  0  0  0  0  0  0  0  0
  -19.7243  -38.5906   -6.2737 C   0  0  1  0  0  0  0  0  0  0  0  0
  -20.2197  -38.6562   -4.8106 C   0  0  0  0  0  0  0  0  0  0  0  0
  -18.6611  -39.6096   -6.4015 C   0  0  0  0  0  0  0  0  0  0  0  0
  -17.9523  -39.5909   -7.6834 C   0  0  2  0  0  0  0  0  0  0  0  0
  -16.9697  -40.6769   -7.8454 N   0  0  0  0  0  0  0  0  0  0  0  0
  -17.2444  -42.0508   -7.6356 C   0  0  0  0  0  0  0  0  0  0  0  0
  -16.2665  -42.5662   -6.9215 O   0  0  0  0  0  0  0  0  0  0  0  0
  -18.3102  -42.9828   -8.0122 C   0  0  0  0  0  0  0  0  0  0  0  0
  -19.6831  -42.8127   -8.1771 C   0  0  0  0  0  0  0  0  0  0  0  0
  -20.5052  -43.8800   -8.5448 C   0  0  0  0  0  0  0  0  0  0  0  0
  -19.8869  -45.1398   -8.7439 C   0  0  0  0  0  0  0  0  0  0  0  0
  -18.5543  -45.3730   -8.5995 C   0  0  0  0  0  0  0  0  0  0  0  0
  -17.7989  -44.3085   -8.2416 C   0  0  0  0  0  0  0  0  0  0  0  0
  -17.9584  -46.7001   -8.8167 C   0  0  0  0  0  0  0  0  0  0  0  0
  -16.7517  -46.8968   -9.3462 N   0  0  0  0  0  0  0  0  0  0  0  0
  -16.4938  -48.2178   -9.4132 C   0  0  0  0  0  0  0  0  0  0  0  0
  -17.6287  -48.8156   -8.8872 C   0  0  0  0  0  0  0  0  0  0  0  0
  -18.4696  -47.8680   -8.5475 O   0  0  0  0  0  0  0  0  0  0  0  0
  -21.9361  -44.0254   -8.7853 C   0  0  0  0  0  0  0  0  0  0  0  0
  -22.3156  -44.7933   -9.7787 O   0  0  0  0  0  0  0  0  0  0  0  0
  -17.3306  -38.2316   -7.8988 C   0  0  2  0  0  0  0  0  0  0  0  0
  -18.2389  -37.4621   -8.6744 O   0  0  0  0  0  0  0  0  0  0  0  0
  -16.0141  -38.3449   -8.6328 C   0  0  0  0  0  0  0  0  0  0  0  0
  -15.2761  -39.5296   -8.3833 N   0  0  0  0  0  0  0  0  0  0  0  0
  -14.4404  -40.0567   -9.3899 C   0  0  0  0  0  0  0  0  0  0  0  0
  -14.7471  -39.5013  -10.7335 C   0  0  0  0  0  0  0  0  0  0  0  0
  -14.4476  -38.1696  -11.0412 C   0  0  0  0  0  0  0  0  0  0  0  0
  -14.7231  -37.6243  -12.2685 C   0  0  0  0  0  0  0  0  0  0  0  0
  -15.3186  -38.3880  -13.2637 C   0  0  0  0  0  0  0  0  0  0  0  0
  -15.6212  -39.6956  -12.9846 C   0  0  0  0  0  0  0  0  0  0  0  0
  -15.3327  -40.2351  -11.7262 C   0  0  0  0  0  0  0  0  0  0  0  0
  -14.4050  -36.2107  -12.6082 C   0  0  0  0  0  0  0  0  0  0  0  0
  -13.6577  -36.1873  -13.9468 C   0  0  0  0  0  0  0  0  0  0  0  0
  -15.7050  -35.4658  -12.8050 C   0  0  0  0  0  0  0  0  0  0  0  0
  1  2  1  0
  2  3  1  0
  3  4  1  0
  4  5  1  0
  5  6  1  0
  6  7  1  0
  7  8  1  0
  8  9  1  0
  9 10  1  1
  9 11  1  0
 12 11  1  1
 12 13  1  0
 13 14  1  0
 14 15  2  0
 14 16  1  0
 16 17  2  0
 17 18  1  0
 18 19  2  0
 19 20  1  0
 20 21  2  0
 20 22  1  0
 22 23  2  0
 23 24  1  0
 24 25  2  0
 25 26  1  0
 18 27  1  0
 27 28  2  0
 12 29  1  0
 29 30  1  6
 29 31  1  0
 31 32  1  0
 32 33  1  0
 33 34  1  0
 34 35  2  0
 35 36  1  0
 36 37  2  0
 37 38  1  0
 38 39  2  0
 36 40  1  0
 40 41  1  0
 40 42  1  0
 21 16  1  0
 26 22  1  0
 27  3  1  0
 39 34  1  0
M  END
$$$$
