
     RDKit          3D

 42 45  0  0  0  0  0  0  0  0999 V2000
  -24.7067  -42.6222   -9.4902 C   0  0  0  0  0  0  0  0  0  0  0  0
  -24.6142  -43.6196   -8.3711 C   0  0  0  0  0  0  0  0  0  0  0  0
  -23.3925  -43.5326   -7.5994 N   0  0  0  0  0  0  0  0  0  0  0  0
  -23.4320  -42.6792   -6.4189 C   0  0  0  0  0  0  0  0  0  0  0  0
  -23.8516  -41.2781   -6.6699 C   0  0  0  0  0  0  0  0  0  0  0  0
  -22.8994  -40.4529   -7.4885 C   0  0  0  0  0  0  0  0  0  0  0  0
  -21.9303  -39.7803   -6.5412 C   0  0  0  0  0  0  0  0  0  0  0  0
  -20.9295  -38.9237   -7.3010 C   0  0  0  0  0  0  0  0  0  0  0  0
  -19.8298  -38.5797   -6.3210 C   0  0  1  0  0  0  0  0  0  0  0  0
  -20.4762  -38.3197   -4.9408 C   0  0  0  0  0  0  0  0  0  0  0  0
  -18.8495  -39.6686   -6.1254 C   0  0  0  0  0  0  0  0  0  0  0  0
  -18.0142  -39.9516   -7.2951 C   0  0  2  0  0  0  0  0  0  0  0  0
  -17.1159  -41.1079   -7.1294 N   0  0  0  0  0  0  0  0  0  0  0  0
  -17.5263  -42.3919   -6.6936 C   0  0  0  0  0  0  0  0  0  0  0  0
  -16.6741  -42.8146   -5.7843 O   0  0  0  0  0  0  0  0  0  0  0  0
  -18.6233  -43.3112   -7.0065 C   0  0  0  0  0  0  0  0  0  0  0  0
  -19.9526  -43.0913   -7.3606 C   0  0  0  0  0  0  0  0  0  0  0  0
  -20.8204  -44.1565   -7.6103 C   0  0  0  0  0  0  0  0  0  0  0  0
  -20.2942  -45.4671   -7.4901 C   0  0  0  0  0  0  0  0  0  0  0  0
  -19.0080  -45.7503   -7.1486 C   0  0  0  0  0  0  0  0  0  0  0  0
  -18.2056  -44.6856   -6.9157 C   0  0  0  0  0  0  0  0  0  0  0  0
  -18.5079  -47.1289   -7.0358 C   0  0  0  0  0  0  0  0  0  0  0  0
  -17.8935  -47.6122   -5.9569 N   0  0  0  0  0  0  0  0  0  0  0  0
  -17.5578  -48.9008   -6.1631 C   0  0  0  0  0  0  0  0  0  0  0  0
  -18.0103  -49.1719   -7.4453 C   0  0  0  0  0  0  0  0  0  0  0  0
  -18.5679  -48.0839   -7.9203 O   0  0  0  0  0  0  0  0  0  0  0  0
  -22.2263  -44.2565   -7.9843 C   0  0  0  0  0  0  0  0  0  0  0  0
  -22.5659  -45.1822   -8.8494 O   0  0  0  0  0  0  0  0  0  0  0  0
  -17.2605  -38.7049   -7.6930 C   0  0  2  0  0  0  0  0  0  0  0  0
  -18.1946  -37.8053   -8.2733 O   0  0  0  0  0  0  0  0  0  0  0  0
  -16.1767  -39.0211   -8.6981 C   0  0  0  0  0  0  0  0  0  0  0  0
  -14.9879  -39.5757   -8.1598 N   0  0  0  0  0  0  0  0  0  0  0  0
  -13.7581  -39.3621   -8.8168 C   0  0  0  0  0  0  0  0  0  0  0  0
  -13.9160  -39.2118  -10.2866 C   0  0  0  0  0  0  0  0  0  0  0  0
  -13.9008  -37.9452  -10.8807 C   0  0  0  0  0  0  0  0  0  0  0  0
  -14.0500  -37.7712  -12.2324 C   0  0  0  0  0  0  0  0  0  0  0  0
  -14.2244  -38.8643  -13.0708 C   0  0  0  0  0  0  0  0  0  0  0  0
  -14.2427  -40.1153  -12.5106 C   0  0  0  0  0  0  0  0  0  0  0  0
  -14.0889  -40.2736  -11.1289 C   0  0  0  0  0  0  0  0  0  0  0  0
  -14.0310  -36.4292  -12.8756 C   0  0  0  0  0  0  0  0  0  0  0  0
  -14.0515  -35.3611  -11.7757 C   0  0  0  0  0  0  0  0  0  0  0  0
  -12.7268  -36.2801  -13.6241 C   0  0  0  0  0  0  0  0  0  0  0  0
  1  2  1  0
  2  3  1  0
  3  4  1  0
  4  5  1  0
  5  6  1  0
  6  7  1  0
  7  8  1  0
  8  9  1  0
  9 10  1  1
  9 11  1  0
 12 11  1  1
 12 13  1  0
 13 14  1  0
 14 15  2  0
 14 16  1  0
 16 17  2  0
 17 18  1  0
 18 19  2  0
 19 20  1  0
 20 21  2  0
 20 22  1  0
 22 23  2  0
 23 24  1  0
 24 25  2  0
 25 26  1  0
 18 27  1  0
 27 28  2  0
 12 29  1  0
 29 30  1  6
 29 31  1  0
 31 32  1  0
 32 33  1  0
 33 34  1  0
 34 35  2  0
 35 36  1  0
 36 37  2  0
 37 38  1  0
 38 39  2  0
 36 40  1  0
 40 41  1  0
 40 42  1  0
 21 16  1  0
 26 22  1  0
 27  3  1  0
 39 34  1  0
M  END
$$$$
