
     RDKit          3D

 42 45  0  0  0  0  0  0  0  0999 V2000
  -25.0494  -44.1811   -8.4392 C   0  0  0  0  0  0  0  0  0  0  0  0
  -24.9125  -43.5501   -7.0831 C   0  0  0  0  0  0  0  0  0  0  0  0
  -23.5444  -43.4042   -6.6330 N   0  0  0  0  0  0  0  0  0  0  0  0
  -23.3396  -42.6028   -5.4333 C   0  0  0  0  0  0  0  0  0  0  0  0
  -23.8933  -41.2273   -5.4942 C   0  0  0  0  0  0  0  0  0  0  0  0
  -23.2281  -40.3035   -6.4748 C   0  0  0  0  0  0  0  0  0  0  0  0
  -22.0959  -39.5994   -5.7596 C   0  0  0  0  0  0  0  0  0  0  0  0
  -21.3709  -38.6429   -6.6935 C   0  0  0  0  0  0  0  0  0  0  0  0
  -20.0844  -38.2581   -5.9974 C   0  0  1  0  0  0  0  0  0  0  0  0
  -20.3800  -38.1001   -4.4881 C   0  0  0  0  0  0  0  0  0  0  0  0
  -19.0217  -39.2793   -6.1110 C   0  0  0  0  0  0  0  0  0  0  0  0
  -18.4895  -39.4546   -7.4645 C   0  0  2  0  0  0  0  0  0  0  0  0
  -17.5095  -40.5478   -7.5906 N   0  0  0  0  0  0  0  0  0  0  0  0
  -17.7188  -41.8743   -7.1396 C   0  0  0  0  0  0  0  0  0  0  0  0
  -16.6422  -42.2689   -6.4938 O   0  0  0  0  0  0  0  0  0  0  0  0
  -18.8010  -42.8584   -7.2232 C   0  0  0  0  0  0  0  0  0  0  0  0
  -20.1874  -42.7225   -7.2256 C   0  0  0  0  0  0  0  0  0  0  0  0
  -21.0235  -43.8377   -7.3129 C   0  0  0  0  0  0  0  0  0  0  0  0
  -20.4049  -45.1100   -7.3998 C   0  0  0  0  0  0  0  0  0  0  0  0
  -19.0594  -45.3116   -7.4025 C   0  0  0  0  0  0  0  0  0  0  0  0
  -18.2907  -44.2011   -7.3154 C   0  0  0  0  0  0  0  0  0  0  0  0
  -18.4637  -46.6535   -7.4940 C   0  0  0  0  0  0  0  0  0  0  0  0
  -18.6302  -47.4728   -8.5313 N   0  0  0  0  0  0  0  0  0  0  0  0
  -17.9608  -48.6223   -8.3154 C   0  0  0  0  0  0  0  0  0  0  0  0
  -17.3728  -48.4481   -7.0720 C   0  0  0  0  0  0  0  0  0  0  0  0
  -17.7036  -47.2597   -6.6264 O   0  0  0  0  0  0  0  0  0  0  0  0
  -22.4694  -44.0255   -7.3336 C   0  0  0  0  0  0  0  0  0  0  0  0
  -22.9572  -44.9389   -8.1386 O   0  0  0  0  0  0  0  0  0  0  0  0
  -17.9367  -38.1415   -7.9655 C   0  0  2  0  0  0  0  0  0  0  0  0
  -18.2323  -38.0525   -9.3524 O   0  0  0  0  0  0  0  0  0  0  0  0
  -16.4403  -38.0688   -7.7653 C   0  0  0  0  0  0  0  0  0  0  0  0
  -15.6570  -38.6228   -8.8093 N   0  0  0  0  0  0  0  0  0  0  0  0
  -15.0381  -39.8772   -8.6276 C   0  0  0  0  0  0  0  0  0  0  0  0
  -15.1061  -40.7275   -9.8443 C   0  0  0  0  0  0  0  0  0  0  0  0
  -14.2354  -41.8103  -10.0085 C   0  0  0  0  0  0  0  0  0  0  0  0
  -14.2675  -42.6105  -11.1212 C   0  0  0  0  0  0  0  0  0  0  0  0
  -15.1804  -42.3690  -12.1394 C   0  0  0  0  0  0  0  0  0  0  0  0
  -16.0435  -41.3132  -12.0001 C   0  0  0  0  0  0  0  0  0  0  0  0
  -15.9961  -40.5072  -10.8573 C   0  0  0  0  0  0  0  0  0  0  0  0
  -13.3492  -43.7673  -11.3045 C   0  0  0  0  0  0  0  0  0  0  0  0
  -14.1735  -45.0587  -11.2420 C   0  0  0  0  0  0  0  0  0  0  0  0
  -12.7493  -43.6823  -12.6888 C   0  0  0  0  0  0  0  0  0  0  0  0
  1  2  1  0
  2  3  1  0
  3  4  1  0
  4  5  1  0
  5  6  1  0
  6  7  1  0
  7  8  1  0
  8  9  1  0
  9 10  1  1
  9 11  1  0
 12 11  1  1
 12 13  1  0
 13 14  1  0
 14 15  2  0
 14 16  1  0
 16 17  2  0
 17 18  1  0
 18 19  2  0
 19 20  1  0
 20 21  2  0
 20 22  1  0
 22 23  2  0
 23 24  1  0
 24 25  2  0
 25 26  1  0
 18 27  1  0
 27 28  2  0
 12 29  1  0
 29 30  1  6
 29 31  1  0
 31 32  1  0
 32 33  1  0
 33 34  1  0
 34 35  2  0
 35 36  1  0
 36 37  2  0
 37 38  1  0
 38 39  2  0
 36 40  1  0
 40 41  1  0
 40 42  1  0
 21 16  1  0
 26 22  1  0
 27  3  1  0
 39 34  1  0
M  END
$$$$
