
     RDKit          3D

 42 45  0  0  0  0  0  0  0  0999 V2000
  -18.8292  -47.6739   -5.1916 C   0  0  0  0  0  0  0  0  0  0  0  0
  -20.0397  -47.6572   -6.0805 C   0  0  0  0  0  0  0  0  0  0  0  0
  -20.2179  -46.4228   -6.8155 N   0  0  0  0  0  0  0  0  0  0  0  0
  -19.9006  -46.4644   -8.2371 C   0  0  0  0  0  0  0  0  0  0  0  0
  -18.5307  -46.9334   -8.5619 C   0  0  0  0  0  0  0  0  0  0  0  0
  -17.4148  -46.0254   -8.1285 C   0  0  0  0  0  0  0  0  0  0  0  0
  -17.1339  -45.0583   -9.2576 C   0  0  0  0  0  0  0  0  0  0  0  0
  -16.0103  -44.1015   -8.8904 C   0  0  0  0  0  0  0  0  0  0  0  0
  -16.0391  -42.9929   -9.9190 C   0  0  1  0  0  0  0  0  0  0  0  0
  -16.3682  -43.6179  -11.2943 C   0  0  0  0  0  0  0  0  0  0  0  0
  -17.0795  -41.9746   -9.6625 C   0  0  0  0  0  0  0  0  0  0  0  0
  -16.8473  -41.1556   -8.4703 C   0  0  2  0  0  0  0  0  0  0  0  0
  -17.9409  -40.2177   -8.1603 N   0  0  0  0  0  0  0  0  0  0  0  0
  -19.3071  -40.5779   -8.0573 C   0  0  0  0  0  0  0  0  0  0  0  0
  -20.0216  -39.6936   -8.7202 O   0  0  0  0  0  0  0  0  0  0  0  0
  -20.0694  -41.6515   -7.4147 C   0  0  0  0  0  0  0  0  0  0  0  0
  -19.7778  -42.9943   -7.1852 C   0  0  0  0  0  0  0  0  0  0  0  0
  -20.6902  -43.8330   -6.5416 C   0  0  0  0  0  0  0  0  0  0  0  0
  -21.9215  -43.2630   -6.1316 C   0  0  0  0  0  0  0  0  0  0  0  0
  -22.2678  -41.9616   -6.3249 C   0  0  0  0  0  0  0  0  0  0  0  0
  -21.3516  -41.1886   -6.9532 C   0  0  0  0  0  0  0  0  0  0  0  0
  -23.5597  -41.4157   -5.8813 C   0  0  0  0  0  0  0  0  0  0  0  0
  -24.0250  -40.2197   -6.2394 N   0  0  0  0  0  0  0  0  0  0  0  0
  -25.2287  -40.0107   -5.6710 C   0  0  0  0  0  0  0  0  0  0  0  0
  -25.4670  -41.1639   -4.9392 C   0  0  0  0  0  0  0  0  0  0  0  0
  -24.4429  -41.9678   -5.0984 O   0  0  0  0  0  0  0  0  0  0  0  0
  -20.6875  -45.2426   -6.1682 C   0  0  0  0  0  0  0  0  0  0  0  0
  -21.2096  -45.5708   -5.0105 O   0  0  0  0  0  0  0  0  0  0  0  0
  -15.5174  -40.4504   -8.5911 C   0  0  2  0  0  0  0  0  0  0  0  0
  -14.5734  -41.1789   -7.8186 O   0  0  0  0  0  0  0  0  0  0  0  0
  -15.6035  -39.0330   -8.0731 C   0  0  0  0  0  0  0  0  0  0  0  0
  -15.2264  -38.0226   -8.9936 N   0  0  0  0  0  0  0  0  0  0  0  0
  -15.8536  -36.7603   -8.9405 C   0  0  0  0  0  0  0  0  0  0  0  0
  -17.1869  -36.7586   -9.5963 C   0  0  0  0  0  0  0  0  0  0  0  0
  -17.3042  -36.5530  -10.9753 C   0  0  0  0  0  0  0  0  0  0  0  0
  -18.5191  -36.5392  -11.6105 C   0  0  0  0  0  0  0  0  0  0  0  0
  -19.6932  -36.7317  -10.8944 C   0  0  0  0  0  0  0  0  0  0  0  0
  -19.6025  -36.9349   -9.5418 C   0  0  0  0  0  0  0  0  0  0  0  0
  -18.3537  -36.9457   -8.9106 C   0  0  0  0  0  0  0  0  0  0  0  0
  -18.6555  -36.3259  -13.0770 C   0  0  0  0  0  0  0  0  0  0  0  0
  -19.6828  -37.3254  -13.6215 C   0  0  0  0  0  0  0  0  0  0  0  0
  -19.2112  -34.9393  -13.3053 C   0  0  0  0  0  0  0  0  0  0  0  0
  1  2  1  0
  2  3  1  0
  3  4  1  0
  4  5  1  0
  5  6  1  0
  6  7  1  0
  7  8  1  0
  8  9  1  0
  9 10  1  6
  9 11  1  0
 12 11  1  6
 12 13  1  0
 13 14  1  0
 14 15  2  0
 14 16  1  0
 16 17  2  0
 17 18  1  0
 18 19  2  0
 19 20  1  0
 20 21  2  0
 20 22  1  0
 22 23  2  0
 23 24  1  0
 24 25  2  0
 25 26  1  0
 18 27  1  0
 27 28  2  0
 12 29  1  0
 29 30  1  1
 29 31  1  0
 31 32  1  0
 32 33  1  0
 33 34  1  0
 34 35  2  0
 35 36  1  0
 36 37  2  0
 37 38  1  0
 38 39  2  0
 36 40  1  0
 40 41  1  0
 40 42  1  0
 21 16  1  0
 26 22  1  0
 27  3  1  0
 39 34  1  0
M  END
$$$$
