
     RDKit          3D

 42 45  0  0  0  0  0  0  0  0999 V2000
  -22.3636  -46.9140   -6.5839 C   0  0  0  0  0  0  0  0  0  0  0  0
  -22.3374  -45.6245   -5.8142 C   0  0  0  0  0  0  0  0  0  0  0  0
  -21.9997  -44.4650   -6.6124 N   0  0  0  0  0  0  0  0  0  0  0  0
  -21.5380  -44.7256   -7.9697 C   0  0  0  0  0  0  0  0  0  0  0  0
  -20.3735  -45.6397   -8.0729 C   0  0  0  0  0  0  0  0  0  0  0  0
  -19.0827  -45.1109   -7.5145 C   0  0  0  0  0  0  0  0  0  0  0  0
  -18.3555  -44.3851   -8.6251 C   0  0  0  0  0  0  0  0  0  0  0  0
  -17.0330  -43.8183   -8.1327 C   0  0  0  0  0  0  0  0  0  0  0  0
  -16.5606  -42.8502   -9.1946 C   0  0  1  0  0  0  0  0  0  0  0  0
  -16.9032  -43.4465  -10.5793 C   0  0  0  0  0  0  0  0  0  0  0  0
  -17.2254  -41.5315   -9.1309 C   0  0  0  0  0  0  0  0  0  0  0  0
  -16.8856  -40.7361   -7.9485 C   0  0  2  0  0  0  0  0  0  0  0  0
  -17.6337  -39.4715   -7.8368 N   0  0  0  0  0  0  0  0  0  0  0  0
  -19.0433  -39.3582   -7.9217 C   0  0  0  0  0  0  0  0  0  0  0  0
  -19.3323  -38.3481   -8.7143 O   0  0  0  0  0  0  0  0  0  0  0  0
  -20.1944  -40.0683   -7.3587 C   0  0  0  0  0  0  0  0  0  0  0  0
  -20.3986  -41.4090   -7.0397 C   0  0  0  0  0  0  0  0  0  0  0  0
  -21.6118  -41.8489   -6.5062 C   0  0  0  0  0  0  0  0  0  0  0  0
  -22.6238  -40.8777   -6.3022 C   0  0  0  0  0  0  0  0  0  0  0  0
  -22.4891  -39.5552   -6.5919 C   0  0  0  0  0  0  0  0  0  0  0  0
  -21.2962  -39.1771   -7.1073 C   0  0  0  0  0  0  0  0  0  0  0  0
  -23.5699  -38.5842   -6.3627 C   0  0  0  0  0  0  0  0  0  0  0  0
  -23.5462  -37.3264   -6.8014 N   0  0  0  0  0  0  0  0  0  0  0  0
  -24.6772  -36.6939   -6.4317 C   0  0  0  0  0  0  0  0  0  0  0  0
  -25.3949  -37.6541   -5.7352 C   0  0  0  0  0  0  0  0  0  0  0  0
  -24.6914  -38.7611   -5.7232 O   0  0  0  0  0  0  0  0  0  0  0  0
  -22.1264  -43.1466   -6.0848 C   0  0  0  0  0  0  0  0  0  0  0  0
  -22.8695  -43.1898   -5.0047 O   0  0  0  0  0  0  0  0  0  0  0  0
  -15.3927  -40.5141   -7.8991 C   0  0  2  0  0  0  0  0  0  0  0  0
  -14.8971  -41.1825   -6.7475 O   0  0  0  0  0  0  0  0  0  0  0  0
  -15.0638  -39.0417   -7.8058 C   0  0  0  0  0  0  0  0  0  0  0  0
  -15.6815  -38.2154   -8.7785 N   0  0  0  0  0  0  0  0  0  0  0  0
  -15.0482  -38.0073  -10.0216 C   0  0  0  0  0  0  0  0  0  0  0  0
  -15.3951  -36.6945  -10.6249 C   0  0  0  0  0  0  0  0  0  0  0  0
  -16.7281  -36.2786  -10.7125 C   0  0  0  0  0  0  0  0  0  0  0  0
  -17.0827  -35.0767  -11.2687 C   0  0  0  0  0  0  0  0  0  0  0  0
  -16.1146  -34.2179  -11.7723 C   0  0  0  0  0  0  0  0  0  0  0  0
  -14.8017  -34.6047  -11.6972 C   0  0  0  0  0  0  0  0  0  0  0  0
  -14.4586  -35.8351  -11.1261 C   0  0  0  0  0  0  0  0  0  0  0  0
  -18.4967  -34.6223  -11.3632 C   0  0  0  0  0  0  0  0  0  0  0  0
  -19.3726  -35.8270  -11.7270 C   0  0  0  0  0  0  0  0  0  0  0  0
  -18.9336  -34.1436   -9.9980 C   0  0  0  0  0  0  0  0  0  0  0  0
  1  2  1  0
  2  3  1  0
  3  4  1  0
  4  5  1  0
  5  6  1  0
  6  7  1  0
  7  8  1  0
  8  9  1  0
  9 10  1  6
  9 11  1  0
 12 11  1  6
 12 13  1  0
 13 14  1  0
 14 15  2  0
 14 16  1  0
 16 17  2  0
 17 18  1  0
 18 19  2  0
 19 20  1  0
 20 21  2  0
 20 22  1  0
 22 23  2  0
 23 24  1  0
 24 25  2  0
 25 26  1  0
 18 27  1  0
 27 28  2  0
 12 29  1  0
 29 30  1  1
 29 31  1  0
 31 32  1  0
 32 33  1  0
 33 34  1  0
 34 35  2  0
 35 36  1  0
 36 37  2  0
 37 38  1  0
 38 39  2  0
 36 40  1  0
 40 41  1  0
 40 42  1  0
 21 16  1  0
 26 22  1  0
 27  3  1  0
 39 34  1  0
M  END
$$$$
