
     RDKit          3D

 37 40  0  0  0  0  0  0  0  0999 V2000
  -13.6761  -36.2309  -11.4762 C   0  0  0  0  0  0  0  0  0  0  0  0
  -13.4293  -37.3677  -12.1563 O   0  0  0  0  0  0  0  0  0  0  0  0
  -13.0692  -38.4994  -11.5227 C   0  0  0  0  0  0  0  0  0  0  0  0
  -14.1825  -39.1872  -10.8000 C   0  0  1  0  0  0  0  0  0  0  0  0
  -14.0789  -39.1760   -9.3062 C   0  0  0  0  0  0  0  0  0  0  0  0
  -15.3565  -38.7038   -8.7032 N   0  0  0  0  0  0  0  0  0  0  0  0
  -16.4303  -39.5687   -9.2563 C   0  0  2  0  0  0  0  0  0  0  0  0
  -16.4340  -39.2440  -10.7611 C   0  0  0  0  0  0  0  0  0  0  0  0
  -15.3587  -38.4094  -11.0757 O   0  0  0  0  0  0  0  0  0  0  0  0
  -17.7005  -39.1645   -8.5920 C   0  0  1  0  0  0  0  0  0  0  0  0
  -18.6268  -38.9093   -9.6160 O   0  0  0  0  0  0  0  0  0  0  0  0
  -18.2363  -40.1186   -7.5613 C   0  0  2  0  0  0  0  0  0  0  0  0
  -18.8269  -39.4215   -6.3544 C   0  0  0  0  0  0  0  0  0  0  0  0
  -20.3146  -39.5517   -6.2212 C   0  0  0  0  0  0  0  0  0  0  0  0
  -20.9347  -38.2952   -6.4352 C   0  0  0  0  0  0  0  0  0  0  0  0
  -22.2842  -38.0891   -6.3774 C   0  0  0  0  0  0  0  0  0  0  0  0
  -23.0211  -39.2110   -6.0906 C   0  0  0  0  0  0  0  0  0  0  0  0
  -22.4577  -40.4837   -5.8703 C   0  0  0  0  0  0  0  0  0  0  0  0
  -21.0727  -40.6440   -5.9392 C   0  0  0  0  0  0  0  0  0  0  0  0
  -23.4322  -41.4151   -5.6059 O   0  0  0  0  0  0  0  0  0  0  0  0
  -23.9018  -42.6309   -6.0064 C   0  0  0  0  0  0  0  0  0  0  0  0
  -23.0971  -43.8411   -5.6055 C   0  0  0  0  0  0  0  0  0  0  0  0
  -23.1812  -44.9733   -6.6051 C   0  0  0  0  0  0  0  0  0  0  0  0
  -22.7043  -44.5862   -7.9644 C   0  0  0  0  0  0  0  0  0  0  0  0
  -21.4340  -45.2174   -8.2340 N   0  0  0  0  0  0  0  0  0  0  0  0
  -20.0923  -44.8248   -7.8964 C   0  0  0  0  0  0  0  0  0  0  0  0
  -19.4179  -45.9775   -7.4137 C   0  0  0  0  0  0  0  0  0  0  0  0
  -18.1168  -45.9582   -6.9913 C   0  0  0  0  0  0  0  0  0  0  0  0
  -17.4386  -47.1711   -6.4955 C   0  0  0  0  0  0  0  0  0  0  0  0
  -16.0812  -47.0042   -6.3162 O   0  0  0  0  0  0  0  0  0  0  0  0
  -15.4399  -47.6307   -7.3834 C   0  0  0  0  0  0  0  0  0  0  0  0
  -17.5055  -44.7450   -7.0661 C   0  0  0  0  0  0  0  0  0  0  0  0
  -18.1301  -43.5515   -7.5419 C   0  0  0  0  0  0  0  0  0  0  0  0
  -19.4447  -43.6089   -7.9618 C   0  0  0  0  0  0  0  0  0  0  0  0
  -17.1703  -42.4467   -7.4711 C   0  0  0  0  0  0  0  0  0  0  0  0
  -15.9077  -42.7083   -7.8070 O   0  0  0  0  0  0  0  0  0  0  0  0
  -17.2506  -41.0844   -7.1089 N   0  0  0  0  0  0  0  0  0  0  0  0
  1  2  1  0
  2  3  1  0
  4  3  1  6
  4  5  1  0
  5  6  1  0
  6  7  1  0
  7  8  1  6
  8  9  1  0
  7 10  1  0
 10 11  1  6
 10 12  1  0
 12 13  1  1
 13 14  1  0
 14 15  2  0
 15 16  1  0
 16 17  2  0
 17 18  1  0
 18 19  2  0
 18 20  1  0
 20 21  1  0
 21 22  1  0
 22 23  1  0
 23 24  1  0
 24 25  1  0
 25 26  1  0
 26 27  2  0
 27 28  1  0
 28 29  1  0
 29 30  1  0
 30 31  1  0
 28 32  2  0
 32 33  1  0
 33 34  2  0
 33 35  1  0
 35 36  2  0
 35 37  1  0
  9  4  1  0
 19 14  1  0
 34 26  1  0
 37 12  1  0
M  END
$$$$
