
     RDKit          3D

 37 40  0  0  0  0  0  0  0  0999 V2000
  -11.3132  -41.2944  -10.0802 C   0  0  0  0  0  0  0  0  0  0  0  0
  -12.4797  -41.8757   -9.7378 O   0  0  0  0  0  0  0  0  0  0  0  0
  -13.5323  -41.8824  -10.5768 C   0  0  0  0  0  0  0  0  0  0  0  0
  -14.4922  -40.7539  -10.3772 C   0  0  1  0  0  0  0  0  0  0  0  0
  -15.9174  -41.0577  -10.7219 C   0  0  0  0  0  0  0  0  0  0  0  0
  -16.8157  -40.6611   -9.6017 N   0  0  0  0  0  0  0  0  0  0  0  0
  -16.5255  -39.2332   -9.3122 C   0  0  2  0  0  0  0  0  0  0  0  0
  -15.0700  -39.2416   -8.8110 C   0  0  0  0  0  0  0  0  0  0  0  0
  -14.5172  -40.5159   -8.9605 O   0  0  0  0  0  0  0  0  0  0  0  0
  -17.4806  -38.8004   -8.2545 C   0  0  1  0  0  0  0  0  0  0  0  0
  -18.5139  -38.1065   -8.9046 O   0  0  0  0  0  0  0  0  0  0  0  0
  -17.9998  -39.8855   -7.3531 C   0  0  2  0  0  0  0  0  0  0  0  0
  -18.1579  -39.4403   -5.9150 C   0  0  0  0  0  0  0  0  0  0  0  0
  -19.5772  -39.3435   -5.4414 C   0  0  0  0  0  0  0  0  0  0  0  0
  -19.9239  -37.9878   -5.2151 C   0  0  0  0  0  0  0  0  0  0  0  0
  -21.1499  -37.5757   -4.7750 C   0  0  0  0  0  0  0  0  0  0  0  0
  -22.0498  -38.5897   -4.5606 C   0  0  0  0  0  0  0  0  0  0  0  0
  -21.7596  -39.9526   -4.7701 C   0  0  0  0  0  0  0  0  0  0  0  0
  -20.4916  -40.3245   -5.2198 C   0  0  0  0  0  0  0  0  0  0  0  0
  -22.8468  -40.7390   -4.4756 O   0  0  0  0  0  0  0  0  0  0  0  0
  -23.6531  -41.7069   -4.9971 C   0  0  0  0  0  0  0  0  0  0  0  0
  -23.0821  -43.0995   -5.0839 C   0  0  0  0  0  0  0  0  0  0  0  0
  -23.6238  -43.8965   -6.2499 C   0  0  0  0  0  0  0  0  0  0  0  0
  -23.3570  -43.2528   -7.5688 C   0  0  0  0  0  0  0  0  0  0  0  0
  -22.3464  -43.9992   -8.2805 N   0  0  0  0  0  0  0  0  0  0  0  0
  -20.9107  -43.9459   -8.2165 C   0  0  0  0  0  0  0  0  0  0  0  0
  -20.4341  -45.2831   -8.1806 C   0  0  0  0  0  0  0  0  0  0  0  0
  -19.1052  -45.5995   -8.1070 C   0  0  0  0  0  0  0  0  0  0  0  0
  -18.6361  -46.9980   -8.0729 C   0  0  0  0  0  0  0  0  0  0  0  0
  -18.0435  -47.3472   -6.8773 O   0  0  0  0  0  0  0  0  0  0  0  0
  -19.0080  -47.9960   -6.1082 C   0  0  0  0  0  0  0  0  0  0  0  0
  -18.2609  -44.5332   -8.0701 C   0  0  0  0  0  0  0  0  0  0  0  0
  -18.6794  -43.1676   -8.1032 C   0  0  0  0  0  0  0  0  0  0  0  0
  -20.0294  -42.8857   -8.1792 C   0  0  0  0  0  0  0  0  0  0  0  0
  -17.4987  -42.3024   -8.0404 C   0  0  0  0  0  0  0  0  0  0  0  0
  -16.4244  -42.6791   -8.7328 O   0  0  0  0  0  0  0  0  0  0  0  0
  -17.1902  -41.0908   -7.3842 N   0  0  0  0  0  0  0  0  0  0  0  0
  1  2  1  0
  2  3  1  0
  4  3  1  1
  4  5  1  0
  5  6  1  0
  6  7  1  0
  7  8  1  1
  8  9  1  0
  7 10  1  0
 10 11  1  6
 10 12  1  0
 12 13  1  1
 13 14  1  0
 14 15  2  0
 15 16  1  0
 16 17  2  0
 17 18  1  0
 18 19  2  0
 18 20  1  0
 20 21  1  0
 21 22  1  0
 22 23  1  0
 23 24  1  0
 24 25  1  0
 25 26  1  0
 26 27  2  0
 27 28  1  0
 28 29  1  0
 29 30  1  0
 30 31  1  0
 28 32  2  0
 32 33  1  0
 33 34  2  0
 33 35  1  0
 35 36  2  0
 35 37  1  0
  9  4  1  0
 19 14  1  0
 34 26  1  0
 37 12  1  0
M  END
$$$$
