
     RDKit          3D

 37 40  0  0  0  0  0  0  0  0999 V2000
  -15.6968  -37.2615  -12.4793 C   0  0  0  0  0  0  0  0  0  0  0  0
  -14.6824  -38.1261  -12.6776 O   0  0  0  0  0  0  0  0  0  0  0  0
  -13.9104  -38.5466  -11.6583 C   0  0  0  0  0  0  0  0  0  0  0  0
  -14.6635  -38.9180  -10.4215 C   0  0  1  0  0  0  0  0  0  0  0  0
  -14.9077  -37.7963   -9.4601 C   0  0  0  0  0  0  0  0  0  0  0  0
  -16.3475  -37.7446   -9.0815 N   0  0  0  0  0  0  0  0  0  0  0  0
  -16.7013  -39.0970   -8.5787 C   0  0  2  0  0  0  0  0  0  0  0  0
  -16.5370  -40.0080   -9.8087 C   0  0  0  0  0  0  0  0  0  0  0  0
  -15.9776  -39.2894  -10.8682 O   0  0  0  0  0  0  0  0  0  0  0  0
  -18.1146  -39.0325   -8.1130 C   0  0  1  0  0  0  0  0  0  0  0  0
  -18.9167  -38.9951   -9.2650 O   0  0  0  0  0  0  0  0  0  0  0  0
  -18.5411  -40.1089   -7.1544 C   0  0  2  0  0  0  0  0  0  0  0  0
  -18.9236  -39.5745   -5.7907 C   0  0  0  0  0  0  0  0  0  0  0  0
  -20.3819  -39.6862   -5.4604 C   0  0  0  0  0  0  0  0  0  0  0  0
  -20.9698  -38.3973   -5.4089 C   0  0  0  0  0  0  0  0  0  0  0  0
  -22.2870  -38.1689   -5.1270 C   0  0  0  0  0  0  0  0  0  0  0  0
  -23.0249  -39.3018   -4.8907 C   0  0  0  0  0  0  0  0  0  0  0  0
  -22.4930  -40.6061   -4.9299 C   0  0  0  0  0  0  0  0  0  0  0  0
  -21.1402  -40.7886   -5.2216 C   0  0  0  0  0  0  0  0  0  0  0  0
  -23.4606  -41.5416   -4.6549 O   0  0  0  0  0  0  0  0  0  0  0  0
  -24.0355  -42.6771   -5.1437 C   0  0  0  0  0  0  0  0  0  0  0  0
  -23.2366  -43.9508   -5.0328 C   0  0  0  0  0  0  0  0  0  0  0  0
  -23.5113  -44.9287   -6.1538 C   0  0  0  0  0  0  0  0  0  0  0  0
  -23.2146  -44.3658   -7.5029 C   0  0  0  0  0  0  0  0  0  0  0  0
  -22.0244  -44.9833   -8.0385 N   0  0  0  0  0  0  0  0  0  0  0  0
  -20.6324  -44.6748   -7.8505 C   0  0  0  0  0  0  0  0  0  0  0  0
  -19.9482  -45.8999   -7.6325 C   0  0  0  0  0  0  0  0  0  0  0  0
  -18.6009  -45.9717   -7.4061 C   0  0  0  0  0  0  0  0  0  0  0  0
  -17.9138  -47.2584   -7.1841 C   0  0  0  0  0  0  0  0  0  0  0  0
  -16.7591  -47.1405   -6.4391 O   0  0  0  0  0  0  0  0  0  0  0  0
  -17.0859  -47.4306   -5.1154 C   0  0  0  0  0  0  0  0  0  0  0  0
  -17.9532  -44.7753   -7.4040 C   0  0  0  0  0  0  0  0  0  0  0  0
  -18.5853  -43.5119   -7.6170 C   0  0  0  0  0  0  0  0  0  0  0  0
  -19.9473  -43.4778   -7.8441 C   0  0  0  0  0  0  0  0  0  0  0  0
  -17.5772  -42.4516   -7.5378 C   0  0  0  0  0  0  0  0  0  0  0  0
  -16.3876  -42.6939   -8.0870 O   0  0  0  0  0  0  0  0  0  0  0  0
  -17.5450  -41.1523   -6.9862 N   0  0  0  0  0  0  0  0  0  0  0  0
  1  2  1  0
  2  3  1  0
  4  3  1  6
  4  5  1  0
  5  6  1  0
  6  7  1  0
  7  8  1  6
  8  9  1  0
  7 10  1  0
 10 11  1  6
 10 12  1  0
 12 13  1  1
 13 14  1  0
 14 15  2  0
 15 16  1  0
 16 17  2  0
 17 18  1  0
 18 19  2  0
 18 20  1  0
 20 21  1  0
 21 22  1  0
 22 23  1  0
 23 24  1  0
 24 25  1  0
 25 26  1  0
 26 27  2  0
 27 28  1  0
 28 29  1  0
 29 30  1  0
 30 31  1  0
 28 32  2  0
 32 33  1  0
 33 34  2  0
 33 35  1  0
 35 36  2  0
 35 37  1  0
  9  4  1  0
 19 14  1  0
 34 26  1  0
 37 12  1  0
M  END
$$$$
