
     RDKit          3D

 37 40  0  0  0  0  0  0  0  0999 V2000
  -12.9178  -36.8087  -11.5448 C   0  0  0  0  0  0  0  0  0  0  0  0
  -11.9138  -37.3519  -10.8289 O   0  0  0  0  0  0  0  0  0  0  0  0
  -11.9188  -38.6548  -10.4910 C   0  0  0  0  0  0  0  0  0  0  0  0
  -13.2532  -39.1820  -10.0712 C   0  0  1  0  0  0  0  0  0  0  0  0
  -13.6197  -38.9298   -8.6415 C   0  0  0  0  0  0  0  0  0  0  0  0
  -14.9796  -38.3278   -8.5552 N   0  0  0  0  0  0  0  0  0  0  0  0
  -15.8931  -39.2394   -9.2911 C   0  0  2  0  0  0  0  0  0  0  0  0
  -15.4015  -39.1651  -10.7480 C   0  0  0  0  0  0  0  0  0  0  0  0
  -14.2186  -38.4253  -10.8194 O   0  0  0  0  0  0  0  0  0  0  0  0
  -17.2705  -38.6947   -9.1352 C   0  0  1  0  0  0  0  0  0  0  0  0
  -17.9526  -38.9771  -10.3296 O   0  0  0  0  0  0  0  0  0  0  0  0
  -18.0273  -39.1572   -7.9216 C   0  0  2  0  0  0  0  0  0  0  0  0
  -18.7334  -38.0322   -7.1954 C   0  0  0  0  0  0  0  0  0  0  0  0
  -20.2300  -38.0778   -7.2738 C   0  0  0  0  0  0  0  0  0  0  0  0
  -20.7099  -36.9986   -8.0575 C   0  0  0  0  0  0  0  0  0  0  0  0
  -22.0323  -36.7668   -8.3110 C   0  0  0  0  0  0  0  0  0  0  0  0
  -22.8902  -37.6740   -7.7408 C   0  0  0  0  0  0  0  0  0  0  0  0
  -22.4685  -38.7648   -6.9547 C   0  0  0  0  0  0  0  0  0  0  0  0
  -21.1058  -38.9593   -6.7230 C   0  0  0  0  0  0  0  0  0  0  0  0
  -23.5422  -39.5023   -6.5185 O   0  0  0  0  0  0  0  0  0  0  0  0
  -24.0420  -40.7704   -6.4905 C   0  0  0  0  0  0  0  0  0  0  0  0
  -23.4042  -41.7361   -5.5243 C   0  0  0  0  0  0  0  0  0  0  0  0
  -23.4285  -43.1694   -6.0074 C   0  0  0  0  0  0  0  0  0  0  0  0
  -22.7259  -43.3565   -7.3098 C   0  0  0  0  0  0  0  0  0  0  0  0
  -21.4837  -44.0612   -7.0974 N   0  0  0  0  0  0  0  0  0  0  0  0
  -20.1802  -43.5869   -6.7179 C   0  0  0  0  0  0  0  0  0  0  0  0
  -19.6784  -44.4655   -5.7215 C   0  0  0  0  0  0  0  0  0  0  0  0
  -18.4571  -44.3002   -5.1277 C   0  0  0  0  0  0  0  0  0  0  0  0
  -17.9583  -45.2291   -4.0956 C   0  0  0  0  0  0  0  0  0  0  0  0
  -17.0263  -44.6607   -3.2525 O   0  0  0  0  0  0  0  0  0  0  0  0
  -17.5961  -44.6006   -1.9818 C   0  0  0  0  0  0  0  0  0  0  0  0
  -17.7472  -43.2238   -5.5619 C   0  0  0  0  0  0  0  0  0  0  0  0
  -18.1976  -42.3056   -6.5595 C   0  0  0  0  0  0  0  0  0  0  0  0
  -19.4357  -42.5048   -7.1385 C   0  0  0  0  0  0  0  0  0  0  0  0
  -17.1745  -41.2764   -6.7613 C   0  0  0  0  0  0  0  0  0  0  0  0
  -15.9007  -41.6676   -6.7531 O   0  0  0  0  0  0  0  0  0  0  0  0
  -17.1994  -39.8806   -6.9727 N   0  0  0  0  0  0  0  0  0  0  0  0
  1  2  1  0
  2  3  1  0
  4  3  1  1
  4  5  1  0
  5  6  1  0
  6  7  1  0
  7  8  1  6
  8  9  1  0
  7 10  1  0
 10 11  1  6
 10 12  1  0
 12 13  1  1
 13 14  1  0
 14 15  2  0
 15 16  1  0
 16 17  2  0
 17 18  1  0
 18 19  2  0
 18 20  1  0
 20 21  1  0
 21 22  1  0
 22 23  1  0
 23 24  1  0
 24 25  1  0
 25 26  1  0
 26 27  2  0
 27 28  1  0
 28 29  1  0
 29 30  1  0
 30 31  1  0
 28 32  2  0
 32 33  1  0
 33 34  2  0
 33 35  1  0
 35 36  2  0
 35 37  1  0
  9  4  1  0
 19 14  1  0
 34 26  1  0
 37 12  1  0
M  END
$$$$
