
     RDKit          3D

 37 40  0  0  0  0  0  0  0  0999 V2000
  -13.5100  -41.4869  -13.3188 C   0  0  0  0  0  0  0  0  0  0  0  0
  -13.7224  -40.2583  -12.8077 O   0  0  0  0  0  0  0  0  0  0  0  0
  -13.1649  -39.8775  -11.6433 C   0  0  0  0  0  0  0  0  0  0  0  0
  -14.0165  -40.1200  -10.4388 C   0  0  1  0  0  0  0  0  0  0  0  0
  -13.8392  -39.1385   -9.3219 C   0  0  0  0  0  0  0  0  0  0  0  0
  -15.1618  -38.6158   -8.8786 N   0  0  0  0  0  0  0  0  0  0  0  0
  -15.9972  -39.8004   -8.5532 C   0  0  2  0  0  0  0  0  0  0  0  0
  -16.1675  -40.5201   -9.9033 C   0  0  0  0  0  0  0  0  0  0  0  0
  -15.3693  -39.9130  -10.8761 O   0  0  0  0  0  0  0  0  0  0  0  0
  -17.2915  -39.2883   -8.0232 C   0  0  1  0  0  0  0  0  0  0  0  0
  -18.0382  -38.8577   -9.1317 O   0  0  0  0  0  0  0  0  0  0  0  0
  -18.0636  -40.2340   -7.1464 C   0  0  2  0  0  0  0  0  0  0  0  0
  -18.5715  -39.5875   -5.8754 C   0  0  0  0  0  0  0  0  0  0  0  0
  -20.0607  -39.4268   -5.8059 C   0  0  0  0  0  0  0  0  0  0  0  0
  -20.4058  -38.0534   -5.8684 C   0  0  0  0  0  0  0  0  0  0  0  0
  -21.6886  -37.5850   -5.8244 C   0  0  0  0  0  0  0  0  0  0  0  0
  -22.6486  -38.5596   -5.7129 C   0  0  0  0  0  0  0  0  0  0  0  0
  -22.3625  -39.9379   -5.6481 C   0  0  0  0  0  0  0  0  0  0  0  0
  -21.0353  -40.3677   -5.6959 C   0  0  0  0  0  0  0  0  0  0  0  0
  -23.5159  -40.6762   -5.5405 O   0  0  0  0  0  0  0  0  0  0  0  0
  -24.1940  -41.7106   -6.1142 C   0  0  0  0  0  0  0  0  0  0  0  0
  -23.6695  -43.1001   -5.8548 C   0  0  0  0  0  0  0  0  0  0  0  0
  -23.9199  -44.0572   -6.9992 C   0  0  0  0  0  0  0  0  0  0  0  0
  -23.2992  -43.6088   -8.2793 C   0  0  0  0  0  0  0  0  0  0  0  0
  -22.1663  -44.4473   -8.5925 N   0  0  0  0  0  0  0  0  0  0  0  0
  -20.7947  -44.3824   -8.1649 C   0  0  0  0  0  0  0  0  0  0  0  0
  -20.3910  -45.6996   -7.8206 C   0  0  0  0  0  0  0  0  0  0  0  0
  -19.1381  -45.9994   -7.3603 C   0  0  0  0  0  0  0  0  0  0  0  0
  -18.7434  -47.3775   -7.0111 C   0  0  0  0  0  0  0  0  0  0  0  0
  -17.7607  -47.4369   -6.0451 O   0  0  0  0  0  0  0  0  0  0  0  0
  -18.1530  -48.3934   -5.1101 C   0  0  0  0  0  0  0  0  0  0  0  0
  -18.2949  -44.9370   -7.2534 C   0  0  0  0  0  0  0  0  0  0  0  0
  -18.6422  -43.5911   -7.5838 C   0  0  0  0  0  0  0  0  0  0  0  0
  -19.9160  -43.3260   -8.0471 C   0  0  0  0  0  0  0  0  0  0  0  0
  -17.4878  -42.7233   -7.3366 C   0  0  0  0  0  0  0  0  0  0  0  0
  -16.2852  -43.1932   -7.6661 O   0  0  0  0  0  0  0  0  0  0  0  0
  -17.3165  -41.4296   -6.7977 N   0  0  0  0  0  0  0  0  0  0  0  0
  1  2  1  0
  2  3  1  0
  4  3  1  6
  4  5  1  0
  5  6  1  0
  6  7  1  0
  7  8  1  6
  8  9  1  0
  7 10  1  0
 10 11  1  6
 10 12  1  0
 12 13  1  1
 13 14  1  0
 14 15  2  0
 15 16  1  0
 16 17  2  0
 17 18  1  0
 18 19  2  0
 18 20  1  0
 20 21  1  0
 21 22  1  0
 22 23  1  0
 23 24  1  0
 24 25  1  0
 25 26  1  0
 26 27  2  0
 27 28  1  0
 28 29  1  0
 29 30  1  0
 30 31  1  0
 28 32  2  0
 32 33  1  0
 33 34  2  0
 33 35  1  0
 35 36  2  0
 35 37  1  0
  9  4  1  0
 19 14  1  0
 34 26  1  0
 37 12  1  0
M  END
$$$$
