
     RDKit          3D

 37 40  0  0  0  0  0  0  0  0999 V2000
  -25.0471  -39.9177   -3.3613 C   0  0  0  0  0  0  0  0  0  0  0  0
  -24.7605  -41.1714   -2.9590 O   0  0  0  0  0  0  0  0  0  0  0  0
  -24.1991  -42.0647   -3.7949 C   0  0  0  0  0  0  0  0  0  0  0  0
  -22.7521  -41.8222   -4.0817 C   0  0  1  0  0  0  0  0  0  0  0  0
  -22.2389  -42.4371   -5.3469 C   0  0  0  0  0  0  0  0  0  0  0  0
  -21.5099  -41.4210   -6.1564 N   0  0  0  0  0  0  0  0  0  0  0  0
  -20.4702  -40.8397   -5.2686 C   0  0  2  0  0  0  0  0  0  0  0  0
  -21.2753  -40.1236   -4.1691 C   0  0  0  0  0  0  0  0  0  0  0  0
  -22.6362  -40.4079   -4.3070 O   0  0  0  0  0  0  0  0  0  0  0  0
  -19.6763  -39.8869   -6.0933 C   0  0  1  0  0  0  0  0  0  0  0  0
  -18.3838  -39.8604   -5.5454 O   0  0  0  0  0  0  0  0  0  0  0  0
  -19.6645  -40.1497   -7.5733 C   0  0  2  0  0  0  0  0  0  0  0  0
  -20.5609  -39.2110   -8.3521 C   0  0  0  0  0  0  0  0  0  0  0  0
  -19.8354  -38.2395   -9.2342 C   0  0  0  0  0  0  0  0  0  0  0  0
  -19.9865  -36.9215   -8.7348 C   0  0  0  0  0  0  0  0  0  0  0  0
  -19.4431  -35.8144   -9.3230 C   0  0  0  0  0  0  0  0  0  0  0  0
  -18.7204  -36.0697  -10.4617 C   0  0  0  0  0  0  0  0  0  0  0  0
  -18.5370  -37.3585  -11.0012 C   0  0  0  0  0  0  0  0  0  0  0  0
  -19.1130  -38.4590  -10.3644 C   0  0  0  0  0  0  0  0  0  0  0  0
  -17.7713  -37.3114  -12.1407 O   0  0  0  0  0  0  0  0  0  0  0  0
  -16.6521  -37.8395  -12.7129 C   0  0  0  0  0  0  0  0  0  0  0  0
  -16.7498  -39.2520  -13.2308 C   0  0  0  0  0  0  0  0  0  0  0  0
  -15.4435  -40.0104  -13.1499 C   0  0  0  0  0  0  0  0  0  0  0  0
  -14.9144  -40.1113  -11.7589 C   0  0  0  0  0  0  0  0  0  0  0  0
  -15.0587  -41.4654  -11.2788 N   0  0  0  0  0  0  0  0  0  0  0  0
  -16.1720  -42.1375  -10.6647 C   0  0  0  0  0  0  0  0  0  0  0  0
  -16.2897  -43.4148  -11.2739 C   0  0  0  0  0  0  0  0  0  0  0  0
  -17.2589  -44.3177  -10.9320 C   0  0  0  0  0  0  0  0  0  0  0  0
  -17.3581  -45.6397  -11.5797 C   0  0  0  0  0  0  0  0  0  0  0  0
  -16.5837  -46.6060  -10.9722 O   0  0  0  0  0  0  0  0  0  0  0  0
  -17.4502  -47.5454  -10.4159 C   0  0  0  0  0  0  0  0  0  0  0  0
  -18.1127  -43.9039   -9.9569 C   0  0  0  0  0  0  0  0  0  0  0  0
  -18.0452  -42.6332   -9.3073 C   0  0  0  0  0  0  0  0  0  0  0  0
  -17.0522  -41.7473   -9.6773 C   0  0  0  0  0  0  0  0  0  0  0  0
  -19.1258  -42.5400   -8.3222 C   0  0  0  0  0  0  0  0  0  0  0  0
  -19.4010  -43.6310   -7.6083 O   0  0  0  0  0  0  0  0  0  0  0  0
  -20.0107  -41.5184   -7.9138 N   0  0  0  0  0  0  0  0  0  0  0  0
  1  2  1  0
  2  3  1  0
  4  3  1  6
  4  5  1  0
  5  6  1  0
  6  7  1  0
  7  8  1  1
  8  9  1  0
  7 10  1  0
 10 11  1  1
 10 12  1  0
 12 13  1  6
 13 14  1  0
 14 15  2  0
 15 16  1  0
 16 17  2  0
 17 18  1  0
 18 19  2  0
 18 20  1  0
 20 21  1  0
 21 22  1  0
 22 23  1  0
 23 24  1  0
 24 25  1  0
 25 26  1  0
 26 27  2  0
 27 28  1  0
 28 29  1  0
 29 30  1  0
 30 31  1  0
 28 32  2  0
 32 33  1  0
 33 34  2  0
 33 35  1  0
 35 36  2  0
 35 37  1  0
  9  4  1  0
 19 14  1  0
 34 26  1  0
 37 12  1  0
M  END
$$$$
