
     RDKit          3D

 37 40  0  0  0  0  0  0  0  0999 V2000
  -23.3203  -42.1325   -2.0938 C   0  0  0  0  0  0  0  0  0  0  0  0
  -23.3316  -42.2169   -3.4386 O   0  0  0  0  0  0  0  0  0  0  0  0
  -22.6897  -43.2084   -4.0841 C   0  0  0  0  0  0  0  0  0  0  0  0
  -21.4726  -42.7738   -4.8355 C   0  0  1  0  0  0  0  0  0  0  0  0
  -21.6488  -42.6403   -6.3165 C   0  0  0  0  0  0  0  0  0  0  0  0
  -21.1473  -41.3161   -6.7792 N   0  0  0  0  0  0  0  0  0  0  0  0
  -19.7472  -41.2018   -6.2958 C   0  0  2  0  0  0  0  0  0  0  0  0
  -19.8816  -41.1810   -4.7624 C   0  0  0  0  0  0  0  0  0  0  0  0
  -21.2048  -41.4337   -4.3921 O   0  0  0  0  0  0  0  0  0  0  0  0
  -19.2057  -39.9208   -6.8290 C   0  0  1  0  0  0  0  0  0  0  0  0
  -18.1211  -39.5700   -6.0090 O   0  0  0  0  0  0  0  0  0  0  0  0
  -18.8442  -39.9160   -8.2880 C   0  0  2  0  0  0  0  0  0  0  0  0
  -19.9393  -39.3572   -9.1711 C   0  0  0  0  0  0  0  0  0  0  0  0
  -19.6165  -38.0409   -9.8125 C   0  0  0  0  0  0  0  0  0  0  0  0
  -20.4340  -37.0196   -9.2666 C   0  0  0  0  0  0  0  0  0  0  0  0
  -20.3785  -35.7094   -9.6503 C   0  0  0  0  0  0  0  0  0  0  0  0
  -19.4525  -35.4394  -10.6268 C   0  0  0  0  0  0  0  0  0  0  0  0
  -18.6141  -36.4143  -11.2031 C   0  0  0  0  0  0  0  0  0  0  0  0
  -18.7087  -37.7407  -10.7784 C   0  0  0  0  0  0  0  0  0  0  0  0
  -17.7899  -35.8578  -12.1507 O   0  0  0  0  0  0  0  0  0  0  0  0
  -16.4797  -35.7437  -12.5103 C   0  0  0  0  0  0  0  0  0  0  0  0
  -15.8331  -36.9550  -13.1330 C   0  0  0  0  0  0  0  0  0  0  0  0
  -14.3547  -37.0650  -12.8322 C   0  0  0  0  0  0  0  0  0  0  0  0
  -14.0620  -37.1399  -11.3715 C   0  0  0  0  0  0  0  0  0  0  0  0
  -13.6382  -38.4764  -11.0266 N   0  0  0  0  0  0  0  0  0  0  0  0
  -14.3962  -39.6561  -10.7073 C   0  0  0  0  0  0  0  0  0  0  0  0
  -13.8153  -40.7423  -11.4140 C   0  0  0  0  0  0  0  0  0  0  0  0
  -14.2986  -42.0203  -11.3458 C   0  0  0  0  0  0  0  0  0  0  0  0
  -13.6750  -43.1318  -12.0891 C   0  0  0  0  0  0  0  0  0  0  0  0
  -13.5043  -44.2702  -11.3293 O   0  0  0  0  0  0  0  0  0  0  0  0
  -12.1917  -44.7014  -11.5141 C   0  0  0  0  0  0  0  0  0  0  0  0
  -15.3869  -42.1819  -10.5453 C   0  0  0  0  0  0  0  0  0  0  0  0
  -16.0149  -41.1301   -9.8103 C   0  0  0  0  0  0  0  0  0  0  0  0
  -15.4985  -39.8523   -9.9020 C   0  0  0  0  0  0  0  0  0  0  0  0
  -17.1549  -41.6766   -9.0697 C   0  0  0  0  0  0  0  0  0  0  0  0
  -17.0030  -42.8744   -8.5061 O   0  0  0  0  0  0  0  0  0  0  0  0
  -18.4625  -41.2255   -8.7868 N   0  0  0  0  0  0  0  0  0  0  0  0
  1  2  1  0
  2  3  1  0
  4  3  1  1
  4  5  1  0
  5  6  1  0
  6  7  1  0
  7  8  1  1
  8  9  1  0
  7 10  1  0
 10 11  1  1
 10 12  1  0
 12 13  1  6
 13 14  1  0
 14 15  2  0
 15 16  1  0
 16 17  2  0
 17 18  1  0
 18 19  2  0
 18 20  1  0
 20 21  1  0
 21 22  1  0
 22 23  1  0
 23 24  1  0
 24 25  1  0
 25 26  1  0
 26 27  2  0
 27 28  1  0
 28 29  1  0
 29 30  1  0
 30 31  1  0
 28 32  2  0
 32 33  1  0
 33 34  2  0
 33 35  1  0
 35 36  2  0
 35 37  1  0
  9  4  1  0
 19 14  1  0
 34 26  1  0
 37 12  1  0
M  END
$$$$
