
     RDKit          3D

 37 40  0  0  0  0  0  0  0  0999 V2000
  -10.8601  -40.1586   -7.2555 C   0  0  0  0  0  0  0  0  0  0  0  0
  -10.8221  -40.6775   -8.4986 O   0  0  0  0  0  0  0  0  0  0  0  0
  -11.3812  -41.8696   -8.7779 C   0  0  0  0  0  0  0  0  0  0  0  0
  -12.8758  -41.8627   -8.8069 C   0  0  1  0  0  0  0  0  0  0  0  0
  -13.5316  -40.9943   -7.7782 C   0  0  0  0  0  0  0  0  0  0  0  0
  -14.5410  -40.1061   -8.4194 N   0  0  0  0  0  0  0  0  0  0  0  0
  -15.4608  -40.9910   -9.1796 C   0  0  2  0  0  0  0  0  0  0  0  0
  -14.5683  -41.6085  -10.2713 C   0  0  0  0  0  0  0  0  0  0  0  0
  -13.2336  -41.2547  -10.0586 O   0  0  0  0  0  0  0  0  0  0  0  0
  -16.5271  -40.1225   -9.7514 C   0  0  1  0  0  0  0  0  0  0  0  0
  -17.1457  -40.8632  -10.7714 O   0  0  0  0  0  0  0  0  0  0  0  0
  -17.5183  -39.5644   -8.7688 C   0  0  2  0  0  0  0  0  0  0  0  0
  -17.5654  -38.0514   -8.7644 C   0  0  0  0  0  0  0  0  0  0  0  0
  -18.8350  -37.4624   -9.3022 C   0  0  0  0  0  0  0  0  0  0  0  0
  -18.5832  -36.8008  -10.5302 C   0  0  0  0  0  0  0  0  0  0  0  0
  -19.5416  -36.1607  -11.2641 C   0  0  0  0  0  0  0  0  0  0  0  0
  -20.8005  -36.2019  -10.7186 C   0  0  0  0  0  0  0  0  0  0  0  0
  -21.1074  -36.8455   -9.5032 C   0  0  0  0  0  0  0  0  0  0  0  0
  -20.0932  -37.4854   -8.7886 C   0  0  0  0  0  0  0  0  0  0  0  0
  -22.4431  -36.7258   -9.2056 O   0  0  0  0  0  0  0  0  0  0  0  0
  -23.5494  -37.4574   -8.8896 C   0  0  0  0  0  0  0  0  0  0  0  0
  -23.6239  -38.0157   -7.4911 C   0  0  0  0  0  0  0  0  0  0  0  0
  -24.3761  -39.3255   -7.4092 C   0  0  0  0  0  0  0  0  0  0  0  0
  -23.7736  -40.3965   -8.2548 C   0  0  0  0  0  0  0  0  0  0  0  0
  -23.1344  -41.3807   -7.4137 N   0  0  0  0  0  0  0  0  0  0  0  0
  -21.8213  -41.4151   -6.8283 C   0  0  0  0  0  0  0  0  0  0  0  0
  -21.9652  -41.8327   -5.4787 C   0  0  0  0  0  0  0  0  0  0  0  0
  -20.9070  -41.9642   -4.6217 C   0  0  0  0  0  0  0  0  0  0  0  0
  -21.0839  -42.4018   -3.2238 C   0  0  0  0  0  0  0  0  0  0  0  0
  -19.9626  -42.2085   -2.4441 O   0  0  0  0  0  0  0  0  0  0  0  0
  -20.3632  -42.2883   -1.1114 C   0  0  0  0  0  0  0  0  0  0  0  0
  -19.6926  -41.6642   -5.1567 C   0  0  0  0  0  0  0  0  0  0  0  0
  -19.4842  -41.2397   -6.5049 C   0  0  0  0  0  0  0  0  0  0  0  0
  -20.5760  -41.1196   -7.3422 C   0  0  0  0  0  0  0  0  0  0  0  0
  -18.0539  -41.0037   -6.7179 C   0  0  0  0  0  0  0  0  0  0  0  0
  -17.2006  -41.8601   -6.1576 O   0  0  0  0  0  0  0  0  0  0  0  0
  -17.3013  -40.0304   -7.4105 N   0  0  0  0  0  0  0  0  0  0  0  0
  1  2  1  0
  2  3  1  0
  4  3  1  1
  4  5  1  0
  5  6  1  0
  6  7  1  0
  7  8  1  6
  8  9  1  0
  7 10  1  0
 10 11  1  6
 10 12  1  0
 12 13  1  1
 13 14  1  0
 14 15  2  0
 15 16  1  0
 16 17  2  0
 17 18  1  0
 18 19  2  0
 18 20  1  0
 20 21  1  0
 21 22  1  0
 22 23  1  0
 23 24  1  0
 24 25  1  0
 25 26  1  0
 26 27  2  0
 27 28  1  0
 28 29  1  0
 29 30  1  0
 30 31  1  0
 28 32  2  0
 32 33  1  0
 33 34  2  0
 33 35  1  0
 35 36  2  0
 35 37  1  0
  9  4  1  0
 19 14  1  0
 34 26  1  0
 37 12  1  0
M  END
$$$$
