
     RDKit          3D

 37 40  0  0  0  0  0  0  0  0999 V2000
  -12.5396  -36.9943  -11.0110 C   0  0  0  0  0  0  0  0  0  0  0  0
  -11.6296  -37.8954  -10.5917 O   0  0  0  0  0  0  0  0  0  0  0  0
  -11.8892  -39.2160  -10.6138 C   0  0  0  0  0  0  0  0  0  0  0  0
  -13.3269  -39.5695  -10.4067 C   0  0  1  0  0  0  0  0  0  0  0  0
  -13.6399  -40.2383   -9.1040 C   0  0  0  0  0  0  0  0  0  0  0  0
  -14.7783  -39.5522   -8.4315 N   0  0  0  0  0  0  0  0  0  0  0  0
  -15.8939  -39.5238   -9.4121 C   0  0  2  0  0  0  0  0  0  0  0  0
  -15.3689  -38.6296  -10.5499 C   0  0  0  0  0  0  0  0  0  0  0  0
  -14.0248  -38.3157  -10.3338 O   0  0  0  0  0  0  0  0  0  0  0  0
  -17.0668  -38.9206   -8.7202 C   0  0  1  0  0  0  0  0  0  0  0  0
  -17.9487  -38.4896   -9.7243 O   0  0  0  0  0  0  0  0  0  0  0  0
  -17.7452  -39.7886   -7.6976 C   0  0  2  0  0  0  0  0  0  0  0  0
  -18.4192  -38.9971   -6.5973 C   0  0  0  0  0  0  0  0  0  0  0  0
  -19.9172  -39.0589   -6.6083 C   0  0  0  0  0  0  0  0  0  0  0  0
  -20.4545  -37.7934   -6.9537 C   0  0  0  0  0  0  0  0  0  0  0  0
  -21.7920  -37.5299   -7.0443 C   0  0  0  0  0  0  0  0  0  0  0  0
  -22.6047  -38.6019   -6.7716 C   0  0  0  0  0  0  0  0  0  0  0  0
  -22.1253  -39.8808   -6.4249 C   0  0  0  0  0  0  0  0  0  0  0  0
  -20.7491  -40.1008   -6.3442 C   0  0  0  0  0  0  0  0  0  0  0  0
  -23.1631  -40.7545   -6.2091 O   0  0  0  0  0  0  0  0  0  0  0  0
  -23.6465  -41.9721   -6.5867 C   0  0  0  0  0  0  0  0  0  0  0  0
  -22.9421  -43.1876   -6.0397 C   0  0  0  0  0  0  0  0  0  0  0  0
  -22.9794  -44.3735   -6.9781 C   0  0  0  0  0  0  0  0  0  0  0  0
  -22.3532  -44.0882   -8.3016 C   0  0  0  0  0  0  0  0  0  0  0  0
  -21.0930  -44.7853   -8.4057 N   0  0  0  0  0  0  0  0  0  0  0  0
  -19.7745  -44.4277   -7.9564 C   0  0  0  0  0  0  0  0  0  0  0  0
  -19.2050  -45.5756   -7.3444 C   0  0  0  0  0  0  0  0  0  0  0  0
  -17.9525  -45.5836   -6.7942 C   0  0  0  0  0  0  0  0  0  0  0  0
  -17.3833  -46.7909   -6.1656 C   0  0  0  0  0  0  0  0  0  0  0  0
  -16.7319  -47.6168   -7.0578 O   0  0  0  0  0  0  0  0  0  0  0  0
  -17.0784  -48.9291   -6.7400 C   0  0  0  0  0  0  0  0  0  0  0  0
  -17.2814  -44.4028   -6.8741 C   0  0  0  0  0  0  0  0  0  0  0  0
  -17.8001  -43.2157   -7.4765 C   0  0  0  0  0  0  0  0  0  0  0  0
  -19.0681  -43.2451   -8.0234 C   0  0  0  0  0  0  0  0  0  0  0  0
  -16.8021  -42.1483   -7.3704 C   0  0  0  0  0  0  0  0  0  0  0  0
  -15.5259  -42.4804   -7.5617 O   0  0  0  0  0  0  0  0  0  0  0  0
  -16.8547  -40.7646   -7.0946 N   0  0  0  0  0  0  0  0  0  0  0  0
  1  2  1  0
  2  3  1  0
  4  3  1  1
  4  5  1  0
  5  6  1  0
  6  7  1  0
  7  8  1  6
  8  9  1  0
  7 10  1  0
 10 11  1  6
 10 12  1  0
 12 13  1  1
 13 14  1  0
 14 15  2  0
 15 16  1  0
 16 17  2  0
 17 18  1  0
 18 19  2  0
 18 20  1  0
 20 21  1  0
 21 22  1  0
 22 23  1  0
 23 24  1  0
 24 25  1  0
 25 26  1  0
 26 27  2  0
 27 28  1  0
 28 29  1  0
 29 30  1  0
 30 31  1  0
 28 32  2  0
 32 33  1  0
 33 34  2  0
 33 35  1  0
 35 36  2  0
 35 37  1  0
  9  4  1  0
 19 14  1  0
 34 26  1  0
 37 12  1  0
M  END
$$$$
