
     RDKit          3D

 37 40  0  0  0  0  0  0  0  0999 V2000
  -12.0096  -37.9813  -12.0687 C   0  0  0  0  0  0  0  0  0  0  0  0
  -12.0207  -39.1566  -11.4097 O   0  0  0  0  0  0  0  0  0  0  0  0
  -12.8182  -39.3549  -10.3436 C   0  0  0  0  0  0  0  0  0  0  0  0
  -14.2561  -39.0163  -10.5725 C   0  0  1  0  0  0  0  0  0  0  0  0
  -15.2022  -40.1759  -10.5226 C   0  0  0  0  0  0  0  0  0  0  0  0
  -16.3423  -39.8737   -9.6127 N   0  0  0  0  0  0  0  0  0  0  0  0
  -16.9331  -38.5952  -10.0854 C   0  0  2  0  0  0  0  0  0  0  0  0
  -15.8174  -37.5600   -9.8548 C   0  0  0  0  0  0  0  0  0  0  0  0
  -14.6421  -38.2005   -9.4545 O   0  0  0  0  0  0  0  0  0  0  0  0
  -18.1292  -38.3290   -9.2388 C   0  0  1  0  0  0  0  0  0  0  0  0
  -19.1985  -38.0892  -10.1168 O   0  0  0  0  0  0  0  0  0  0  0  0
  -18.4560  -39.3782   -8.2133 C   0  0  2  0  0  0  0  0  0  0  0  0
  -18.8688  -38.7975   -6.8777 C   0  0  0  0  0  0  0  0  0  0  0  0
  -20.3097  -39.0090   -6.5208 C   0  0  0  0  0  0  0  0  0  0  0  0
  -21.0019  -37.7721   -6.5360 C   0  0  0  0  0  0  0  0  0  0  0  0
  -22.3308  -37.6365   -6.2492 C   0  0  0  0  0  0  0  0  0  0  0  0
  -22.9700  -38.8103   -5.9370 C   0  0  0  0  0  0  0  0  0  0  0  0
  -22.3322  -40.0665   -5.9079 C   0  0  0  0  0  0  0  0  0  0  0  0
  -20.9716  -40.1540   -6.2076 C   0  0  0  0  0  0  0  0  0  0  0  0
  -23.2163  -41.0605   -5.5654 O   0  0  0  0  0  0  0  0  0  0  0  0
  -23.6996  -42.2663   -5.9792 C   0  0  0  0  0  0  0  0  0  0  0  0
  -22.7968  -43.4613   -5.8058 C   0  0  0  0  0  0  0  0  0  0  0  0
  -22.9998  -44.5229   -6.8640 C   0  0  0  0  0  0  0  0  0  0  0  0
  -22.7635  -44.0182   -8.2476 C   0  0  0  0  0  0  0  0  0  0  0  0
  -21.5312  -44.5663   -8.7632 N   0  0  0  0  0  0  0  0  0  0  0  0
  -20.1679  -44.1338   -8.6132 C   0  0  0  0  0  0  0  0  0  0  0  0
  -19.3824  -45.2835   -8.3341 C   0  0  0  0  0  0  0  0  0  0  0  0
  -18.0318  -45.2308   -8.1231 C   0  0  0  0  0  0  0  0  0  0  0  0
  -17.2383  -46.4412   -7.8365 C   0  0  0  0  0  0  0  0  0  0  0  0
  -16.0158  -46.4577   -8.4749 O   0  0  0  0  0  0  0  0  0  0  0  0
  -15.3087  -45.3341   -8.0499 C   0  0  0  0  0  0  0  0  0  0  0  0
  -17.4855  -43.9870   -8.1997 C   0  0  0  0  0  0  0  0  0  0  0  0
  -18.2222  -42.7947   -8.4767 C   0  0  0  0  0  0  0  0  0  0  0  0
  -19.5844  -42.8863   -8.6861 C   0  0  0  0  0  0  0  0  0  0  0  0
  -17.3048  -41.6523   -8.4736 C   0  0  0  0  0  0  0  0  0  0  0  0
  -16.1043  -41.8279   -9.0246 O   0  0  0  0  0  0  0  0  0  0  0  0
  -17.3753  -40.3245   -7.9989 N   0  0  0  0  0  0  0  0  0  0  0  0
  1  2  1  0
  2  3  1  0
  4  3  1  1
  4  5  1  0
  5  6  1  0
  6  7  1  0
  7  8  1  1
  8  9  1  0
  7 10  1  0
 10 11  1  6
 10 12  1  0
 12 13  1  1
 13 14  1  0
 14 15  2  0
 15 16  1  0
 16 17  2  0
 17 18  1  0
 18 19  2  0
 18 20  1  0
 20 21  1  0
 21 22  1  0
 22 23  1  0
 23 24  1  0
 24 25  1  0
 25 26  1  0
 26 27  2  0
 27 28  1  0
 28 29  1  0
 29 30  1  0
 30 31  1  0
 28 32  2  0
 32 33  1  0
 33 34  2  0
 33 35  1  0
 35 36  2  0
 35 37  1  0
  9  4  1  0
 19 14  1  0
 34 26  1  0
 37 12  1  0
M  END
$$$$
