
     RDKit          3D

 37 40  0  0  0  0  0  0  0  0999 V2000
  -11.5250  -42.9151  -10.2439 C   0  0  0  0  0  0  0  0  0  0  0  0
  -10.7639  -42.2419   -9.3589 O   0  0  0  0  0  0  0  0  0  0  0  0
  -11.2664  -41.8120   -8.1864 C   0  0  0  0  0  0  0  0  0  0  0  0
  -12.7453  -41.5937   -8.1878 C   0  0  1  0  0  0  0  0  0  0  0  0
  -13.2755  -40.7976   -7.0357 C   0  0  0  0  0  0  0  0  0  0  0  0
  -14.1493  -39.6960   -7.5276 N   0  0  0  0  0  0  0  0  0  0  0  0
  -15.1821  -40.3278   -8.3885 C   0  0  2  0  0  0  0  0  0  0  0  0
  -14.3823  -40.9019   -9.5719 C   0  0  0  0  0  0  0  0  0  0  0  0
  -13.0117  -40.7706   -9.3349 O   0  0  0  0  0  0  0  0  0  0  0  0
  -16.1152  -39.2475   -8.8135 C   0  0  1  0  0  0  0  0  0  0  0  0
  -16.3347  -39.4233  -10.1892 O   0  0  0  0  0  0  0  0  0  0  0  0
  -17.3990  -39.1445   -8.0385 C   0  0  2  0  0  0  0  0  0  0  0  0
  -17.8976  -37.7221   -7.8982 C   0  0  0  0  0  0  0  0  0  0  0  0
  -19.1559  -37.4216   -8.6563 C   0  0  0  0  0  0  0  0  0  0  0  0
  -18.8809  -36.5284   -9.7220 C   0  0  0  0  0  0  0  0  0  0  0  0
  -19.8257  -36.0635  -10.5927 C   0  0  0  0  0  0  0  0  0  0  0  0
  -21.0949  -36.5318  -10.3610 C   0  0  0  0  0  0  0  0  0  0  0  0
  -21.4243  -37.4208   -9.3185 C   0  0  0  0  0  0  0  0  0  0  0  0
  -20.4238  -37.8673   -8.4536 C   0  0  0  0  0  0  0  0  0  0  0  0
  -22.7655  -37.7175   -9.3290 O   0  0  0  0  0  0  0  0  0  0  0  0
  -23.6407  -38.7628   -9.3511 C   0  0  0  0  0  0  0  0  0  0  0  0
  -23.8142  -39.5370   -8.0692 C   0  0  0  0  0  0  0  0  0  0  0  0
  -24.1397  -40.9974   -8.2918 C   0  0  0  0  0  0  0  0  0  0  0  0
  -23.0917  -41.7146   -9.0743 C   0  0  0  0  0  0  0  0  0  0  0  0
  -22.3626  -42.6100   -8.2075 N   0  0  0  0  0  0  0  0  0  0  0  0
  -21.2394  -42.3800   -7.3393 C   0  0  0  0  0  0  0  0  0  0  0  0
  -21.5104  -43.0318   -6.1071 C   0  0  0  0  0  0  0  0  0  0  0  0
  -20.6488  -43.0068   -5.0448 C   0  0  0  0  0  0  0  0  0  0  0  0
  -20.9539  -43.6943   -3.7755 C   0  0  0  0  0  0  0  0  0  0  0  0
  -19.9757  -43.5320   -2.8167 O   0  0  0  0  0  0  0  0  0  0  0  0
  -19.4497  -44.7930   -2.5406 C   0  0  0  0  0  0  0  0  0  0  0  0
  -19.5007  -42.3067   -5.2515 C   0  0  0  0  0  0  0  0  0  0  0  0
  -19.1718  -41.6311   -6.4666 C   0  0  0  0  0  0  0  0  0  0  0  0
  -20.0652  -41.6791   -7.5189 C   0  0  0  0  0  0  0  0  0  0  0  0
  -17.8654  -40.9847   -6.3177 C   0  0  0  0  0  0  0  0  0  0  0  0
  -16.9202  -41.6556   -5.6605 O   0  0  0  0  0  0  0  0  0  0  0  0
  -17.3200  -39.7456   -6.7187 N   0  0  0  0  0  0  0  0  0  0  0  0
  1  2  1  0
  2  3  1  0
  4  3  1  1
  4  5  1  0
  5  6  1  0
  6  7  1  0
  7  8  1  6
  8  9  1  0
  7 10  1  0
 10 11  1  6
 10 12  1  0
 12 13  1  1
 13 14  1  0
 14 15  2  0
 15 16  1  0
 16 17  2  0
 17 18  1  0
 18 19  2  0
 18 20  1  0
 20 21  1  0
 21 22  1  0
 22 23  1  0
 23 24  1  0
 24 25  1  0
 25 26  1  0
 26 27  2  0
 27 28  1  0
 28 29  1  0
 29 30  1  0
 30 31  1  0
 28 32  2  0
 32 33  1  0
 33 34  2  0
 33 35  1  0
 35 36  2  0
 35 37  1  0
  9  4  1  0
 19 14  1  0
 34 26  1  0
 37 12  1  0
M  END
$$$$
