
     RDKit          3D

 37 40  0  0  0  0  0  0  0  0999 V2000
  -12.2015  -41.3695   -7.0808 C   0  0  0  0  0  0  0  0  0  0  0  0
  -12.4072  -42.7010   -7.0615 O   0  0  0  0  0  0  0  0  0  0  0  0
  -12.9441  -43.3427   -8.1159 C   0  0  0  0  0  0  0  0  0  0  0  0
  -14.1322  -42.6631   -8.7169 C   0  0  1  0  0  0  0  0  0  0  0  0
  -15.3434  -42.5969   -7.8389 C   0  0  0  0  0  0  0  0  0  0  0  0
  -15.8651  -41.2027   -7.7825 N   0  0  0  0  0  0  0  0  0  0  0  0
  -16.0789  -40.7740   -9.1887 C   0  0  2  0  0  0  0  0  0  0  0  0
  -14.6636  -40.7574   -9.7939 C   0  0  0  0  0  0  0  0  0  0  0  0
  -13.7456  -41.2895   -8.8851 O   0  0  0  0  0  0  0  0  0  0  0  0
  -16.6851  -39.4144   -9.1421 C   0  0  1  0  0  0  0  0  0  0  0  0
  -17.0412  -39.0869  -10.4603 O   0  0  0  0  0  0  0  0  0  0  0  0
  -17.8266  -39.2357   -8.1806 C   0  0  2  0  0  0  0  0  0  0  0  0
  -18.2461  -37.7906   -8.0160 C   0  0  0  0  0  0  0  0  0  0  0  0
  -19.5964  -37.4621   -8.5789 C   0  0  0  0  0  0  0  0  0  0  0  0
  -19.4609  -36.6136   -9.7063 C   0  0  0  0  0  0  0  0  0  0  0  0
  -20.5137  -36.1370  -10.4352 C   0  0  0  0  0  0  0  0  0  0  0  0
  -21.7466  -36.5460   -9.9916 C   0  0  0  0  0  0  0  0  0  0  0  0
  -21.9393  -37.3889   -8.8789 C   0  0  0  0  0  0  0  0  0  0  0  0
  -20.8318  -37.8494   -8.1650 C   0  0  0  0  0  0  0  0  0  0  0  0
  -23.2752  -37.6308   -8.6693 O   0  0  0  0  0  0  0  0  0  0  0  0
  -24.1795  -38.6397   -8.5167 C   0  0  0  0  0  0  0  0  0  0  0  0
  -24.1767  -39.3671   -7.1961 C   0  0  0  0  0  0  0  0  0  0  0  0
  -24.5849  -40.8191   -7.3122 C   0  0  0  0  0  0  0  0  0  0  0  0
  -23.6990  -41.6017   -8.2220 C   0  0  0  0  0  0  0  0  0  0  0  0
  -22.8750  -42.4995   -7.4476 N   0  0  0  0  0  0  0  0  0  0  0  0
  -21.6218  -42.2894   -6.7741 C   0  0  0  0  0  0  0  0  0  0  0  0
  -21.7187  -42.8919   -5.4919 C   0  0  0  0  0  0  0  0  0  0  0  0
  -20.7004  -42.8699   -4.5786 C   0  0  0  0  0  0  0  0  0  0  0  0
  -20.8263  -43.5057   -3.2531 C   0  0  0  0  0  0  0  0  0  0  0  0
  -19.7805  -44.3526   -2.9511 O   0  0  0  0  0  0  0  0  0  0  0  0
  -19.6980  -44.4338   -1.5620 C   0  0  0  0  0  0  0  0  0  0  0  0
  -19.5749  -42.2238   -4.9871 C   0  0  0  0  0  0  0  0  0  0  0  0
  -19.4174  -41.5992   -6.2623 C   0  0  0  0  0  0  0  0  0  0  0  0
  -20.4663  -41.6427   -7.1599 C   0  0  0  0  0  0  0  0  0  0  0  0
  -18.0817  -41.0024   -6.3426 C   0  0  0  0  0  0  0  0  0  0  0  0
  -17.0694  -41.6912   -5.8169 O   0  0  0  0  0  0  0  0  0  0  0  0
  -17.5625  -39.7993   -6.8684 N   0  0  0  0  0  0  0  0  0  0  0  0
  1  2  1  0
  2  3  1  0
  4  3  1  1
  4  5  1  0
  5  6  1  0
  6  7  1  0
  7  8  1  6
  8  9  1  0
  7 10  1  0
 10 11  1  6
 10 12  1  0
 12 13  1  1
 13 14  1  0
 14 15  2  0
 15 16  1  0
 16 17  2  0
 17 18  1  0
 18 19  2  0
 18 20  1  0
 20 21  1  0
 21 22  1  0
 22 23  1  0
 23 24  1  0
 24 25  1  0
 25 26  1  0
 26 27  2  0
 27 28  1  0
 28 29  1  0
 29 30  1  0
 30 31  1  0
 28 32  2  0
 32 33  1  0
 33 34  2  0
 33 35  1  0
 35 36  2  0
 35 37  1  0
  9  4  1  0
 19 14  1  0
 34 26  1  0
 37 12  1  0
M  END
$$$$
