
     RDKit          3D

 37 40  0  0  0  0  0  0  0  0999 V2000
  -22.6009  -43.7924   -3.4289 C   0  0  0  0  0  0  0  0  0  0  0  0
  -22.9420  -42.6110   -3.9798 O   0  0  0  0  0  0  0  0  0  0  0  0
  -22.2078  -41.5022   -3.7712 C   0  0  0  0  0  0  0  0  0  0  0  0
  -21.7387  -40.8247   -5.0184 C   0  0  1  0  0  0  0  0  0  0  0  0
  -21.7122  -39.3285   -4.9624 C   0  0  0  0  0  0  0  0  0  0  0  0
  -20.3886  -38.8179   -5.4166 N   0  0  0  0  0  0  0  0  0  0  0  0
  -20.1471  -39.4051   -6.7598 C   0  0  2  0  0  0  0  0  0  0  0  0
  -20.0383  -40.9172   -6.4927 C   0  0  0  0  0  0  0  0  0  0  0  0
  -20.3578  -41.1947   -5.1612 O   0  0  0  0  0  0  0  0  0  0  0  0
  -18.8682  -38.8307   -7.2626 C   0  0  1  0  0  0  0  0  0  0  0  0
  -17.8544  -39.2993   -6.4116 O   0  0  0  0  0  0  0  0  0  0  0  0
  -18.5593  -39.0818   -8.7121 C   0  0  2  0  0  0  0  0  0  0  0  0
  -19.1872  -38.0638   -9.6399 C   0  0  0  0  0  0  0  0  0  0  0  0
  -18.2118  -37.1509  -10.3207 C   0  0  0  0  0  0  0  0  0  0  0  0
  -18.3588  -35.8288   -9.8310 C   0  0  0  0  0  0  0  0  0  0  0  0
  -17.6130  -34.7675  -10.2602 C   0  0  0  0  0  0  0  0  0  0  0  0
  -16.6852  -35.0745  -11.2241 C   0  0  0  0  0  0  0  0  0  0  0  0
  -16.4957  -36.3699  -11.7453 C   0  0  0  0  0  0  0  0  0  0  0  0
  -17.2833  -37.4223  -11.2754 C   0  0  0  0  0  0  0  0  0  0  0  0
  -15.5013  -36.3794  -12.6930 O   0  0  0  0  0  0  0  0  0  0  0  0
  -14.3320  -36.9965  -13.0259 C   0  0  0  0  0  0  0  0  0  0  0  0
  -14.4309  -38.3914  -13.5894 C   0  0  0  0  0  0  0  0  0  0  0  0
  -13.2391  -39.2592  -13.2506 C   0  0  0  0  0  0  0  0  0  0  0  0
  -13.0321  -39.4159  -11.7817 C   0  0  0  0  0  0  0  0  0  0  0  0
  -13.3866  -40.7564  -11.3792 N   0  0  0  0  0  0  0  0  0  0  0  0
  -14.6570  -41.3359  -11.0353 C   0  0  0  0  0  0  0  0  0  0  0  0
  -14.7447  -42.5936  -11.6887 C   0  0  0  0  0  0  0  0  0  0  0  0
  -15.8352  -43.4132  -11.5858 C   0  0  0  0  0  0  0  0  0  0  0  0
  -15.9002  -44.7167  -12.2739 C   0  0  0  0  0  0  0  0  0  0  0  0
  -15.3638  -45.7518  -11.5367 O   0  0  0  0  0  0  0  0  0  0  0  0
  -15.9832  -46.9275  -11.9574 C   0  0  0  0  0  0  0  0  0  0  0  0
  -16.8423  -42.9357  -10.8055 C   0  0  0  0  0  0  0  0  0  0  0  0
  -16.8128  -41.6806  -10.1236 C   0  0  0  0  0  0  0  0  0  0  0  0
  -15.6945  -40.8798  -10.2492 C   0  0  0  0  0  0  0  0  0  0  0  0
  -18.0689  -41.5033   -9.3905 C   0  0  0  0  0  0  0  0  0  0  0  0
  -18.5796  -42.5724   -8.7807 O   0  0  0  0  0  0  0  0  0  0  0  0
  -18.9346  -40.4132   -9.1544 N   0  0  0  0  0  0  0  0  0  0  0  0
  1  2  1  0
  2  3  1  0
  4  3  1  1
  4  5  1  0
  5  6  1  0
  6  7  1  0
  7  8  1  1
  8  9  1  0
  7 10  1  0
 10 11  1  1
 10 12  1  0
 12 13  1  6
 13 14  1  0
 14 15  2  0
 15 16  1  0
 16 17  2  0
 17 18  1  0
 18 19  2  0
 18 20  1  0
 20 21  1  0
 21 22  1  0
 22 23  1  0
 23 24  1  0
 24 25  1  0
 25 26  1  0
 26 27  2  0
 27 28  1  0
 28 29  1  0
 29 30  1  0
 30 31  1  0
 28 32  2  0
 32 33  1  0
 33 34  2  0
 33 35  1  0
 35 36  2  0
 35 37  1  0
  9  4  1  0
 19 14  1  0
 34 26  1  0
 37 12  1  0
M  END
$$$$
