
     RDKit          3D

 38 39  0  0  0  0  0  0  0  0999 V2000
  -13.1067  -35.7345  -11.3097 C   0  0  0  0  0  0  0  0  0  0  0  0
  -13.3978  -36.3700  -12.6510 C   0  0  0  0  0  0  0  0  0  0  0  0
  -14.2301  -37.6445  -12.4699 C   0  0  0  0  0  0  0  0  0  0  0  0
  -13.4203  -38.5554  -11.5900 C   0  0  0  0  0  0  0  0  0  0  0  0
  -13.9560  -39.8721  -11.4557 N   0  0  0  0  0  0  0  0  0  0  0  0
  -14.6668  -40.3498  -10.3276 C   0  0  0  0  0  0  0  0  0  0  0  0
  -15.5567  -41.2105  -10.5124 O   0  0  0  0  0  0  0  0  0  0  0  0
  -14.4070  -39.8806   -8.9476 C   0  0  2  0  0  0  0  0  0  0  0  0
  -13.2750  -40.6550   -8.3717 C   0  0  0  0  0  0  0  0  0  0  0  0
  -15.7055  -40.0639   -8.1493 C   0  0  0  0  0  0  0  0  0  0  0  0
  -16.7530  -39.1149   -8.6042 C   0  0  2  0  0  0  0  0  0  0  0  0
  -16.3368  -37.7919   -8.6787 O   0  0  0  0  0  0  0  0  0  0  0  0
  -17.9888  -39.1096   -7.6814 C   0  0  2  0  0  0  0  0  0  0  0  0
  -18.4150  -37.7015   -7.5767 C   0  0  0  0  0  0  0  0  0  0  0  0
  -19.7632  -37.3399   -7.1496 C   0  0  2  0  0  0  0  0  0  0  0  0
  -20.3286  -38.1032   -5.9693 C   0  0  0  0  0  0  0  0  0  0  0  0
  -20.8160  -37.1662   -8.2145 C   0  0  0  0  0  0  0  0  0  0  0  0
  -21.4400  -38.3624   -8.7893 C   0  0  0  0  0  0  0  0  0  0  0  0
  -22.8728  -38.6019   -8.2878 C   0  0  0  0  0  0  0  0  0  0  0  0
  -23.3414  -39.9922   -8.6731 C   0  0  0  0  0  0  0  0  0  0  0  0
  -23.6922  -40.8187   -7.4937 C   0  0  0  0  0  0  0  0  0  0  0  0
  -23.5102  -42.2437   -7.6825 N   0  0  0  0  0  0  0  0  0  0  0  0
  -24.3327  -42.8591   -8.7108 C   0  0  0  0  0  0  0  0  0  0  0  0
  -25.7492  -42.4204   -8.7099 C   0  0  0  0  0  0  0  0  0  0  0  0
  -22.5996  -43.0167   -6.9373 C   0  0  0  0  0  0  0  0  0  0  0  0
  -23.0094  -44.2587   -6.8425 O   0  0  0  0  0  0  0  0  0  0  0  0
  -21.3237  -42.6809   -6.2722 C   0  0  0  0  0  0  0  0  0  0  0  0
  -21.2866  -43.3194   -5.0056 C   0  0  0  0  0  0  0  0  0  0  0  0
  -20.2394  -43.1963   -4.1257 C   0  0  0  0  0  0  0  0  0  0  0  0
  -19.2197  -42.4042   -4.5619 C   0  0  0  0  0  0  0  0  0  0  0  0
  -19.1909  -41.7347   -5.8172 C   0  0  0  0  0  0  0  0  0  0  0  0
  -20.2656  -41.8903   -6.6677 C   0  0  0  0  0  0  0  0  0  0  0  0
  -17.9372  -40.9659   -5.9261 C   0  0  0  0  0  0  0  0  0  0  0  0
  -16.8455  -41.5618   -5.4488 O   0  0  0  0  0  0  0  0  0  0  0  0
  -17.5678  -39.7183   -6.4179 N   0  0  0  0  0  0  0  0  0  0  0  0
  -20.2424  -43.8386   -2.8998 O   0  0  0  0  0  0  0  0  0  0  0  0
  -21.3750  -43.8132   -2.0785 C   0  0  0  0  0  0  0  0  0  0  0  0
  -21.2184  -44.4758   -0.7463 C   0  0  0  0  0  0  0  0  0  0  0  0
  1  2  1  0
  2  3  1  0
  3  4  1  0
  4  5  1  0
  5  6  1  0
  6  7  2  0
  6  8  1  0
  8  9  1  1
  8 10  1  0
 10 11  1  0
 11 12  1  1
 11 13  1  0
 13 14  1  1
 14 15  1  0
 15 16  1  1
 15 17  1  0
 17 18  1  0
 18 19  1  0
 19 20  1  0
 20 21  1  0
 21 22  1  0
 22 23  1  0
 23 24  1  0
 22 25  1  0
 25 26  2  0
 25 27  1  0
 27 28  2  0
 28 29  1  0
 29 30  2  0
 30 31  1  0
 31 32  2  0
 31 33  1  0
 33 34  2  0
 33 35  1  0
 29 36  1  0
 36 37  1  0
 37 38  1  0
 32 27  1  0
 35 13  1  0
M  END
$$$$
