
     RDKit          3D

 38 39  0  0  0  0  0  0  0  0999 V2000
  -14.6020  -36.1970  -13.2687 C   0  0  0  0  0  0  0  0  0  0  0  0
  -14.3648  -37.3979  -12.3802 C   0  0  0  0  0  0  0  0  0  0  0  0
  -12.9622  -37.3389  -11.7643 C   0  0  0  0  0  0  0  0  0  0  0  0
  -12.8236  -38.5699  -10.9128 C   0  0  0  0  0  0  0  0  0  0  0  0
  -13.9294  -38.8101  -10.0421 N   0  0  0  0  0  0  0  0  0  0  0  0
  -14.4102  -40.0899   -9.6720 C   0  0  0  0  0  0  0  0  0  0  0  0
  -15.0992  -40.7239  -10.5028 O   0  0  0  0  0  0  0  0  0  0  0  0
  -14.1365  -40.7089   -8.3552 C   0  0  2  0  0  0  0  0  0  0  0  0
  -13.7825  -42.1404   -8.5506 C   0  0  0  0  0  0  0  0  0  0  0  0
  -15.3957  -40.5312   -7.4949 C   0  0  0  0  0  0  0  0  0  0  0  0
  -16.1930  -39.3629   -7.9464 C   0  0  2  0  0  0  0  0  0  0  0  0
  -15.7018  -38.1341   -7.5244 O   0  0  0  0  0  0  0  0  0  0  0  0
  -17.6537  -39.4167   -7.4545 C   0  0  2  0  0  0  0  0  0  0  0  0
  -18.1047  -38.0158   -7.3577 C   0  0  0  0  0  0  0  0  0  0  0  0
  -19.5222  -37.6679   -7.3370 C   0  0  2  0  0  0  0  0  0  0  0  0
  -20.4181  -38.5235   -6.4647 C   0  0  0  0  0  0  0  0  0  0  0  0
  -20.1951  -37.3783   -8.6545 C   0  0  0  0  0  0  0  0  0  0  0  0
  -20.5992  -38.5052   -9.5014 C   0  0  0  0  0  0  0  0  0  0  0  0
  -22.1146  -38.7609   -9.4917 C   0  0  0  0  0  0  0  0  0  0  0  0
  -22.4277  -40.1013  -10.1290 C   0  0  0  0  0  0  0  0  0  0  0  0
  -23.1187  -41.0240   -9.1970 C   0  0  0  0  0  0  0  0  0  0  0  0
  -22.8738  -42.4293   -9.4505 N   0  0  0  0  0  0  0  0  0  0  0  0
  -23.3316  -42.9332  -10.7346 C   0  0  0  0  0  0  0  0  0  0  0  0
  -24.8043  -43.0565  -10.8574 C   0  0  0  0  0  0  0  0  0  0  0  0
  -22.2315  -43.2841   -8.5346 C   0  0  0  0  0  0  0  0  0  0  0  0
  -22.6388  -44.5213   -8.6857 O   0  0  0  0  0  0  0  0  0  0  0  0
  -21.2275  -43.0348   -7.4797 C   0  0  0  0  0  0  0  0  0  0  0  0
  -21.5783  -43.7856   -6.3280 C   0  0  0  0  0  0  0  0  0  0  0  0
  -20.8562  -43.7629   -5.1601 C   0  0  0  0  0  0  0  0  0  0  0  0
  -19.7590  -42.9547   -5.1849 C   0  0  0  0  0  0  0  0  0  0  0  0
  -19.3493  -42.1754   -6.3027 C   0  0  0  0  0  0  0  0  0  0  0  0
  -20.1063  -42.2325   -7.4543 C   0  0  0  0  0  0  0  0  0  0  0  0
  -18.1307  -41.4246   -5.9476 C   0  0  0  0  0  0  0  0  0  0  0  0
  -17.2349  -42.0823   -5.2131 O   0  0  0  0  0  0  0  0  0  0  0  0
  -17.6390  -40.1451   -6.1842 N   0  0  0  0  0  0  0  0  0  0  0  0
  -21.2326  -44.5131   -4.0596 O   0  0  0  0  0  0  0  0  0  0  0  0
  -22.2393  -44.0666   -3.1963 C   0  0  0  0  0  0  0  0  0  0  0  0
  -22.5664  -44.9841   -2.0608 C   0  0  0  0  0  0  0  0  0  0  0  0
  1  2  1  0
  2  3  1  0
  3  4  1  0
  4  5  1  0
  5  6  1  0
  6  7  2  0
  6  8  1  0
  8  9  1  6
  8 10  1  0
 10 11  1  0
 11 12  1  1
 11 13  1  0
 13 14  1  1
 14 15  1  0
 15 16  1  6
 15 17  1  0
 17 18  1  0
 18 19  1  0
 19 20  1  0
 20 21  1  0
 21 22  1  0
 22 23  1  0
 23 24  1  0
 22 25  1  0
 25 26  2  0
 25 27  1  0
 27 28  2  0
 28 29  1  0
 29 30  2  0
 30 31  1  0
 31 32  2  0
 31 33  1  0
 33 34  2  0
 33 35  1  0
 29 36  1  0
 36 37  1  0
 37 38  1  0
 32 27  1  0
 35 13  1  0
M  END
$$$$
