
     RDKit          3D

 38 39  0  0  0  0  0  0  0  0999 V2000
  -14.3610  -34.8423  -12.8799 C   0  0  0  0  0  0  0  0  0  0  0  0
  -13.1835  -35.7824  -12.7469 C   0  0  0  0  0  0  0  0  0  0  0  0
  -12.8422  -36.0065  -11.2693 C   0  0  0  0  0  0  0  0  0  0  0  0
  -12.6373  -37.4865  -11.1037 C   0  0  0  0  0  0  0  0  0  0  0  0
  -13.7605  -38.2817  -11.4841 N   0  0  0  0  0  0  0  0  0  0  0  0
  -14.1040  -39.5307  -10.9115 C   0  0  0  0  0  0  0  0  0  0  0  0
  -13.7680  -40.5712  -11.5210 O   0  0  0  0  0  0  0  0  0  0  0  0
  -14.8378  -39.6616   -9.6322 C   0  0  2  0  0  0  0  0  0  0  0  0
  -13.8662  -39.9064   -8.5328 C   0  0  0  0  0  0  0  0  0  0  0  0
  -15.8387  -40.8144   -9.7940 C   0  0  0  0  0  0  0  0  0  0  0  0
  -17.2337  -40.3090   -9.8524 C   0  0  2  0  0  0  0  0  0  0  0  0
  -17.3498  -38.9889  -10.2685 O   0  0  0  0  0  0  0  0  0  0  0  0
  -17.9463  -40.3776   -8.4864 C   0  0  2  0  0  0  0  0  0  0  0  0
  -17.9280  -39.0053   -7.9462 C   0  0  0  0  0  0  0  0  0  0  0  0
  -18.8513  -38.5836   -6.8972 C   0  0  2  0  0  0  0  0  0  0  0  0
  -19.0616  -39.5501   -5.7495 C   0  0  0  0  0  0  0  0  0  0  0  0
  -20.1652  -37.9763   -7.3184 C   0  0  0  0  0  0  0  0  0  0  0  0
  -21.2450  -38.8674   -7.7549 C   0  0  0  0  0  0  0  0  0  0  0  0
  -22.3625  -39.0255   -6.7119 C   0  0  0  0  0  0  0  0  0  0  0  0
  -23.2772  -40.1755   -7.0886 C   0  0  0  0  0  0  0  0  0  0  0  0
  -23.3147  -41.2329   -6.0504 C   0  0  0  0  0  0  0  0  0  0  0  0
  -23.5862  -42.5630   -6.5565 N   0  0  0  0  0  0  0  0  0  0  0  0
  -24.8793  -42.7495   -7.1935 C   0  0  0  0  0  0  0  0  0  0  0  0
  -24.8732  -42.5614   -8.6644 C   0  0  0  0  0  0  0  0  0  0  0  0
  -22.6761  -43.6328   -6.4588 C   0  0  0  0  0  0  0  0  0  0  0  0
  -23.3079  -44.7810   -6.4161 O   0  0  0  0  0  0  0  0  0  0  0  0
  -21.2007  -43.6786   -6.3949 C   0  0  0  0  0  0  0  0  0  0  0  0
  -20.8148  -44.6368   -5.4222 C   0  0  0  0  0  0  0  0  0  0  0  0
  -19.5067  -44.9104   -5.1060 C   0  0  0  0  0  0  0  0  0  0  0  0
  -18.5885  -44.1849   -5.8045 C   0  0  0  0  0  0  0  0  0  0  0  0
  -18.9042  -43.2099   -6.7917 C   0  0  0  0  0  0  0  0  0  0  0  0
  -20.2327  -42.9711   -7.0757 C   0  0  0  0  0  0  0  0  0  0  0  0
  -17.6535  -42.6295   -7.3148 C   0  0  0  0  0  0  0  0  0  0  0  0
  -16.6483  -43.4837   -7.5008 O   0  0  0  0  0  0  0  0  0  0  0  0
  -17.2165  -41.3618   -7.6846 N   0  0  0  0  0  0  0  0  0  0  0  0
  -19.1735  -45.8553   -4.1512 O   0  0  0  0  0  0  0  0  0  0  0  0
  -18.1127  -46.7438   -4.3595 C   0  0  0  0  0  0  0  0  0  0  0  0
  -17.7827  -47.6339   -3.2032 C   0  0  0  0  0  0  0  0  0  0  0  0
  1  2  1  0
  2  3  1  0
  3  4  1  0
  4  5  1  0
  5  6  1  0
  6  7  2  0
  6  8  1  0
  8  9  1  1
  8 10  1  0
 10 11  1  0
 11 12  1  1
 11 13  1  0
 13 14  1  1
 14 15  1  0
 15 16  1  6
 15 17  1  0
 17 18  1  0
 18 19  1  0
 19 20  1  0
 20 21  1  0
 21 22  1  0
 22 23  1  0
 23 24  1  0
 22 25  1  0
 25 26  2  0
 25 27  1  0
 27 28  2  0
 28 29  1  0
 29 30  2  0
 30 31  1  0
 31 32  2  0
 31 33  1  0
 33 34  2  0
 33 35  1  0
 29 36  1  0
 36 37  1  0
 37 38  1  0
 32 27  1  0
 35 13  1  0
M  END
$$$$
