
     RDKit          3D

 38 39  0  0  0  0  0  0  0  0999 V2000
  -13.4278  -33.2513  -12.5174 C   0  0  0  0  0  0  0  0  0  0  0  0
  -13.2474  -34.3055  -11.4479 C   0  0  0  0  0  0  0  0  0  0  0  0
  -14.3180  -35.3942  -11.5839 C   0  0  0  0  0  0  0  0  0  0  0  0
  -13.6155  -36.7056  -11.3684 C   0  0  0  0  0  0  0  0  0  0  0  0
  -13.9607  -37.3641  -10.1494 N   0  0  0  0  0  0  0  0  0  0  0  0
  -14.8011  -38.4997  -10.0482 C   0  0  0  0  0  0  0  0  0  0  0  0
  -15.6283  -38.7048  -10.9649 O   0  0  0  0  0  0  0  0  0  0  0  0
  -14.7460  -39.4502   -8.9143 C   0  0  2  0  0  0  0  0  0  0  0  0
  -13.6225  -40.4018   -9.1266 C   0  0  0  0  0  0  0  0  0  0  0  0
  -16.1060  -40.1591   -8.8443 C   0  0  0  0  0  0  0  0  0  0  0  0
  -17.1526  -39.2585   -8.2980 C   0  0  2  0  0  0  0  0  0  0  0  0
  -16.6633  -38.0999   -7.7085 O   0  0  0  0  0  0  0  0  0  0  0  0
  -18.0163  -39.9408   -7.2178 C   0  0  2  0  0  0  0  0  0  0  0  0
  -18.2034  -38.9395   -6.1510 C   0  0  0  0  0  0  0  0  0  0  0  0
  -19.2860  -39.0510   -5.1783 C   0  0  2  0  0  0  0  0  0  0  0  0
  -19.5361  -40.4272   -4.5961 C   0  0  0  0  0  0  0  0  0  0  0  0
  -20.5932  -38.3722   -5.4992 C   0  0  0  0  0  0  0  0  0  0  0  0
  -21.5156  -39.0263   -6.4329 C   0  0  0  0  0  0  0  0  0  0  0  0
  -22.7305  -39.6645   -5.7412 C   0  0  0  0  0  0  0  0  0  0  0  0
  -23.4710  -40.5712   -6.7058 C   0  0  0  0  0  0  0  0  0  0  0  0
  -23.5280  -41.9751   -6.2333 C   0  0  0  0  0  0  0  0  0  0  0  0
  -23.5993  -42.9630   -7.2907 N   0  0  0  0  0  0  0  0  0  0  0  0
  -24.7792  -42.9041   -8.1375 C   0  0  0  0  0  0  0  0  0  0  0  0
  -24.5722  -42.2142   -9.4337 C   0  0  0  0  0  0  0  0  0  0  0  0
  -22.6044  -43.9331   -7.5167 C   0  0  0  0  0  0  0  0  0  0  0  0
  -23.1171  -45.0094   -8.0628 O   0  0  0  0  0  0  0  0  0  0  0  0
  -21.1509  -43.9452   -7.2519 C   0  0  0  0  0  0  0  0  0  0  0  0
  -20.7918  -45.2150   -6.7305 C   0  0  0  0  0  0  0  0  0  0  0  0
  -19.5113  -45.5481   -6.3627 C   0  0  0  0  0  0  0  0  0  0  0  0
  -18.5928  -44.5565   -6.5371 C   0  0  0  0  0  0  0  0  0  0  0  0
  -18.8825  -43.2626   -7.0534 C   0  0  0  0  0  0  0  0  0  0  0  0
  -20.1835  -42.9756   -7.4104 C   0  0  0  0  0  0  0  0  0  0  0  0
  -17.6424  -42.4649   -7.0816 C   0  0  0  0  0  0  0  0  0  0  0  0
  -16.5408  -43.1142   -7.4549 O   0  0  0  0  0  0  0  0  0  0  0  0
  -17.2941  -41.1466   -6.8070 N   0  0  0  0  0  0  0  0  0  0  0  0
  -19.2034  -46.8003   -5.8597 O   0  0  0  0  0  0  0  0  0  0  0  0
  -19.3409  -47.9459   -6.6513 C   0  0  0  0  0  0  0  0  0  0  0  0
  -19.9433  -49.1321   -5.9667 C   0  0  0  0  0  0  0  0  0  0  0  0
  1  2  1  0
  2  3  1  0
  3  4  1  0
  4  5  1  0
  5  6  1  0
  6  7  2  0
  6  8  1  0
  8  9  1  6
  8 10  1  0
 10 11  1  0
 11 12  1  1
 11 13  1  0
 13 14  1  1
 14 15  1  0
 15 16  1  6
 15 17  1  0
 17 18  1  0
 18 19  1  0
 19 20  1  0
 20 21  1  0
 21 22  1  0
 22 23  1  0
 23 24  1  0
 22 25  1  0
 25 26  2  0
 25 27  1  0
 27 28  2  0
 28 29  1  0
 29 30  2  0
 30 31  1  0
 31 32  2  0
 31 33  1  0
 33 34  2  0
 33 35  1  0
 29 36  1  0
 36 37  1  0
 37 38  1  0
 32 27  1  0
 35 13  1  0
M  END
$$$$
