
     RDKit          3D

 38 39  0  0  0  0  0  0  0  0999 V2000
  -12.4916  -35.4771  -13.5804 C   0  0  0  0  0  0  0  0  0  0  0  0
  -11.5399  -36.3221  -12.7631 C   0  0  0  0  0  0  0  0  0  0  0  0
  -12.0956  -36.5399  -11.3511 C   0  0  0  0  0  0  0  0  0  0  0  0
  -13.0589  -37.6896  -11.4498 C   0  0  0  0  0  0  0  0  0  0  0  0
  -13.6006  -38.1119  -10.1980 N   0  0  0  0  0  0  0  0  0  0  0  0
  -14.4879  -39.2016  -10.0218 C   0  0  0  0  0  0  0  0  0  0  0  0
  -15.2752  -39.4779  -10.9550 O   0  0  0  0  0  0  0  0  0  0  0  0
  -14.5267  -40.0246   -8.7916 C   0  0  2  0  0  0  0  0  0  0  0  0
  -13.5106  -41.1062   -8.8933 C   0  0  0  0  0  0  0  0  0  0  0  0
  -15.9532  -40.5750   -8.6535 C   0  0  0  0  0  0  0  0  0  0  0  0
  -16.9602  -39.5636   -9.0630 C   0  0  2  0  0  0  0  0  0  0  0  0
  -16.4679  -38.2683   -9.1583 O   0  0  0  0  0  0  0  0  0  0  0  0
  -18.1511  -39.4840   -8.0863 C   0  0  2  0  0  0  0  0  0  0  0  0
  -18.5822  -38.0734   -8.0811 C   0  0  0  0  0  0  0  0  0  0  0  0
  -19.9113  -37.6813   -7.6225 C   0  0  2  0  0  0  0  0  0  0  0  0
  -20.4150  -38.3434   -6.3562 C   0  0  0  0  0  0  0  0  0  0  0  0
  -21.0144  -37.6021   -8.6469 C   0  0  0  0  0  0  0  0  0  0  0  0
  -21.6560  -38.8447   -9.0881 C   0  0  0  0  0  0  0  0  0  0  0  0
  -23.0619  -39.0454   -8.5006 C   0  0  0  0  0  0  0  0  0  0  0  0
  -23.5379  -40.4649   -8.7440 C   0  0  0  0  0  0  0  0  0  0  0  0
  -23.8268  -41.1895   -7.4835 C   0  0  0  0  0  0  0  0  0  0  0  0
  -23.6435  -42.6247   -7.5595 N   0  0  0  0  0  0  0  0  0  0  0  0
  -24.5090  -43.3279   -8.4917 C   0  0  0  0  0  0  0  0  0  0  0  0
  -25.9541  -43.2497   -8.1681 C   0  0  0  0  0  0  0  0  0  0  0  0
  -22.6932  -43.3287   -6.7955 C   0  0  0  0  0  0  0  0  0  0  0  0
  -23.0891  -44.5595   -6.5766 O   0  0  0  0  0  0  0  0  0  0  0  0
  -21.3899  -42.9335   -6.2227 C   0  0  0  0  0  0  0  0  0  0  0  0
  -21.2885  -43.4620   -4.9098 C   0  0  0  0  0  0  0  0  0  0  0  0
  -20.2019  -43.2611   -4.0943 C   0  0  0  0  0  0  0  0  0  0  0  0
  -19.2097  -42.5056   -4.6440 C   0  0  0  0  0  0  0  0  0  0  0  0
  -19.2450  -41.9451   -5.9514 C   0  0  0  0  0  0  0  0  0  0  0  0
  -20.3574  -42.1759   -6.7336 C   0  0  0  0  0  0  0  0  0  0  0  0
  -18.0034  -41.1843   -6.1845 C   0  0  0  0  0  0  0  0  0  0  0  0
  -16.8861  -41.7339   -5.7110 O   0  0  0  0  0  0  0  0  0  0  0  0
  -17.6667  -39.9817   -6.7972 N   0  0  0  0  0  0  0  0  0  0  0  0
  -20.1425  -43.7970   -2.8196 O   0  0  0  0  0  0  0  0  0  0  0  0
  -20.0235  -42.9695   -1.6975 C   0  0  0  0  0  0  0  0  0  0  0  0
  -19.6516  -43.6618   -0.4244 C   0  0  0  0  0  0  0  0  0  0  0  0
  1  2  1  0
  2  3  1  0
  3  4  1  0
  4  5  1  0
  5  6  1  0
  6  7  2  0
  6  8  1  0
  8  9  1  6
  8 10  1  0
 10 11  1  0
 11 12  1  1
 11 13  1  0
 13 14  1  1
 14 15  1  0
 15 16  1  1
 15 17  1  0
 17 18  1  0
 18 19  1  0
 19 20  1  0
 20 21  1  0
 21 22  1  0
 22 23  1  0
 23 24  1  0
 22 25  1  0
 25 26  2  0
 25 27  1  0
 27 28  2  0
 28 29  1  0
 29 30  2  0
 30 31  1  0
 31 32  2  0
 31 33  1  0
 33 34  2  0
 33 35  1  0
 29 36  1  0
 36 37  1  0
 37 38  1  0
 32 27  1  0
 35 13  1  0
M  END
$$$$
