
     RDKit          3D

 38 39  0  0  0  0  0  0  0  0999 V2000
  -17.9823  -35.8802  -12.8821 C   0  0  0  0  0  0  0  0  0  0  0  0
  -18.7936  -36.4281  -11.7291 C   0  0  0  0  0  0  0  0  0  0  0  0
  -18.2387  -37.7852  -11.2817 C   0  0  0  0  0  0  0  0  0  0  0  0
  -16.9027  -37.9368  -11.9538 C   0  0  0  0  0  0  0  0  0  0  0  0
  -16.2384  -39.1685  -11.6704 N   0  0  0  0  0  0  0  0  0  0  0  0
  -16.0411  -39.7070  -10.3755 C   0  0  0  0  0  0  0  0  0  0  0  0
  -16.5413  -40.8255  -10.1193 O   0  0  0  0  0  0  0  0  0  0  0  0
  -15.2743  -39.0118   -9.3168 C   0  0  2  0  0  0  0  0  0  0  0  0
  -13.8214  -39.2547   -9.5242 C   0  0  0  0  0  0  0  0  0  0  0  0
  -15.7687  -39.5480   -7.9658 C   0  0  0  0  0  0  0  0  0  0  0  0
  -17.1210  -39.0259   -7.6442 C   0  0  2  0  0  0  0  0  0  0  0  0
  -17.1256  -37.7733   -7.0441 O   0  0  0  0  0  0  0  0  0  0  0  0
  -17.8994  -39.9486   -6.6844 C   0  0  2  0  0  0  0  0  0  0  0  0
  -18.0432  -39.1984   -5.4226 C   0  0  0  0  0  0  0  0  0  0  0  0
  -19.0602  -39.5487   -4.4359 C   0  0  2  0  0  0  0  0  0  0  0  0
  -19.2411  -41.0240   -4.1422 C   0  0  0  0  0  0  0  0  0  0  0  0
  -20.4005  -38.8656   -4.5336 C   0  0  0  0  0  0  0  0  0  0  0  0
  -21.3636  -39.3441   -5.5306 C   0  0  0  0  0  0  0  0  0  0  0  0
  -22.5177  -40.1556   -4.9213 C   0  0  0  0  0  0  0  0  0  0  0  0
  -23.2952  -40.8680   -6.0116 C   0  0  0  0  0  0  0  0  0  0  0  0
  -23.2896  -42.3405   -5.8416 C   0  0  0  0  0  0  0  0  0  0  0  0
  -23.4034  -43.0888   -7.0770 N   0  0  0  0  0  0  0  0  0  0  0  0
  -24.6347  -42.8977   -7.8252 C   0  0  0  0  0  0  0  0  0  0  0  0
  -25.6853  -42.1444   -7.0987 C   0  0  0  0  0  0  0  0  0  0  0  0
  -22.4019  -43.9543   -7.5568 C   0  0  0  0  0  0  0  0  0  0  0  0
  -22.9221  -44.9112   -8.2869 O   0  0  0  0  0  0  0  0  0  0  0  0
  -20.9348  -43.9687   -7.3822 C   0  0  0  0  0  0  0  0  0  0  0  0
  -20.5141  -45.3054   -7.1596 C   0  0  0  0  0  0  0  0  0  0  0  0
  -19.2057  -45.6613   -6.9422 C   0  0  0  0  0  0  0  0  0  0  0  0
  -18.3235  -44.6226   -6.9558 C   0  0  0  0  0  0  0  0  0  0  0  0
  -18.6751  -43.2610   -7.1723 C   0  0  0  0  0  0  0  0  0  0  0  0
  -20.0023  -42.9531   -7.3877 C   0  0  0  0  0  0  0  0  0  0  0  0
  -17.4584  -42.4307   -7.1019 C   0  0  0  0  0  0  0  0  0  0  0  0
  -16.3671  -42.9480   -7.6641 O   0  0  0  0  0  0  0  0  0  0  0  0
  -17.1249  -41.1866   -6.5767 N   0  0  0  0  0  0  0  0  0  0  0  0
  -18.8376  -46.9787   -6.7310 O   0  0  0  0  0  0  0  0  0  0  0  0
  -17.9630  -47.6295   -7.6083 C   0  0  0  0  0  0  0  0  0  0  0  0
  -17.8732  -49.1138   -7.4435 C   0  0  0  0  0  0  0  0  0  0  0  0
  1  2  1  0
  2  3  1  0
  3  4  1  0
  4  5  1  0
  5  6  1  0
  6  7  2  0
  6  8  1  0
  8  9  1  6
  8 10  1  0
 10 11  1  0
 11 12  1  1
 11 13  1  0
 13 14  1  1
 14 15  1  0
 15 16  1  6
 15 17  1  0
 17 18  1  0
 18 19  1  0
 19 20  1  0
 20 21  1  0
 21 22  1  0
 22 23  1  0
 23 24  1  0
 22 25  1  0
 25 26  2  0
 25 27  1  0
 27 28  2  0
 28 29  1  0
 29 30  2  0
 30 31  1  0
 31 32  2  0
 31 33  1  0
 33 34  2  0
 33 35  1  0
 29 36  1  0
 36 37  1  0
 37 38  1  0
 32 27  1  0
 35 13  1  0
M  END
$$$$
