
     RDKit          3D

 38 39  0  0  0  0  0  0  0  0999 V2000
  -15.4244  -35.5088  -12.7911 C   0  0  0  0  0  0  0  0  0  0  0  0
  -14.4501  -36.1888  -11.8551 C   0  0  0  0  0  0  0  0  0  0  0  0
  -13.4783  -37.0731  -12.6447 C   0  0  0  0  0  0  0  0  0  0  0  0
  -12.6100  -37.7586  -11.6269 C   0  0  0  0  0  0  0  0  0  0  0  0
  -12.8923  -39.1475  -11.4531 N   0  0  0  0  0  0  0  0  0  0  0  0
  -14.0545  -39.6701  -10.8350 C   0  0  0  0  0  0  0  0  0  0  0  0
  -15.1345  -39.6121  -11.4653 O   0  0  0  0  0  0  0  0  0  0  0  0
  -14.0507  -40.2788   -9.4854 C   0  0  2  0  0  0  0  0  0  0  0  0
  -13.0324  -41.3623   -9.4393 C   0  0  0  0  0  0  0  0  0  0  0  0
  -15.4693  -40.7991   -9.2135 C   0  0  0  0  0  0  0  0  0  0  0  0
  -16.4335  -39.6788   -9.0730 C   0  0  2  0  0  0  0  0  0  0  0  0
  -15.8495  -38.4489   -8.7980 O   0  0  0  0  0  0  0  0  0  0  0  0
  -17.4554  -39.9148   -7.9424 C   0  0  2  0  0  0  0  0  0  0  0  0
  -17.5459  -38.6431   -7.2007 C   0  0  0  0  0  0  0  0  0  0  0  0
  -18.6880  -38.3359   -6.3451 C   0  0  2  0  0  0  0  0  0  0  0  0
  -19.1842  -39.4523   -5.4490 C   0  0  0  0  0  0  0  0  0  0  0  0
  -19.8516  -37.6019   -6.9612 C   0  0  0  0  0  0  0  0  0  0  0  0
  -20.8085  -38.3571   -7.7765 C   0  0  0  0  0  0  0  0  0  0  0  0
  -22.1469  -38.6109   -7.0650 C   0  0  0  0  0  0  0  0  0  0  0  0
  -22.9621  -39.6395   -7.8254 C   0  0  0  0  0  0  0  0  0  0  0  0
  -23.2658  -40.8383   -7.0081 C   0  0  0  0  0  0  0  0  0  0  0  0
  -23.4285  -42.0600   -7.7699 N   0  0  0  0  0  0  0  0  0  0  0  0
  -24.5327  -42.0778   -8.7149 C   0  0  0  0  0  0  0  0  0  0  0  0
  -24.2104  -41.5149  -10.0484 C   0  0  0  0  0  0  0  0  0  0  0  0
  -22.5861  -43.1797   -7.6330 C   0  0  0  0  0  0  0  0  0  0  0  0
  -23.2279  -44.2854   -7.9245 O   0  0  0  0  0  0  0  0  0  0  0  0
  -21.1705  -43.3141   -7.2316 C   0  0  0  0  0  0  0  0  0  0  0  0
  -21.0459  -44.4279   -6.3615 C   0  0  0  0  0  0  0  0  0  0  0  0
  -19.8571  -44.8164   -5.7941 C   0  0  0  0  0  0  0  0  0  0  0  0
  -18.7861  -44.0440   -6.1315 C   0  0  0  0  0  0  0  0  0  0  0  0
  -18.8389  -42.9152   -6.9962 C   0  0  0  0  0  0  0  0  0  0  0  0
  -20.0557  -42.5649   -7.5431 C   0  0  0  0  0  0  0  0  0  0  0  0
  -17.4898  -42.3307   -7.1103 C   0  0  0  0  0  0  0  0  0  0  0  0
  -16.4833  -43.1998   -7.1885 O   0  0  0  0  0  0  0  0  0  0  0  0
  -16.9563  -41.0470   -7.1592 N   0  0  0  0  0  0  0  0  0  0  0  0
  -19.7791  -45.9115   -4.9513 O   0  0  0  0  0  0  0  0  0  0  0  0
  -18.5729  -46.5989   -4.7768 C   0  0  0  0  0  0  0  0  0  0  0  0
  -18.6759  -47.9059   -4.0561 C   0  0  0  0  0  0  0  0  0  0  0  0
  1  2  1  0
  2  3  1  0
  3  4  1  0
  4  5  1  0
  5  6  1  0
  6  7  2  0
  6  8  1  0
  8  9  1  6
  8 10  1  0
 10 11  1  0
 11 12  1  1
 11 13  1  0
 13 14  1  1
 14 15  1  0
 15 16  1  6
 15 17  1  0
 17 18  1  0
 18 19  1  0
 19 20  1  0
 20 21  1  0
 21 22  1  0
 22 23  1  0
 23 24  1  0
 22 25  1  0
 25 26  2  0
 25 27  1  0
 27 28  2  0
 28 29  1  0
 29 30  2  0
 30 31  1  0
 31 32  2  0
 31 33  1  0
 33 34  2  0
 33 35  1  0
 29 36  1  0
 36 37  1  0
 37 38  1  0
 32 27  1  0
 35 13  1  0
M  END
$$$$
