
     RDKit          3D

 38 39  0  0  0  0  0  0  0  0999 V2000
  -11.0700  -35.6899  -11.7918 C   0  0  0  0  0  0  0  0  0  0  0  0
  -11.6585  -36.9611  -12.3624 C   0  0  0  0  0  0  0  0  0  0  0  0
  -12.0760  -37.9109  -11.2339 C   0  0  0  0  0  0  0  0  0  0  0  0
  -12.6802  -39.1160  -11.8990 C   0  0  0  0  0  0  0  0  0  0  0  0
  -13.0634  -40.1548  -10.9974 N   0  0  0  0  0  0  0  0  0  0  0  0
  -14.3811  -40.3815  -10.5305 C   0  0  0  0  0  0  0  0  0  0  0  0
  -15.3330  -40.1129  -11.2978 O   0  0  0  0  0  0  0  0  0  0  0  0
  -14.6828  -40.9190   -9.1843 C   0  0  2  0  0  0  0  0  0  0  0  0
  -14.3964  -42.3786   -9.1638 C   0  0  0  0  0  0  0  0  0  0  0  0
  -16.1569  -40.6093   -8.8872 C   0  0  0  0  0  0  0  0  0  0  0  0
  -16.3193  -39.2311   -8.3592 C   0  0  2  0  0  0  0  0  0  0  0  0
  -15.4624  -38.9114   -7.3138 O   0  0  0  0  0  0  0  0  0  0  0  0
  -17.7417  -38.9647   -7.8258 C   0  0  2  0  0  0  0  0  0  0  0  0
  -18.0024  -37.5311   -8.0541 C   0  0  0  0  0  0  0  0  0  0  0  0
  -19.3595  -36.9941   -8.0755 C   0  0  2  0  0  0  0  0  0  0  0  0
  -20.3022  -37.4892   -6.9977 C   0  0  0  0  0  0  0  0  0  0  0  0
  -20.0698  -36.9289   -9.4036 C   0  0  0  0  0  0  0  0  0  0  0  0
  -20.6666  -38.1548   -9.9437 C   0  0  0  0  0  0  0  0  0  0  0  0
  -22.1988  -38.1876   -9.8283 C   0  0  0  0  0  0  0  0  0  0  0  0
  -22.7200  -39.5826  -10.1164 C   0  0  0  0  0  0  0  0  0  0  0  0
  -23.4648  -40.1569   -8.9707 C   0  0  0  0  0  0  0  0  0  0  0  0
  -23.4182  -41.6027   -8.8873 N   0  0  0  0  0  0  0  0  0  0  0  0
  -24.0153  -42.3234   -9.9993 C   0  0  0  0  0  0  0  0  0  0  0  0
  -25.4792  -42.1331  -10.1406 C   0  0  0  0  0  0  0  0  0  0  0  0
  -22.8356  -42.3011   -7.8126 C   0  0  0  0  0  0  0  0  0  0  0  0
  -23.4067  -43.4703   -7.6509 O   0  0  0  0  0  0  0  0  0  0  0  0
  -21.7446  -41.9549   -6.8783 C   0  0  0  0  0  0  0  0  0  0  0  0
  -22.1171  -42.3599   -5.5705 C   0  0  0  0  0  0  0  0  0  0  0  0
  -21.3273  -42.1662   -4.4638 C   0  0  0  0  0  0  0  0  0  0  0  0
  -20.1392  -41.5470   -4.7138 C   0  0  0  0  0  0  0  0  0  0  0  0
  -19.7027  -41.1148   -5.9973 C   0  0  0  0  0  0  0  0  0  0  0  0
  -20.5305  -41.3330   -7.0789 C   0  0  0  0  0  0  0  0  0  0  0  0
  -18.3783  -40.4791   -5.8685 C   0  0  0  0  0  0  0  0  0  0  0  0
  -17.5306  -41.0654   -5.0246 O   0  0  0  0  0  0  0  0  0  0  0  0
  -17.7421  -39.3714   -6.4191 N   0  0  0  0  0  0  0  0  0  0  0  0
  -21.7282  -42.5789   -3.2050 O   0  0  0  0  0  0  0  0  0  0  0  0
  -21.2877  -41.9121   -2.0564 C   0  0  0  0  0  0  0  0  0  0  0  0
  -22.1865  -40.8239   -1.5601 C   0  0  0  0  0  0  0  0  0  0  0  0
  1  2  1  0
  2  3  1  0
  3  4  1  0
  4  5  1  0
  5  6  1  0
  6  7  2  0
  6  8  1  0
  8  9  1  6
  8 10  1  0
 10 11  1  0
 11 12  1  1
 11 13  1  0
 13 14  1  1
 14 15  1  0
 15 16  1  1
 15 17  1  0
 17 18  1  0
 18 19  1  0
 19 20  1  0
 20 21  1  0
 21 22  1  0
 22 23  1  0
 23 24  1  0
 22 25  1  0
 25 26  2  0
 25 27  1  0
 27 28  2  0
 28 29  1  0
 29 30  2  0
 30 31  1  0
 31 32  2  0
 31 33  1  0
 33 34  2  0
 33 35  1  0
 29 36  1  0
 36 37  1  0
 37 38  1  0
 32 27  1  0
 35 13  1  0
M  END
$$$$
