
     RDKit          3D

 38 39  0  0  0  0  0  0  0  0999 V2000
  -12.6750  -36.3253  -13.7889 C   0  0  0  0  0  0  0  0  0  0  0  0
  -13.5888  -35.7348  -12.7382 C   0  0  0  0  0  0  0  0  0  0  0  0
  -13.3698  -36.4275  -11.3883 C   0  0  0  0  0  0  0  0  0  0  0  0
  -14.0421  -37.7683  -11.4884 C   0  0  0  0  0  0  0  0  0  0  0  0
  -13.7193  -38.6685  -10.4281 N   0  0  0  0  0  0  0  0  0  0  0  0
  -14.6649  -39.3518   -9.6250 C   0  0  0  0  0  0  0  0  0  0  0  0
  -15.7112  -39.7684  -10.1715 O   0  0  0  0  0  0  0  0  0  0  0  0
  -14.4735  -39.5949   -8.1771 C   0  0  2  0  0  0  0  0  0  0  0  0
  -13.2795  -40.4596   -7.9790 C   0  0  0  0  0  0  0  0  0  0  0  0
  -15.7595  -40.2454   -7.6480 C   0  0  0  0  0  0  0  0  0  0  0  0
  -16.9553  -39.7232   -8.3566 C   0  0  2  0  0  0  0  0  0  0  0  0
  -16.8478  -38.4010   -8.7681 O   0  0  0  0  0  0  0  0  0  0  0  0
  -18.2309  -39.7862   -7.4920 C   0  0  2  0  0  0  0  0  0  0  0  0
  -18.5885  -38.3879   -7.1882 C   0  0  0  0  0  0  0  0  0  0  0  0
  -19.9347  -38.0176   -6.7624 C   0  0  2  0  0  0  0  0  0  0  0  0
  -20.5932  -38.9169   -5.7362 C   0  0  0  0  0  0  0  0  0  0  0  0
  -20.9263  -37.6237   -7.8273 C   0  0  0  0  0  0  0  0  0  0  0  0
  -21.5836  -38.6806   -8.6029 C   0  0  0  0  0  0  0  0  0  0  0  0
  -23.0487  -38.9098   -8.1995 C   0  0  0  0  0  0  0  0  0  0  0  0
  -23.5697  -40.1961   -8.8117 C   0  0  0  0  0  0  0  0  0  0  0  0
  -24.0173  -41.1701   -7.7880 C   0  0  0  0  0  0  0  0  0  0  0  0
  -23.9003  -42.5581   -8.1868 N   0  0  0  0  0  0  0  0  0  0  0  0
  -24.7045  -42.9617   -9.3283 C   0  0  0  0  0  0  0  0  0  0  0  0
  -23.9511  -43.0813  -10.6000 C   0  0  0  0  0  0  0  0  0  0  0  0
  -23.0665  -43.4867   -7.5351 C   0  0  0  0  0  0  0  0  0  0  0  0
  -23.5437  -44.7028   -7.6484 O   0  0  0  0  0  0  0  0  0  0  0  0
  -21.8075  -43.3302   -6.7779 C   0  0  0  0  0  0  0  0  0  0  0  0
  -21.8625  -44.1544   -5.6243 C   0  0  0  0  0  0  0  0  0  0  0  0
  -20.8525  -44.2270   -4.6965 C   0  0  0  0  0  0  0  0  0  0  0  0
  -19.7742  -43.4385   -4.9662 C   0  0  0  0  0  0  0  0  0  0  0  0
  -19.6524  -42.5893   -6.1014 C   0  0  0  0  0  0  0  0  0  0  0  0
  -20.6928  -42.5515   -7.0063 C   0  0  0  0  0  0  0  0  0  0  0  0
  -18.3570  -41.8870   -6.0427 C   0  0  0  0  0  0  0  0  0  0  0  0
  -17.3209  -42.6106   -5.6214 O   0  0  0  0  0  0  0  0  0  0  0  0
  -17.9013  -40.6028   -6.3220 N   0  0  0  0  0  0  0  0  0  0  0  0
  -20.9459  -45.0465   -3.5850 O   0  0  0  0  0  0  0  0  0  0  0  0
  -22.1827  -45.5474   -3.1639 C   0  0  0  0  0  0  0  0  0  0  0  0
  -22.1529  -46.3637   -1.9105 C   0  0  0  0  0  0  0  0  0  0  0  0
  1  2  1  0
  2  3  1  0
  3  4  1  0
  4  5  1  0
  5  6  1  0
  6  7  2  0
  6  8  1  0
  8  9  1  6
  8 10  1  0
 10 11  1  0
 11 12  1  1
 11 13  1  0
 13 14  1  1
 14 15  1  0
 15 16  1  6
 15 17  1  0
 17 18  1  0
 18 19  1  0
 19 20  1  0
 20 21  1  0
 21 22  1  0
 22 23  1  0
 23 24  1  0
 22 25  1  0
 25 26  2  0
 25 27  1  0
 27 28  2  0
 28 29  1  0
 29 30  2  0
 30 31  1  0
 31 32  2  0
 31 33  1  0
 33 34  2  0
 33 35  1  0
 29 36  1  0
 36 37  1  0
 37 38  1  0
 32 27  1  0
 35 13  1  0
M  END
$$$$
