
     RDKit          3D

 38 39  0  0  0  0  0  0  0  0999 V2000
  -11.8380  -35.9460  -12.6359 C   0  0  0  0  0  0  0  0  0  0  0  0
  -13.1439  -36.6942  -12.4859 C   0  0  0  0  0  0  0  0  0  0  0  0
  -12.8900  -38.2043  -12.4134 C   0  0  0  0  0  0  0  0  0  0  0  0
  -13.1906  -38.6149  -10.9990 C   0  0  0  0  0  0  0  0  0  0  0  0
  -13.4885  -40.0023  -10.8403 N   0  0  0  0  0  0  0  0  0  0  0  0
  -14.7895  -40.5438  -10.6991 C   0  0  0  0  0  0  0  0  0  0  0  0
  -15.6056  -40.3687  -11.6320 O   0  0  0  0  0  0  0  0  0  0  0  0
  -15.2261  -41.3036   -9.5057 C   0  0  2  0  0  0  0  0  0  0  0  0
  -14.9379  -42.7483   -9.7120 C   0  0  0  0  0  0  0  0  0  0  0  0
  -16.7240  -41.0294   -9.3107 C   0  0  0  0  0  0  0  0  0  0  0  0
  -16.9608  -39.6290   -8.8775 C   0  0  2  0  0  0  0  0  0  0  0  0
  -15.9163  -39.0665   -8.1551 O   0  0  0  0  0  0  0  0  0  0  0  0
  -18.2078  -39.4890   -7.9810 C   0  0  2  0  0  0  0  0  0  0  0  0
  -18.5841  -38.0634   -8.0234 C   0  0  0  0  0  0  0  0  0  0  0  0
  -19.9239  -37.6145   -7.6572 C   0  0  2  0  0  0  0  0  0  0  0  0
  -20.5325  -38.2364   -6.4169 C   0  0  0  0  0  0  0  0  0  0  0  0
  -20.9552  -37.5112   -8.7518 C   0  0  0  0  0  0  0  0  0  0  0  0
  -21.6144  -38.7362   -9.2159 C   0  0  0  0  0  0  0  0  0  0  0  0
  -23.0616  -38.8747   -8.7177 C   0  0  0  0  0  0  0  0  0  0  0  0
  -23.5751  -40.2792   -8.9713 C   0  0  0  0  0  0  0  0  0  0  0  0
  -23.9715  -40.9716   -7.7220 C   0  0  0  0  0  0  0  0  0  0  0  0
  -23.8388  -42.4138   -7.7658 N   0  0  0  0  0  0  0  0  0  0  0  0
  -24.6691  -43.0995   -8.7419 C   0  0  0  0  0  0  0  0  0  0  0  0
  -23.9283  -43.6440   -9.9054 C   0  0  0  0  0  0  0  0  0  0  0  0
  -22.9670  -43.1399   -6.9323 C   0  0  0  0  0  0  0  0  0  0  0  0
  -23.4228  -44.3513   -6.7220 O   0  0  0  0  0  0  0  0  0  0  0  0
  -21.6888  -42.7842   -6.2820 C   0  0  0  0  0  0  0  0  0  0  0  0
  -21.6919  -43.2943   -4.9581 C   0  0  0  0  0  0  0  0  0  0  0  0
  -20.6529  -43.1207   -4.0770 C   0  0  0  0  0  0  0  0  0  0  0  0
  -19.5994  -42.4118   -4.5720 C   0  0  0  0  0  0  0  0  0  0  0  0
  -19.5294  -41.8721   -5.8867 C   0  0  0  0  0  0  0  0  0  0  0  0
  -20.5975  -42.0741   -6.7358 C   0  0  0  0  0  0  0  0  0  0  0  0
  -18.2473  -41.1620   -6.0499 C   0  0  0  0  0  0  0  0  0  0  0  0
  -17.1844  -41.7449   -5.4975 O   0  0  0  0  0  0  0  0  0  0  0  0
  -17.8263  -39.9831   -6.6564 N   0  0  0  0  0  0  0  0  0  0  0  0
  -20.6958  -43.6373   -2.7937 O   0  0  0  0  0  0  0  0  0  0  0  0
  -21.5405  -43.0844   -1.8248 C   0  0  0  0  0  0  0  0  0  0  0  0
  -21.4960  -43.7423   -0.4818 C   0  0  0  0  0  0  0  0  0  0  0  0
  1  2  1  0
  2  3  1  0
  3  4  1  0
  4  5  1  0
  5  6  1  0
  6  7  2  0
  6  8  1  0
  8  9  1  6
  8 10  1  0
 10 11  1  0
 11 12  1  1
 11 13  1  0
 13 14  1  1
 14 15  1  0
 15 16  1  1
 15 17  1  0
 17 18  1  0
 18 19  1  0
 19 20  1  0
 20 21  1  0
 21 22  1  0
 22 23  1  0
 23 24  1  0
 22 25  1  0
 25 26  2  0
 25 27  1  0
 27 28  2  0
 28 29  1  0
 29 30  2  0
 30 31  1  0
 31 32  2  0
 31 33  1  0
 33 34  2  0
 33 35  1  0
 29 36  1  0
 36 37  1  0
 37 38  1  0
 32 27  1  0
 35 13  1  0
M  END
$$$$
