
     RDKit          3D

 38 39  0  0  0  0  0  0  0  0999 V2000
  -12.3184  -35.6442  -11.9234 C   0  0  0  0  0  0  0  0  0  0  0  0
  -12.5626  -36.5322  -13.1233 C   0  0  0  0  0  0  0  0  0  0  0  0
  -13.6697  -37.5483  -12.8203 C   0  0  0  0  0  0  0  0  0  0  0  0
  -13.4027  -38.0617  -11.4329 C   0  0  0  0  0  0  0  0  0  0  0  0
  -13.3076  -39.4833  -11.3403 N   0  0  0  0  0  0  0  0  0  0  0  0
  -14.4080  -40.3652  -11.2085 C   0  0  0  0  0  0  0  0  0  0  0  0
  -15.2019  -40.4655  -12.1711 O   0  0  0  0  0  0  0  0  0  0  0  0
  -14.6608  -41.1696   -9.9915 C   0  0  2  0  0  0  0  0  0  0  0  0
  -14.1953  -42.5638  -10.2201 C   0  0  0  0  0  0  0  0  0  0  0  0
  -16.1663  -41.0974   -9.6992 C   0  0  0  0  0  0  0  0  0  0  0  0
  -16.6423  -39.6911   -9.6822 C   0  0  2  0  0  0  0  0  0  0  0  0
  -15.6497  -38.7512   -9.4363 O   0  0  0  0  0  0  0  0  0  0  0  0
  -17.7224  -39.4441   -8.6093 C   0  0  2  0  0  0  0  0  0  0  0  0
  -17.8670  -37.9801   -8.5040 C   0  0  0  0  0  0  0  0  0  0  0  0
  -19.0576  -37.3688   -7.9213 C   0  0  2  0  0  0  0  0  0  0  0  0
  -19.5904  -37.9980   -6.6502 C   0  0  0  0  0  0  0  0  0  0  0  0
  -20.1934  -37.0170   -8.8480 C   0  0  0  0  0  0  0  0  0  0  0  0
  -21.0958  -38.0840   -9.2924 C   0  0  0  0  0  0  0  0  0  0  0  0
  -22.4686  -38.0466   -8.6024 C   0  0  0  0  0  0  0  0  0  0  0  0
  -23.2297  -39.3308   -8.8715 C   0  0  0  0  0  0  0  0  0  0  0  0
  -23.5651  -40.0620   -7.6264 C   0  0  0  0  0  0  0  0  0  0  0  0
  -23.6726  -41.4984   -7.7832 N   0  0  0  0  0  0  0  0  0  0  0  0
  -24.7230  -41.9641   -8.6734 C   0  0  0  0  0  0  0  0  0  0  0  0
  -24.8121  -43.4388   -8.8010 C   0  0  0  0  0  0  0  0  0  0  0  0
  -22.8272  -42.4169   -7.1323 C   0  0  0  0  0  0  0  0  0  0  0  0
  -23.4402  -43.5599   -6.9389 O   0  0  0  0  0  0  0  0  0  0  0  0
  -21.4345  -42.3150   -6.6497 C   0  0  0  0  0  0  0  0  0  0  0  0
  -21.3460  -42.9323   -5.3752 C   0  0  0  0  0  0  0  0  0  0  0  0
  -20.1862  -42.9939   -4.6423 C   0  0  0  0  0  0  0  0  0  0  0  0
  -19.1066  -42.4107   -5.2354 C   0  0  0  0  0  0  0  0  0  0  0  0
  -19.1237  -41.7752   -6.5083 C   0  0  0  0  0  0  0  0  0  0  0  0
  -20.3123  -41.7399   -7.2073 C   0  0  0  0  0  0  0  0  0  0  0  0
  -17.7767  -41.2540   -6.8063 C   0  0  0  0  0  0  0  0  0  0  0  0
  -16.7582  -42.0357   -6.4510 O   0  0  0  0  0  0  0  0  0  0  0  0
  -17.2550  -40.1033   -7.3882 N   0  0  0  0  0  0  0  0  0  0  0  0
  -20.1430  -43.6080   -3.4027 O   0  0  0  0  0  0  0  0  0  0  0  0
  -20.8716  -43.0976   -2.3226 C   0  0  0  0  0  0  0  0  0  0  0  0
  -20.9704  -43.9970   -1.1311 C   0  0  0  0  0  0  0  0  0  0  0  0
  1  2  1  0
  2  3  1  0
  3  4  1  0
  4  5  1  0
  5  6  1  0
  6  7  2  0
  6  8  1  0
  8  9  1  6
  8 10  1  0
 10 11  1  0
 11 12  1  1
 11 13  1  0
 13 14  1  1
 14 15  1  0
 15 16  1  1
 15 17  1  0
 17 18  1  0
 18 19  1  0
 19 20  1  0
 20 21  1  0
 21 22  1  0
 22 23  1  0
 23 24  1  0
 22 25  1  0
 25 26  2  0
 25 27  1  0
 27 28  2  0
 28 29  1  0
 29 30  2  0
 30 31  1  0
 31 32  2  0
 31 33  1  0
 33 34  2  0
 33 35  1  0
 29 36  1  0
 36 37  1  0
 37 38  1  0
 32 27  1  0
 35 13  1  0
M  END
$$$$
