
     RDKit          3D

 38 39  0  0  0  0  0  0  0  0999 V2000
  -16.1253  -35.8267  -11.6718 C   0  0  0  0  0  0  0  0  0  0  0  0
  -14.6429  -35.9870  -11.9262 C   0  0  0  0  0  0  0  0  0  0  0  0
  -14.3336  -37.4088  -12.4085 C   0  0  0  0  0  0  0  0  0  0  0  0
  -13.5166  -38.0536  -11.3239 C   0  0  0  0  0  0  0  0  0  0  0  0
  -13.9038  -39.3924  -11.0134 N   0  0  0  0  0  0  0  0  0  0  0  0
  -14.8220  -39.7591   -9.9993 C   0  0  0  0  0  0  0  0  0  0  0  0
  -15.9436  -40.1920  -10.3478 O   0  0  0  0  0  0  0  0  0  0  0  0
  -14.5178  -39.6548   -8.5541 C   0  0  2  0  0  0  0  0  0  0  0  0
  -13.4701  -40.6499   -8.2007 C   0  0  0  0  0  0  0  0  0  0  0  0
  -15.8290  -39.8921   -7.7916 C   0  0  0  0  0  0  0  0  0  0  0  0
  -17.0046  -39.5146   -8.6163 C   0  0  2  0  0  0  0  0  0  0  0  0
  -16.9129  -38.2613   -9.2081 O   0  0  0  0  0  0  0  0  0  0  0  0
  -18.3160  -39.4951   -7.8047 C   0  0  2  0  0  0  0  0  0  0  0  0
  -18.9475  -38.1907   -8.0791 C   0  0  0  0  0  0  0  0  0  0  0  0
  -20.3699  -37.9643   -7.8421 C   0  0  2  0  0  0  0  0  0  0  0  0
  -20.9378  -38.5116   -6.5485 C   0  0  0  0  0  0  0  0  0  0  0  0
  -21.3227  -38.2194   -8.9821 C   0  0  0  0  0  0  0  0  0  0  0  0
  -21.7075  -39.6023   -9.2820 C   0  0  0  0  0  0  0  0  0  0  0  0
  -23.1350  -39.9484   -8.8299 C   0  0  0  0  0  0  0  0  0  0  0  0
  -23.3584  -41.4475   -8.8885 C   0  0  0  0  0  0  0  0  0  0  0  0
  -23.7058  -42.0206   -7.5663 C   0  0  0  0  0  0  0  0  0  0  0  0
  -23.3038  -43.4007   -7.3847 N   0  0  0  0  0  0  0  0  0  0  0  0
  -23.9208  -44.3658   -8.2794 C   0  0  0  0  0  0  0  0  0  0  0  0
  -25.2841  -43.9996   -8.7335 C   0  0  0  0  0  0  0  0  0  0  0  0
  -22.3728  -43.8181   -6.4146 C   0  0  0  0  0  0  0  0  0  0  0  0
  -22.6084  -45.0531   -6.0420 O   0  0  0  0  0  0  0  0  0  0  0  0
  -21.2325  -43.1321   -5.7728 C   0  0  0  0  0  0  0  0  0  0  0  0
  -21.2337  -43.4411   -4.3880 C   0  0  0  0  0  0  0  0  0  0  0  0
  -20.3099  -42.9458   -3.5006 C   0  0  0  0  0  0  0  0  0  0  0  0
  -19.3748  -42.1223   -4.0528 C   0  0  0  0  0  0  0  0  0  0  0  0
  -19.3143  -41.7702   -5.4301 C   0  0  0  0  0  0  0  0  0  0  0  0
  -20.2634  -42.2942   -6.2829 C   0  0  0  0  0  0  0  0  0  0  0  0
  -18.1787  -40.8542   -5.6452 C   0  0  0  0  0  0  0  0  0  0  0  0
  -17.0675  -41.1351   -4.9664 O   0  0  0  0  0  0  0  0  0  0  0  0
  -17.9433  -39.7135   -6.4055 N   0  0  0  0  0  0  0  0  0  0  0  0
  -20.3460  -43.2745   -2.1566 O   0  0  0  0  0  0  0  0  0  0  0  0
  -21.4136  -42.8710   -1.3470 C   0  0  0  0  0  0  0  0  0  0  0  0
  -21.2747  -43.1919    0.1077 C   0  0  0  0  0  0  0  0  0  0  0  0
  1  2  1  0
  2  3  1  0
  3  4  1  0
  4  5  1  0
  5  6  1  0
  6  7  2  0
  6  8  1  0
  8  9  1  1
  8 10  1  0
 10 11  1  0
 11 12  1  1
 11 13  1  0
 13 14  1  1
 14 15  1  0
 15 16  1  1
 15 17  1  0
 17 18  1  0
 18 19  1  0
 19 20  1  0
 20 21  1  0
 21 22  1  0
 22 23  1  0
 23 24  1  0
 22 25  1  0
 25 26  2  0
 25 27  1  0
 27 28  2  0
 28 29  1  0
 29 30  2  0
 30 31  1  0
 31 32  2  0
 31 33  1  0
 33 34  2  0
 33 35  1  0
 29 36  1  0
 36 37  1  0
 37 38  1  0
 32 27  1  0
 35 13  1  0
M  END
$$$$
