
     RDKit          3D

 38 39  0  0  0  0  0  0  0  0999 V2000
  -19.9033  -38.8247  -13.6447 C   0  0  0  0  0  0  0  0  0  0  0  0
  -18.7175  -39.5088  -13.0014 C   0  0  0  0  0  0  0  0  0  0  0  0
  -17.4191  -38.7758  -13.3575 C   0  0  0  0  0  0  0  0  0  0  0  0
  -16.3256  -39.4529  -12.5794 C   0  0  0  0  0  0  0  0  0  0  0  0
  -15.8693  -38.7167  -11.4442 N   0  0  0  0  0  0  0  0  0  0  0  0
  -15.3840  -39.2909  -10.2439 C   0  0  0  0  0  0  0  0  0  0  0  0
  -15.2315  -40.5327  -10.2038 O   0  0  0  0  0  0  0  0  0  0  0  0
  -15.0502  -38.4943   -9.0414 C   0  0  2  0  0  0  0  0  0  0  0  0
  -13.6206  -38.0879   -9.1039 C   0  0  0  0  0  0  0  0  0  0  0  0
  -15.3563  -39.3658   -7.8151 C   0  0  0  0  0  0  0  0  0  0  0  0
  -16.6179  -38.9415   -7.1571 C   0  0  2  0  0  0  0  0  0  0  0  0
  -16.4420  -38.2867   -5.9449 O   0  0  0  0  0  0  0  0  0  0  0  0
  -17.5567  -40.1274   -6.8556 C   0  0  2  0  0  0  0  0  0  0  0  0
  -18.0182  -39.9410   -5.4672 C   0  0  0  0  0  0  0  0  0  0  0  0
  -19.2192  -40.6013   -4.9649 C   0  0  2  0  0  0  0  0  0  0  0  0
  -19.4005  -42.0577   -5.3411 C   0  0  0  0  0  0  0  0  0  0  0  0
  -20.5286  -39.8633   -5.0802 C   0  0  0  0  0  0  0  0  0  0  0  0
  -21.2156  -39.8464   -6.3757 C   0  0  0  0  0  0  0  0  0  0  0  0
  -22.4437  -40.7691   -6.4252 C   0  0  0  0  0  0  0  0  0  0  0  0
  -22.9190  -40.9388   -7.8556 C   0  0  0  0  0  0  0  0  0  0  0  0
  -22.8906  -42.3533   -8.2979 C   0  0  0  0  0  0  0  0  0  0  0  0
  -22.6856  -42.5344   -9.7207 N   0  0  0  0  0  0  0  0  0  0  0  0
  -23.7189  -41.9907  -10.5864 C   0  0  0  0  0  0  0  0  0  0  0  0
  -23.5691  -40.5473  -10.8914 C   0  0  0  0  0  0  0  0  0  0  0  0
  -21.5652  -43.1881  -10.2678 C   0  0  0  0  0  0  0  0  0  0  0  0
  -21.8628  -43.7405  -11.4192 O   0  0  0  0  0  0  0  0  0  0  0  0
  -20.1783  -43.3530   -9.7857 C   0  0  0  0  0  0  0  0  0  0  0  0
  -19.7641  -44.6874  -10.0323 C   0  0  0  0  0  0  0  0  0  0  0  0
  -18.5270  -45.1728   -9.6861 C   0  0  0  0  0  0  0  0  0  0  0  0
  -17.7098  -44.2668   -9.0787 C   0  0  0  0  0  0  0  0  0  0  0  0
  -18.0593  -42.9158   -8.8009 C   0  0  0  0  0  0  0  0  0  0  0  0
  -19.3131  -42.4742   -9.1689 C   0  0  0  0  0  0  0  0  0  0  0  0
  -16.9274  -42.2527   -8.1271 C   0  0  0  0  0  0  0  0  0  0  0  0
  -15.7153  -42.5601   -8.5863 O   0  0  0  0  0  0  0  0  0  0  0  0
  -16.7762  -41.3452   -7.0838 N   0  0  0  0  0  0  0  0  0  0  0  0
  -18.1622  -46.4821   -9.9470 O   0  0  0  0  0  0  0  0  0  0  0  0
  -18.3450  -47.0390  -11.2176 C   0  0  0  0  0  0  0  0  0  0  0  0
  -19.4594  -48.0307  -11.3309 C   0  0  0  0  0  0  0  0  0  0  0  0
  1  2  1  0
  2  3  1  0
  3  4  1  0
  4  5  1  0
  5  6  1  0
  6  7  2  0
  6  8  1  0
  8  9  1  6
  8 10  1  0
 10 11  1  0
 11 12  1  1
 11 13  1  0
 13 14  1  1
 14 15  1  0
 15 16  1  6
 15 17  1  0
 17 18  1  0
 18 19  1  0
 19 20  1  0
 20 21  1  0
 21 22  1  0
 22 23  1  0
 23 24  1  0
 22 25  1  0
 25 26  2  0
 25 27  1  0
 27 28  2  0
 28 29  1  0
 29 30  2  0
 30 31  1  0
 31 32  2  0
 31 33  1  0
 33 34  2  0
 33 35  1  0
 29 36  1  0
 36 37  1  0
 37 38  1  0
 32 27  1  0
 35 13  1  0
M  END
$$$$
