
     RDKit          3D

 38 39  0  0  0  0  0  0  0  0999 V2000
  -12.8394  -36.2758  -13.5926 C   0  0  0  0  0  0  0  0  0  0  0  0
  -13.2546  -35.5868  -12.3117 C   0  0  0  0  0  0  0  0  0  0  0  0
  -13.9146  -36.5871  -11.3558 C   0  0  0  0  0  0  0  0  0  0  0  0
  -14.0768  -37.8656  -12.1296 C   0  0  0  0  0  0  0  0  0  0  0  0
  -13.7393  -39.0435  -11.3964 N   0  0  0  0  0  0  0  0  0  0  0  0
  -14.4895  -39.5733  -10.3183 C   0  0  0  0  0  0  0  0  0  0  0  0
  -15.6449  -39.9934  -10.5541 O   0  0  0  0  0  0  0  0  0  0  0  0
  -13.9727  -39.6531   -8.9332 C   0  0  2  0  0  0  0  0  0  0  0  0
  -12.7446  -40.4922   -8.9158 C   0  0  0  0  0  0  0  0  0  0  0  0
  -15.0917  -40.2380   -8.0597 C   0  0  0  0  0  0  0  0  0  0  0  0
  -16.3165  -39.4013   -8.1261 C   0  0  2  0  0  0  0  0  0  0  0  0
  -16.1654  -38.1194   -7.6132 O   0  0  0  0  0  0  0  0  0  0  0  0
  -17.4994  -40.0203   -7.3539 C   0  0  2  0  0  0  0  0  0  0  0  0
  -17.8768  -39.0338   -6.3244 C   0  0  0  0  0  0  0  0  0  0  0  0
  -19.1882  -39.0600   -5.6839 C   0  0  2  0  0  0  0  0  0  0  0  0
  -19.7112  -40.4184   -5.2638 C   0  0  0  0  0  0  0  0  0  0  0  0
  -20.2918  -38.2430   -6.3062 C   0  0  0  0  0  0  0  0  0  0  0  0
  -20.9819  -38.7746   -7.4860 C   0  0  0  0  0  0  0  0  0  0  0  0
  -22.3918  -39.3037   -7.1792 C   0  0  0  0  0  0  0  0  0  0  0  0
  -22.9222  -40.1042   -8.3534 C   0  0  0  0  0  0  0  0  0  0  0  0
  -23.2329  -41.5069   -7.9885 C   0  0  0  0  0  0  0  0  0  0  0  0
  -23.1043  -42.4540   -9.0775 N   0  0  0  0  0  0  0  0  0  0  0  0
  -23.9997  -42.2526  -10.2045 C   0  0  0  0  0  0  0  0  0  0  0  0
  -25.3988  -42.6803   -9.9627 C   0  0  0  0  0  0  0  0  0  0  0  0
  -22.1781  -43.5143   -9.0804 C   0  0  0  0  0  0  0  0  0  0  0  0
  -22.6192  -44.5178   -9.8000 O   0  0  0  0  0  0  0  0  0  0  0  0
  -20.8583  -43.6817   -8.4376 C   0  0  0  0  0  0  0  0  0  0  0  0
  -20.7713  -44.9948   -7.9073 C   0  0  0  0  0  0  0  0  0  0  0  0
  -19.6745  -45.4665   -7.2287 C   0  0  0  0  0  0  0  0  0  0  0  0
  -18.6568  -44.5695   -7.0983 C   0  0  0  0  0  0  0  0  0  0  0  0
  -18.6764  -43.2396   -7.6038 C   0  0  0  0  0  0  0  0  0  0  0  0
  -19.8001  -42.8119   -8.2799 C   0  0  0  0  0  0  0  0  0  0  0  0
  -17.4080  -42.5721   -7.2570 C   0  0  0  0  0  0  0  0  0  0  0  0
  -16.3102  -43.3203   -7.3560 O   0  0  0  0  0  0  0  0  0  0  0  0
  -17.0287  -41.3039   -6.8296 N   0  0  0  0  0  0  0  0  0  0  0  0
  -19.6300  -46.7564   -6.7289 O   0  0  0  0  0  0  0  0  0  0  0  0
  -20.7609  -47.3411   -6.1482 C   0  0  0  0  0  0  0  0  0  0  0  0
  -20.5788  -47.8450   -4.7513 C   0  0  0  0  0  0  0  0  0  0  0  0
  1  2  1  0
  2  3  1  0
  3  4  1  0
  4  5  1  0
  5  6  1  0
  6  7  2  0
  6  8  1  0
  8  9  1  6
  8 10  1  0
 10 11  1  0
 11 12  1  1
 11 13  1  0
 13 14  1  1
 14 15  1  0
 15 16  1  6
 15 17  1  0
 17 18  1  0
 18 19  1  0
 19 20  1  0
 20 21  1  0
 21 22  1  0
 22 23  1  0
 23 24  1  0
 22 25  1  0
 25 26  2  0
 25 27  1  0
 27 28  2  0
 28 29  1  0
 29 30  2  0
 30 31  1  0
 31 32  2  0
 31 33  1  0
 33 34  2  0
 33 35  1  0
 29 36  1  0
 36 37  1  0
 37 38  1  0
 32 27  1  0
 35 13  1  0
M  END
$$$$
