
     RDKit          3D

 38 39  0  0  0  0  0  0  0  0999 V2000
  -12.6375  -35.1576  -13.7074 C   0  0  0  0  0  0  0  0  0  0  0  0
  -13.4136  -36.0890  -12.8030 C   0  0  0  0  0  0  0  0  0  0  0  0
  -14.9175  -35.8142  -12.9158 C   0  0  0  0  0  0  0  0  0  0  0  0
  -15.6046  -36.9052  -12.1431 C   0  0  0  0  0  0  0  0  0  0  0  0
  -15.1433  -37.0545  -10.8001 N   0  0  0  0  0  0  0  0  0  0  0  0
  -14.3893  -38.1516  -10.3163 C   0  0  0  0  0  0  0  0  0  0  0  0
  -13.9825  -38.9982  -11.1437 O   0  0  0  0  0  0  0  0  0  0  0  0
  -14.0619  -38.3417   -8.8849 C   0  0  2  0  0  0  0  0  0  0  0  0
  -12.6424  -37.9625   -8.6524 C   0  0  0  0  0  0  0  0  0  0  0  0
  -14.3363  -39.8132   -8.5438 C   0  0  0  0  0  0  0  0  0  0  0  0
  -15.4644  -39.9403   -7.5867 C   0  0  2  0  0  0  0  0  0  0  0  0
  -15.1145  -40.4759   -6.3538 O   0  0  0  0  0  0  0  0  0  0  0  0
  -16.5977  -40.8386   -8.1226 C   0  0  2  0  0  0  0  0  0  0  0  0
  -16.1413  -42.2285   -7.9351 C   0  0  0  0  0  0  0  0  0  0  0  0
  -17.0792  -43.3470   -7.9247 C   0  0  2  0  0  0  0  0  0  0  0  0
  -18.1620  -43.3345   -8.9843 C   0  0  0  0  0  0  0  0  0  0  0  0
  -17.6504  -43.7741   -6.5966 C   0  0  0  0  0  0  0  0  0  0  0  0
  -18.7491  -42.9932   -6.0189 C   0  0  0  0  0  0  0  0  0  0  0  0
  -20.1142  -43.6907   -6.1279 C   0  0  0  0  0  0  0  0  0  0  0  0
  -21.2312  -42.7192   -5.7975 C   0  0  0  0  0  0  0  0  0  0  0  0
  -22.1788  -42.5412   -6.9235 C   0  0  0  0  0  0  0  0  0  0  0  0
  -22.8268  -41.2460   -6.9649 N   0  0  0  0  0  0  0  0  0  0  0  0
  -23.6759  -40.9231   -5.8303 C   0  0  0  0  0  0  0  0  0  0  0  0
  -23.0871  -39.9502   -4.8786 C   0  0  0  0  0  0  0  0  0  0  0  0
  -22.6647  -40.3290   -8.0208 C   0  0  0  0  0  0  0  0  0  0  0  0
  -23.7258  -39.5689   -8.1464 O   0  0  0  0  0  0  0  0  0  0  0  0
  -21.5564  -40.0919   -8.9687 C   0  0  0  0  0  0  0  0  0  0  0  0
  -22.0987  -39.8817  -10.2628 C   0  0  0  0  0  0  0  0  0  0  0  0
  -21.3307  -39.6497  -11.3774 C   0  0  0  0  0  0  0  0  0  0  0  0
  -19.9871  -39.6347  -11.1497 C   0  0  0  0  0  0  0  0  0  0  0  0
  -19.3759  -39.8377   -9.8808 C   0  0  0  0  0  0  0  0  0  0  0  0
  -20.1894  -40.0656   -8.7905 C   0  0  0  0  0  0  0  0  0  0  0  0
  -17.9109  -39.7633  -10.0328 C   0  0  0  0  0  0  0  0  0  0  0  0
  -17.4585  -38.8242  -10.8622 O   0  0  0  0  0  0  0  0  0  0  0  0
  -16.8153  -40.4476   -9.5169 N   0  0  0  0  0  0  0  0  0  0  0  0
  -21.9009  -39.4474  -12.6222 O   0  0  0  0  0  0  0  0  0  0  0  0
  -22.0459  -38.1575  -13.1447 C   0  0  0  0  0  0  0  0  0  0  0  0
  -22.5077  -38.0874  -14.5660 C   0  0  0  0  0  0  0  0  0  0  0  0
  1  2  1  0
  2  3  1  0
  3  4  1  0
  4  5  1  0
  5  6  1  0
  6  7  2  0
  6  8  1  0
  8  9  1  6
  8 10  1  0
 10 11  1  0
 11 12  1  1
 11 13  1  0
 13 14  1  6
 14 15  1  0
 15 16  1  6
 15 17  1  0
 17 18  1  0
 18 19  1  0
 19 20  1  0
 20 21  1  0
 21 22  1  0
 22 23  1  0
 23 24  1  0
 22 25  1  0
 25 26  2  0
 25 27  1  0
 27 28  2  0
 28 29  1  0
 29 30  2  0
 30 31  1  0
 31 32  2  0
 31 33  1  0
 33 34  2  0
 33 35  1  0
 29 36  1  0
 36 37  1  0
 37 38  1  0
 32 27  1  0
 35 13  1  0
M  END
$$$$
