
     RDKit          3D

 37 39  0  0  0  0  0  0  0  0999 V2000
  -20.8056  -37.8608   -6.3092 C   0  0  0  0  0  0  0  0  0  0  0  0
  -19.9114  -39.0817   -6.1546 C   0  0  2  0  0  0  0  0  0  0  0  0
  -20.1433  -39.5969   -4.7521 C   0  0  0  0  0  0  0  0  0  0  0  0
  -21.3513  -40.4766   -4.6695 C   0  0  0  0  0  0  0  0  0  0  0  0
  -21.7530  -40.8071   -5.9336 O   0  0  0  0  0  0  0  0  0  0  0  0
  -23.1127  -40.9970   -6.0705 C   0  0  0  0  0  0  0  0  0  0  0  0
  -23.4436  -42.4016   -5.6220 C   0  0  0  0  0  0  0  0  0  0  0  0
  -22.4468  -43.3769   -6.1493 C   0  0  0  0  0  0  0  0  0  0  0  0
  -22.3697  -43.3933   -7.6740 C   0  0  0  0  0  0  0  0  0  0  0  0
  -21.1522  -44.1216   -7.9847 N   0  0  0  0  0  0  0  0  0  0  0  0
  -19.8111  -43.6799   -8.1954 C   0  0  0  0  0  0  0  0  0  0  0  0
  -19.0573  -42.7164   -7.5541 C   0  0  0  0  0  0  0  0  0  0  0  0
  -17.7716  -42.4944   -8.0085 C   0  0  0  0  0  0  0  0  0  0  0  0
  -17.2768  -43.2557   -9.1006 C   0  0  0  0  0  0  0  0  0  0  0  0
  -17.9953  -44.2145   -9.7523 C   0  0  0  0  0  0  0  0  0  0  0  0
  -19.2678  -44.4135   -9.2821 C   0  0  0  0  0  0  0  0  0  0  0  0
  -20.1821  -45.6914  -10.1168 Cl  0  0  0  0  0  0  0  0  0  0  0  0
  -16.7320  -41.5546   -7.5764 C   0  0  0  0  0  0  0  0  0  0  0  0
  -15.4969  -41.9919   -7.5523 O   0  0  0  0  0  0  0  0  0  0  0  0
  -16.7583  -40.2110   -7.1597 N   0  0  0  0  0  0  0  0  0  0  0  0
  -17.8114  -39.2615   -7.5589 C   0  0  1  0  0  0  0  0  0  0  0  0
  -18.4544  -38.7290   -6.3241 C   0  0  0  0  0  0  0  0  0  0  0  0
  -17.1968  -38.2259   -8.4457 C   0  0  2  0  0  0  0  0  0  0  0  0
  -18.2174  -37.6140   -9.1701 O   0  0  0  0  0  0  0  0  0  0  0  0
  -16.2060  -38.7627   -9.4328 C   0  0  0  0  0  0  0  0  0  0  0  0
  -14.9606  -39.1567   -8.8144 N   0  0  0  0  0  0  0  0  0  0  0  0
  -14.1309  -39.9677   -9.6648 C   0  0  0  0  0  0  0  0  0  0  0  0
  -13.8468  -39.3265  -10.9741 C   0  0  0  0  0  0  0  0  0  0  0  0
  -13.5366  -37.9845  -11.0054 C   0  0  0  0  0  0  0  0  0  0  0  0
  -13.2584  -37.2966  -12.1548 C   0  0  0  0  0  0  0  0  0  0  0  0
  -13.2893  -37.9810  -13.3495 C   0  0  0  0  0  0  0  0  0  0  0  0
  -13.6017  -39.3358  -13.3247 C   0  0  0  0  0  0  0  0  0  0  0  0
  -13.8708  -39.9729  -12.1511 N   0  0  0  0  0  0  0  0  0  0  0  0
  -12.9219  -35.8530  -12.2092 C   0  0  0  0  0  0  0  0  0  0  0  0
  -14.1430  -35.0057  -12.4992 C   0  0  0  0  0  0  0  0  0  0  0  0
  -11.8923  -35.5509  -13.2744 C   0  0  0  0  0  0  0  0  0  0  0  0
  -12.3417  -35.3750  -10.8850 C   0  0  0  0  0  0  0  0  0  0  0  0
  2  1  1  1
  2  3  1  0
  3  4  1  0
  4  5  1  0
  5  6  1  0
  6  7  1  0
  7  8  1  0
  8  9  1  0
  9 10  1  0
 10 11  1  0
 11 12  1  0
 12 13  2  0
 13 14  1  0
 14 15  2  0
 15 16  1  0
 16 17  1  0
 13 18  1  0
 18 19  2  0
 18 20  1  0
 20 21  1  0
 21 22  1  1
 21 23  1  0
 23 24  1  6
 23 25  1  0
 25 26  1  0
 26 27  1  0
 27 28  1  0
 28 29  2  0
 29 30  1  0
 30 31  2  0
 31 32  1  0
 32 33  2  0
 30 34  1  0
 34 35  1  0
 34 36  1  0
 34 37  1  0
 16 11  2  0
 22  2  1  0
 33 28  1  0
M  END
$$$$
