
     RDKit          3D

 37 39  0  0  0  0  0  0  0  0999 V2000
  -12.5804  -38.8643   -9.1117 C   0  0  0  0  0  0  0  0  0  0  0  0
  -13.7549  -37.9128   -9.2833 C   0  0  2  0  0  0  0  0  0  0  0  0
  -13.1583  -36.5304   -9.4222 C   0  0  0  0  0  0  0  0  0  0  0  0
  -12.7263  -36.2436  -10.8261 C   0  0  0  0  0  0  0  0  0  0  0  0
  -13.2467  -37.1947  -11.6588 O   0  0  0  0  0  0  0  0  0  0  0  0
  -12.4638  -37.4830  -12.7577 C   0  0  0  0  0  0  0  0  0  0  0  0
  -12.7312  -36.4401  -13.8181 C   0  0  0  0  0  0  0  0  0  0  0  0
  -14.1912  -36.1602  -13.9325 C   0  0  0  0  0  0  0  0  0  0  0  0
  -15.0140  -37.3949  -14.2920 C   0  0  0  0  0  0  0  0  0  0  0  0
  -16.3929  -37.0215  -14.0304 N   0  0  0  0  0  0  0  0  0  0  0  0
  -17.2068  -37.1566  -12.8653 C   0  0  0  0  0  0  0  0  0  0  0  0
  -16.9175  -36.9818  -11.5260 C   0  0  0  0  0  0  0  0  0  0  0  0
  -17.9272  -37.2136  -10.6119 C   0  0  0  0  0  0  0  0  0  0  0  0
  -19.2086  -37.6143  -11.0750 C   0  0  0  0  0  0  0  0  0  0  0  0
  -19.5253  -37.7930  -12.3895 C   0  0  0  0  0  0  0  0  0  0  0  0
  -18.5051  -37.5576  -13.2749 C   0  0  0  0  0  0  0  0  0  0  0  0
  -18.9404  -37.7591  -14.9882 Cl  0  0  0  0  0  0  0  0  0  0  0  0
  -17.9539  -37.1411   -9.1474 C   0  0  0  0  0  0  0  0  0  0  0  0
  -19.0285  -36.6409   -8.5885 O   0  0  0  0  0  0  0  0  0  0  0  0
  -17.0370  -37.5097   -8.1460 N   0  0  0  0  0  0  0  0  0  0  0  0
  -16.0132  -38.5525   -8.3318 C   0  0  1  0  0  0  0  0  0  0  0  0
  -14.6748  -37.9435   -8.0879 C   0  0  0  0  0  0  0  0  0  0  0  0
  -16.3521  -39.7056   -7.4417 C   0  0  2  0  0  0  0  0  0  0  0  0
  -15.3657  -40.6773   -7.5960 O   0  0  0  0  0  0  0  0  0  0  0  0
  -17.6697  -40.3532   -7.7393 C   0  0  0  0  0  0  0  0  0  0  0  0
  -18.7596  -39.4049   -7.7830 N   0  0  0  0  0  0  0  0  0  0  0  0
  -19.1473  -38.9186   -6.4859 C   0  0  0  0  0  0  0  0  0  0  0  0
  -20.5808  -39.1633   -6.1835 C   0  0  0  0  0  0  0  0  0  0  0  0
  -20.9080  -40.0057   -5.1435 C   0  0  0  0  0  0  0  0  0  0  0  0
  -22.1939  -40.2992   -4.7806 C   0  0  0  0  0  0  0  0  0  0  0  0
  -23.2218  -39.7220   -5.4928 C   0  0  0  0  0  0  0  0  0  0  0  0
  -22.8981  -38.8708   -6.5437 C   0  0  0  0  0  0  0  0  0  0  0  0
  -21.5994  -38.6123   -6.8634 N   0  0  0  0  0  0  0  0  0  0  0  0
  -22.5665  -41.2023   -3.6645 C   0  0  0  0  0  0  0  0  0  0  0  0
  -24.0692  -41.3279   -3.5259 C   0  0  0  0  0  0  0  0  0  0  0  0
  -22.0238  -40.7186   -2.3388 C   0  0  0  0  0  0  0  0  0  0  0  0
  -22.0122  -42.6034   -3.8846 C   0  0  0  0  0  0  0  0  0  0  0  0
  2  1  1  1
  2  3  1  0
  3  4  1  0
  4  5  1  0
  5  6  1  0
  6  7  1  0
  7  8  1  0
  8  9  1  0
  9 10  1  0
 10 11  1  0
 11 12  1  0
 12 13  2  0
 13 14  1  0
 14 15  2  0
 15 16  1  0
 16 17  1  0
 13 18  1  0
 18 19  2  0
 18 20  1  0
 20 21  1  0
 21 22  1  1
 21 23  1  0
 23 24  1  6
 23 25  1  0
 25 26  1  0
 26 27  1  0
 27 28  1  0
 28 29  2  0
 29 30  1  0
 30 31  2  0
 31 32  1  0
 32 33  2  0
 30 34  1  0
 34 35  1  0
 34 36  1  0
 34 37  1  0
 16 11  2  0
 22  2  1  0
 33 28  1  0
M  END
$$$$
