
     RDKit          3D

 37 39  0  0  0  0  0  0  0  0999 V2000
  -20.1060  -38.7519   -4.8777 C   0  0  0  0  0  0  0  0  0  0  0  0
  -19.9377  -39.9057   -5.8549 C   0  0  2  0  0  0  0  0  0  0  0  0
  -20.5366  -41.1186   -5.1794 C   0  0  0  0  0  0  0  0  0  0  0  0
  -22.0205  -41.1871   -5.3609 C   0  0  0  0  0  0  0  0  0  0  0  0
  -22.3963  -40.2942   -6.3254 O   0  0  0  0  0  0  0  0  0  0  0  0
  -23.6545  -39.7566   -6.1482 C   0  0  0  0  0  0  0  0  0  0  0  0
  -24.6700  -40.7356   -6.6904 C   0  0  0  0  0  0  0  0  0  0  0  0
  -24.2216  -41.2983   -7.9963 C   0  0  0  0  0  0  0  0  0  0  0  0
  -24.0019  -40.2322   -9.0668 C   0  0  0  0  0  0  0  0  0  0  0  0
  -23.2650  -40.9021  -10.1240 N   0  0  0  0  0  0  0  0  0  0  0  0
  -21.8642  -41.0391  -10.3629 C   0  0  0  0  0  0  0  0  0  0  0  0
  -20.8102  -41.2669   -9.4997 C   0  0  0  0  0  0  0  0  0  0  0  0
  -19.5384  -41.3279  -10.0358 C   0  0  0  0  0  0  0  0  0  0  0  0
  -19.3626  -41.1599  -11.4350 C   0  0  0  0  0  0  0  0  0  0  0  0
  -20.3825  -40.9361  -12.3125 C   0  0  0  0  0  0  0  0  0  0  0  0
  -21.6335  -40.8789  -11.7541 C   0  0  0  0  0  0  0  0  0  0  0  0
  -22.9588  -40.6225  -12.9131 Cl  0  0  0  0  0  0  0  0  0  0  0  0
  -18.2257  -41.5317   -9.4145 C   0  0  0  0  0  0  0  0  0  0  0  0
  -17.3678  -42.2887  -10.0534 O   0  0  0  0  0  0  0  0  0  0  0  0
  -17.6412  -41.0715   -8.2202 N   0  0  0  0  0  0  0  0  0  0  0  0
  -18.0533  -39.8286   -7.5454 C   0  0  1  0  0  0  0  0  0  0  0  0
  -18.4837  -40.1687   -6.1595 C   0  0  0  0  0  0  0  0  0  0  0  0
  -16.9243  -38.8517   -7.6324 C   0  0  2  0  0  0  0  0  0  0  0  0
  -17.4361  -37.5759   -7.4065 O   0  0  0  0  0  0  0  0  0  0  0  0
  -16.2258  -38.8266   -8.9574 C   0  0  0  0  0  0  0  0  0  0  0  0
  -15.0957  -39.7260   -9.0090 N   0  0  0  0  0  0  0  0  0  0  0  0
  -13.8398  -39.0557   -9.2159 C   0  0  0  0  0  0  0  0  0  0  0  0
  -13.7321  -38.4362  -10.5616 C   0  0  0  0  0  0  0  0  0  0  0  0
  -13.3354  -37.1205  -10.6596 C   0  0  0  0  0  0  0  0  0  0  0  0
  -13.2035  -36.4542  -11.8471 C   0  0  0  0  0  0  0  0  0  0  0  0
  -13.4821  -37.1338  -13.0121 C   0  0  0  0  0  0  0  0  0  0  0  0
  -13.8830  -38.4622  -12.9200 C   0  0  0  0  0  0  0  0  0  0  0  0
  -13.9983  -39.0785  -11.7106 N   0  0  0  0  0  0  0  0  0  0  0  0
  -12.7774  -35.0390  -11.9735 C   0  0  0  0  0  0  0  0  0  0  0  0
  -12.6150  -34.6323  -13.4231 C   0  0  0  0  0  0  0  0  0  0  0  0
  -11.4617  -34.7788  -11.2754 C   0  0  0  0  0  0  0  0  0  0  0  0
  -13.8019  -34.1003  -11.3506 C   0  0  0  0  0  0  0  0  0  0  0  0
  2  1  1  1
  2  3  1  0
  3  4  1  0
  4  5  1  0
  5  6  1  0
  6  7  1  0
  7  8  1  0
  8  9  1  0
  9 10  1  0
 10 11  1  0
 11 12  1  0
 12 13  2  0
 13 14  1  0
 14 15  2  0
 15 16  1  0
 16 17  1  0
 13 18  1  0
 18 19  2  0
 18 20  1  0
 20 21  1  0
 21 22  1  1
 21 23  1  0
 23 24  1  6
 23 25  1  0
 25 26  1  0
 26 27  1  0
 27 28  1  0
 28 29  2  0
 29 30  1  0
 30 31  2  0
 31 32  1  0
 32 33  2  0
 30 34  1  0
 34 35  1  0
 34 36  1  0
 34 37  1  0
 16 11  2  0
 22  2  1  0
 33 28  1  0
M  END
$$$$
