
     RDKit          3D

 37 39  0  0  0  0  0  0  0  0999 V2000
  -19.7913  -38.4367   -4.6227 C   0  0  0  0  0  0  0  0  0  0  0  0
  -19.5190  -39.5738   -5.5958 C   0  0  2  0  0  0  0  0  0  0  0  0
  -19.9872  -40.8362   -4.9078 C   0  0  0  0  0  0  0  0  0  0  0  0
  -21.4588  -41.0531   -5.0729 C   0  0  0  0  0  0  0  0  0  0  0  0
  -21.9314  -40.2079   -6.0377 O   0  0  0  0  0  0  0  0  0  0  0  0
  -23.2351  -39.7971   -5.8497 C   0  0  0  0  0  0  0  0  0  0  0  0
  -24.1535  -40.8755   -6.3759 C   0  0  0  0  0  0  0  0  0  0  0  0
  -23.6648  -41.3987   -7.6837 C   0  0  0  0  0  0  0  0  0  0  0  0
  -23.5632  -40.3226   -8.7619 C   0  0  0  0  0  0  0  0  0  0  0  0
  -22.7742  -40.9222   -9.8236 N   0  0  0  0  0  0  0  0  0  0  0  0
  -21.3693  -40.9207  -10.0770 C   0  0  0  0  0  0  0  0  0  0  0  0
  -20.2891  -41.0372   -9.2241 C   0  0  0  0  0  0  0  0  0  0  0  0
  -19.0230  -40.9747   -9.7736 C   0  0  0  0  0  0  0  0  0  0  0  0
  -18.8792  -40.7986  -11.1755 C   0  0  0  0  0  0  0  0  0  0  0  0
  -19.9253  -40.6826  -12.0430 C   0  0  0  0  0  0  0  0  0  0  0  0
  -21.1700  -40.7468  -11.4713 C   0  0  0  0  0  0  0  0  0  0  0  0
  -22.5260  -40.6306  -12.6172 Cl  0  0  0  0  0  0  0  0  0  0  0  0
  -17.6903  -41.0431   -9.1655 C   0  0  0  0  0  0  0  0  0  0  0  0
  -16.7678  -41.7149   -9.8098 O   0  0  0  0  0  0  0  0  0  0  0  0
  -17.1423  -40.5198   -7.9800 N   0  0  0  0  0  0  0  0  0  0  0  0
  -17.6691  -39.3200   -7.3070 C   0  0  1  0  0  0  0  0  0  0  0  0
  -18.0493  -39.6928   -5.9148 C   0  0  0  0  0  0  0  0  0  0  0  0
  -16.6439  -38.2362   -7.4110 C   0  0  2  0  0  0  0  0  0  0  0  0
  -17.0902  -37.3050   -8.3462 O   0  0  0  0  0  0  0  0  0  0  0  0
  -15.2906  -38.7023   -7.8531 C   0  0  0  0  0  0  0  0  0  0  0  0
  -15.3567  -39.8255   -8.7603 N   0  0  0  0  0  0  0  0  0  0  0  0
  -14.0857  -40.1683   -9.3402 C   0  0  0  0  0  0  0  0  0  0  0  0
  -13.9225  -39.6460  -10.7210 C   0  0  0  0  0  0  0  0  0  0  0  0
  -13.4040  -38.3820  -10.8983 C   0  0  0  0  0  0  0  0  0  0  0  0
  -13.2121  -37.8057  -12.1242 C   0  0  0  0  0  0  0  0  0  0  0  0
  -13.5555  -38.5267  -13.2462 C   0  0  0  0  0  0  0  0  0  0  0  0
  -14.0794  -39.8033  -13.0739 C   0  0  0  0  0  0  0  0  0  0  0  0
  -14.2500  -40.3302  -11.8293 N   0  0  0  0  0  0  0  0  0  0  0  0
  -12.6550  -36.4474  -12.3359 C   0  0  0  0  0  0  0  0  0  0  0  0
  -13.6294  -35.3710  -11.9056 C   0  0  0  0  0  0  0  0  0  0  0  0
  -12.3080  -36.1968  -13.7860 C   0  0  0  0  0  0  0  0  0  0  0  0
  -11.3757  -36.2484  -11.5342 C   0  0  0  0  0  0  0  0  0  0  0  0
  2  1  1  1
  2  3  1  0
  3  4  1  0
  4  5  1  0
  5  6  1  0
  6  7  1  0
  7  8  1  0
  8  9  1  0
  9 10  1  0
 10 11  1  0
 11 12  1  0
 12 13  2  0
 13 14  1  0
 14 15  2  0
 15 16  1  0
 16 17  1  0
 13 18  1  0
 18 19  2  0
 18 20  1  0
 20 21  1  0
 21 22  1  1
 21 23  1  0
 23 24  1  6
 23 25  1  0
 25 26  1  0
 26 27  1  0
 27 28  1  0
 28 29  2  0
 29 30  1  0
 30 31  2  0
 31 32  1  0
 32 33  2  0
 30 34  1  0
 34 35  1  0
 34 36  1  0
 34 37  1  0
 16 11  2  0
 22  2  1  0
 33 28  1  0
M  END
$$$$
