
     RDKit          3D

 37 39  0  0  0  0  0  0  0  0999 V2000
  -18.8027  -39.7825   -5.0151 C   0  0  0  0  0  0  0  0  0  0  0  0
  -18.9562  -40.2103   -6.4668 C   0  0  2  0  0  0  0  0  0  0  0  0
  -20.0298  -41.2749   -6.4795 C   0  0  0  0  0  0  0  0  0  0  0  0
  -21.4050  -40.6854   -6.5123 C   0  0  0  0  0  0  0  0  0  0  0  0
  -21.3155  -39.3542   -6.8100 O   0  0  0  0  0  0  0  0  0  0  0  0
  -22.3021  -38.5738   -6.2433 C   0  0  0  0  0  0  0  0  0  0  0  0
  -23.5354  -38.6624   -7.1120 C   0  0  0  0  0  0  0  0  0  0  0  0
  -23.1767  -38.5673   -8.5561 C   0  0  0  0  0  0  0  0  0  0  0  0
  -22.4617  -37.2667   -8.9138 C   0  0  0  0  0  0  0  0  0  0  0  0
  -21.9041  -37.4912  -10.2359 N   0  0  0  0  0  0  0  0  0  0  0  0
  -20.6325  -37.9850  -10.6569 C   0  0  0  0  0  0  0  0  0  0  0  0
  -19.8409  -39.0034  -10.1627 C   0  0  0  0  0  0  0  0  0  0  0  0
  -18.6266  -39.2346  -10.7798 C   0  0  0  0  0  0  0  0  0  0  0  0
  -18.2424  -38.4310  -11.8859 C   0  0  0  0  0  0  0  0  0  0  0  0
  -19.0023  -37.4206  -12.3978 C   0  0  0  0  0  0  0  0  0  0  0  0
  -20.2013  -37.2119  -11.7662 C   0  0  0  0  0  0  0  0  0  0  0  0
  -21.1991  -35.9154  -12.4654 Cl  0  0  0  0  0  0  0  0  0  0  0  0
  -17.5596  -40.2019  -10.5035 C   0  0  0  0  0  0  0  0  0  0  0  0
  -16.9699  -40.7588  -11.5329 O   0  0  0  0  0  0  0  0  0  0  0  0
  -16.9886  -40.6963   -9.3164 N   0  0  0  0  0  0  0  0  0  0  0  0
  -16.9931  -39.9508   -8.0460 C   0  0  1  0  0  0  0  0  0  0  0  0
  -17.6739  -40.7854   -7.0156 C   0  0  0  0  0  0  0  0  0  0  0  0
  -15.5834  -39.5730   -7.7195 C   0  0  2  0  0  0  0  0  0  0  0  0
  -15.3988  -38.2383   -8.0737 O   0  0  0  0  0  0  0  0  0  0  0  0
  -14.5431  -40.3758   -8.4387 C   0  0  0  0  0  0  0  0  0  0  0  0
  -13.2606  -39.7111   -8.4866 N   0  0  0  0  0  0  0  0  0  0  0  0
  -12.3315  -40.3252   -9.3972 C   0  0  0  0  0  0  0  0  0  0  0  0
  -12.3288  -39.6843  -10.7371 C   0  0  0  0  0  0  0  0  0  0  0  0
  -12.6836  -38.3572  -10.8417 C   0  0  0  0  0  0  0  0  0  0  0  0
  -12.7145  -37.6709  -12.0248 C   0  0  0  0  0  0  0  0  0  0  0  0
  -12.3724  -38.3414  -13.1781 C   0  0  0  0  0  0  0  0  0  0  0  0
  -12.0132  -39.6811  -13.0793 C   0  0  0  0  0  0  0  0  0  0  0  0
  -11.9992  -40.3173  -11.8748 N   0  0  0  0  0  0  0  0  0  0  0  0
  -13.0928  -36.2429  -12.1580 C   0  0  0  0  0  0  0  0  0  0  0  0
  -14.4450  -36.0831  -12.8206 C   0  0  0  0  0  0  0  0  0  0  0  0
  -12.0877  -35.4643  -12.9763 C   0  0  0  0  0  0  0  0  0  0  0  0
  -13.1722  -35.5674  -10.7956 C   0  0  0  0  0  0  0  0  0  0  0  0
  2  1  1  1
  2  3  1  0
  3  4  1  0
  4  5  1  0
  5  6  1  0
  6  7  1  0
  7  8  1  0
  8  9  1  0
  9 10  1  0
 10 11  1  0
 11 12  1  0
 12 13  2  0
 13 14  1  0
 14 15  2  0
 15 16  1  0
 16 17  1  0
 13 18  1  0
 18 19  2  0
 18 20  1  0
 20 21  1  0
 21 22  1  1
 21 23  1  0
 23 24  1  6
 23 25  1  0
 25 26  1  0
 26 27  1  0
 27 28  1  0
 28 29  2  0
 29 30  1  0
 30 31  2  0
 31 32  1  0
 32 33  2  0
 30 34  1  0
 34 35  1  0
 34 36  1  0
 34 37  1  0
 16 11  2  0
 22  2  1  0
 33 28  1  0
M  END
$$$$
