
     RDKit          3D

 37 39  0  0  0  0  0  0  0  0999 V2000
  -19.4634  -38.1260   -5.2648 C   0  0  0  0  0  0  0  0  0  0  0  0
  -19.2852  -39.3492   -6.1515 C   0  0  2  0  0  0  0  0  0  0  0  0
  -20.0117  -40.4796   -5.4582 C   0  0  0  0  0  0  0  0  0  0  0  0
  -21.4767  -40.4768   -5.7639 C   0  0  0  0  0  0  0  0  0  0  0  0
  -21.7152  -39.6297   -6.8100 O   0  0  0  0  0  0  0  0  0  0  0  0
  -22.9485  -39.0121   -6.7763 C   0  0  0  0  0  0  0  0  0  0  0  0
  -23.9733  -39.9664   -7.3443 C   0  0  0  0  0  0  0  0  0  0  0  0
  -23.4529  -40.6381   -8.5694 C   0  0  0  0  0  0  0  0  0  0  0  0
  -23.0796  -39.6589   -9.6797 C   0  0  0  0  0  0  0  0  0  0  0  0
  -22.2996  -40.4371  -10.6258 N   0  0  0  0  0  0  0  0  0  0  0  0
  -20.8948  -40.6677  -10.7329 C   0  0  0  0  0  0  0  0  0  0  0  0
  -19.9325  -40.8967   -9.7688 C   0  0  0  0  0  0  0  0  0  0  0  0
  -18.6265  -41.0640  -10.1873 C   0  0  0  0  0  0  0  0  0  0  0  0
  -18.3246  -40.9987  -11.5736 C   0  0  0  0  0  0  0  0  0  0  0  0
  -19.2521  -40.7765  -12.5486 C   0  0  0  0  0  0  0  0  0  0  0  0
  -20.5394  -40.6128  -12.1058 C   0  0  0  0  0  0  0  0  0  0  0  0
  -21.7452  -40.3595  -13.3894 Cl  0  0  0  0  0  0  0  0  0  0  0  0
  -17.3852  -41.2995   -9.4427 C   0  0  0  0  0  0  0  0  0  0  0  0
  -16.5250  -42.1438   -9.9572 O   0  0  0  0  0  0  0  0  0  0  0  0
  -16.8753  -40.7950   -8.2323 N   0  0  0  0  0  0  0  0  0  0  0  0
  -17.2653  -39.4892   -7.6729 C   0  0  1  0  0  0  0  0  0  0  0  0
  -17.8298  -39.7127   -6.3116 C   0  0  0  0  0  0  0  0  0  0  0  0
  -16.0751  -38.5849   -7.7204 C   0  0  2  0  0  0  0  0  0  0  0  0
  -16.5187  -37.2748   -7.5538 O   0  0  0  0  0  0  0  0  0  0  0  0
  -15.3060  -38.6379   -9.0049 C   0  0  0  0  0  0  0  0  0  0  0  0
  -14.1363  -39.4825   -8.9198 N   0  0  0  0  0  0  0  0  0  0  0  0
  -13.7830  -40.0983  -10.1709 C   0  0  0  0  0  0  0  0  0  0  0  0
  -13.5306  -39.1087  -11.2494 C   0  0  0  0  0  0  0  0  0  0  0  0
  -12.6593  -38.0690  -11.0091 C   0  0  0  0  0  0  0  0  0  0  0  0
  -12.3560  -37.1046  -11.9308 C   0  0  0  0  0  0  0  0  0  0  0  0
  -12.9536  -37.1739  -13.1697 C   0  0  0  0  0  0  0  0  0  0  0  0
  -13.8341  -38.2211  -13.4186 C   0  0  0  0  0  0  0  0  0  0  0  0
  -14.1011  -39.1558  -12.4643 N   0  0  0  0  0  0  0  0  0  0  0  0
  -11.4208  -35.9784  -11.6917 C   0  0  0  0  0  0  0  0  0  0  0  0
   -9.9766  -36.4296  -11.7524 C   0  0  0  0  0  0  0  0  0  0  0  0
  -11.6424  -35.3346  -10.3418 C   0  0  0  0  0  0  0  0  0  0  0  0
  -11.5994  -34.8860  -12.7374 C   0  0  0  0  0  0  0  0  0  0  0  0
  2  1  1  1
  2  3  1  0
  3  4  1  0
  4  5  1  0
  5  6  1  0
  6  7  1  0
  7  8  1  0
  8  9  1  0
  9 10  1  0
 10 11  1  0
 11 12  1  0
 12 13  2  0
 13 14  1  0
 14 15  2  0
 15 16  1  0
 16 17  1  0
 13 18  1  0
 18 19  2  0
 18 20  1  0
 20 21  1  0
 21 22  1  1
 21 23  1  0
 23 24  1  6
 23 25  1  0
 25 26  1  0
 26 27  1  0
 27 28  1  0
 28 29  2  0
 29 30  1  0
 30 31  2  0
 31 32  1  0
 32 33  2  0
 30 34  1  0
 34 35  1  0
 34 36  1  0
 34 37  1  0
 16 11  2  0
 22  2  1  0
 33 28  1  0
M  END
$$$$
