
     RDKit          3D

 37 39  0  0  0  0  0  0  0  0999 V2000
  -19.2341  -39.4467   -4.5307 C   0  0  0  0  0  0  0  0  0  0  0  0
  -19.1881  -40.3137   -5.7799 C   0  0  2  0  0  0  0  0  0  0  0  0
  -19.7201  -41.6685   -5.3705 C   0  0  0  0  0  0  0  0  0  0  0  0
  -21.2156  -41.7163   -5.3977 C   0  0  0  0  0  0  0  0  0  0  0  0
  -21.6878  -40.6161   -6.0576 O   0  0  0  0  0  0  0  0  0  0  0  0
  -22.9127  -40.1637   -5.6121 C   0  0  0  0  0  0  0  0  0  0  0  0
  -23.9925  -40.9930   -6.2678 C   0  0  0  0  0  0  0  0  0  0  0  0
  -23.6989  -41.2001   -7.7148 C   0  0  0  0  0  0  0  0  0  0  0  0
  -23.5894  -39.8948   -8.4991 C   0  0  0  0  0  0  0  0  0  0  0  0
  -22.9824  -40.2629   -9.7661 N   0  0  0  0  0  0  0  0  0  0  0  0
  -21.6187  -40.3095  -10.1857 C   0  0  0  0  0  0  0  0  0  0  0  0
  -20.4771  -40.7281   -9.5303 C   0  0  0  0  0  0  0  0  0  0  0  0
  -19.2739  -40.6287  -10.2021 C   0  0  0  0  0  0  0  0  0  0  0  0
  -19.2542  -40.1104  -11.5242 C   0  0  0  0  0  0  0  0  0  0  0  0
  -20.3635  -39.6914  -12.1980 C   0  0  0  0  0  0  0  0  0  0  0  0
  -21.5435  -39.7998  -11.5080 C   0  0  0  0  0  0  0  0  0  0  0  0
  -22.9875  -39.2839  -12.4104 Cl  0  0  0  0  0  0  0  0  0  0  0  0
  -17.9021  -40.9584   -9.8019 C   0  0  0  0  0  0  0  0  0  0  0  0
  -17.1290  -41.5141  -10.7023 O   0  0  0  0  0  0  0  0  0  0  0  0
  -17.1829  -40.8033   -8.6026 N   0  0  0  0  0  0  0  0  0  0  0  0
  -17.5041  -39.7784   -7.5944 C   0  0  1  0  0  0  0  0  0  0  0  0
  -17.7801  -40.4647   -6.3004 C   0  0  0  0  0  0  0  0  0  0  0  0
  -16.3819  -38.7906   -7.5566 C   0  0  2  0  0  0  0  0  0  0  0  0
  -16.8661  -37.6047   -7.0090 O   0  0  0  0  0  0  0  0  0  0  0  0
  -15.7998  -38.4607   -8.8969 C   0  0  0  0  0  0  0  0  0  0  0  0
  -14.7135  -39.3403   -9.2646 N   0  0  0  0  0  0  0  0  0  0  0  0
  -13.4229  -38.7067   -9.2164 C   0  0  0  0  0  0  0  0  0  0  0  0
  -13.0242  -38.1113  -10.5174 C   0  0  0  0  0  0  0  0  0  0  0  0
  -11.8937  -38.5834  -11.1477 C   0  0  0  0  0  0  0  0  0  0  0  0
  -11.4382  -38.1066  -12.3464 C   0  0  0  0  0  0  0  0  0  0  0  0
  -12.1471  -37.0980  -12.9604 C   0  0  0  0  0  0  0  0  0  0  0  0
  -13.2892  -36.6172  -12.3292 C   0  0  0  0  0  0  0  0  0  0  0  0
  -13.6991  -37.1279  -11.1348 N   0  0  0  0  0  0  0  0  0  0  0  0
  -10.2247  -38.6017  -13.0409 C   0  0  0  0  0  0  0  0  0  0  0  0
   -9.3118  -39.3582  -12.0989 C   0  0  0  0  0  0  0  0  0  0  0  0
   -9.4210  -37.4752  -13.6501 C   0  0  0  0  0  0  0  0  0  0  0  0
  -10.5905  -39.5482  -14.1762 C   0  0  0  0  0  0  0  0  0  0  0  0
  2  1  1  1
  2  3  1  0
  3  4  1  0
  4  5  1  0
  5  6  1  0
  6  7  1  0
  7  8  1  0
  8  9  1  0
  9 10  1  0
 10 11  1  0
 11 12  1  0
 12 13  2  0
 13 14  1  0
 14 15  2  0
 15 16  1  0
 16 17  1  0
 13 18  1  0
 18 19  2  0
 18 20  1  0
 20 21  1  0
 21 22  1  1
 21 23  1  0
 23 24  1  6
 23 25  1  0
 25 26  1  0
 26 27  1  0
 27 28  1  0
 28 29  2  0
 29 30  1  0
 30 31  2  0
 31 32  1  0
 32 33  2  0
 30 34  1  0
 34 35  1  0
 34 36  1  0
 34 37  1  0
 16 11  2  0
 22  2  1  0
 33 28  1  0
M  END
$$$$
