
     RDKit          3D

 37 39  0  0  0  0  0  0  0  0999 V2000
  -19.0733  -39.8579   -4.3988 C   0  0  0  0  0  0  0  0  0  0  0  0
  -19.0147  -40.6554   -5.6930 C   0  0  2  0  0  0  0  0  0  0  0  0
  -19.7556  -41.9458   -5.4248 C   0  0  0  0  0  0  0  0  0  0  0  0
  -21.2345  -41.7898   -5.5930 C   0  0  0  0  0  0  0  0  0  0  0  0
  -21.4919  -40.6024   -6.2197 O   0  0  0  0  0  0  0  0  0  0  0  0
  -22.6865  -40.0131   -5.8602 C   0  0  0  0  0  0  0  0  0  0  0  0
  -23.7932  -40.6530   -6.6661 C   0  0  0  0  0  0  0  0  0  0  0  0
  -23.3853  -40.8205   -8.0904 C   0  0  0  0  0  0  0  0  0  0  0  0
  -23.0299  -39.5020   -8.7733 C   0  0  0  0  0  0  0  0  0  0  0  0
  -22.3517  -39.8808  -10.0003 N   0  0  0  0  0  0  0  0  0  0  0  0
  -20.9703  -40.0887  -10.2944 C   0  0  0  0  0  0  0  0  0  0  0  0
  -19.9638  -40.6919   -9.5655 C   0  0  0  0  0  0  0  0  0  0  0  0
  -18.6967  -40.7202  -10.1153 C   0  0  0  0  0  0  0  0  0  0  0  0
  -18.4777  -40.1396  -11.3928 C   0  0  0  0  0  0  0  0  0  0  0  0
  -19.4504  -39.5395  -12.1370 C   0  0  0  0  0  0  0  0  0  0  0  0
  -20.6976  -39.5241  -11.5676 C   0  0  0  0  0  0  0  0  0  0  0  0
  -21.9651  -38.7707  -12.5634 Cl  0  0  0  0  0  0  0  0  0  0  0  0
  -17.4261  -41.2529   -9.6128 C   0  0  0  0  0  0  0  0  0  0  0  0
  -16.6448  -41.8591  -10.4728 O   0  0  0  0  0  0  0  0  0  0  0  0
  -16.8168  -41.2604   -8.3446 N   0  0  0  0  0  0  0  0  0  0  0  0
  -17.1023  -40.2566   -7.3050 C   0  0  1  0  0  0  0  0  0  0  0  0
  -17.5930  -40.9673   -6.0901 C   0  0  0  0  0  0  0  0  0  0  0  0
  -15.8713  -39.4328   -7.0985 C   0  0  2  0  0  0  0  0  0  0  0  0
  -16.1876  -38.1040   -7.3723 O   0  0  0  0  0  0  0  0  0  0  0  0
  -14.7178  -39.8093   -7.9771 C   0  0  0  0  0  0  0  0  0  0  0  0
  -14.5572  -38.9141   -9.1002 N   0  0  0  0  0  0  0  0  0  0  0  0
  -14.5065  -39.5908  -10.3687 C   0  0  0  0  0  0  0  0  0  0  0  0
  -13.5811  -38.9412  -11.3319 C   0  0  0  0  0  0  0  0  0  0  0  0
  -13.7626  -37.6096  -11.6357 C   0  0  0  0  0  0  0  0  0  0  0  0
  -12.9693  -36.9153  -12.5076 C   0  0  0  0  0  0  0  0  0  0  0  0
  -11.9299  -37.5817  -13.1178 C   0  0  0  0  0  0  0  0  0  0  0  0
  -11.7414  -38.9259  -12.8154 C   0  0  0  0  0  0  0  0  0  0  0  0
  -12.5614  -39.5701  -11.9389 N   0  0  0  0  0  0  0  0  0  0  0  0
  -13.1478  -35.4825  -12.8471 C   0  0  0  0  0  0  0  0  0  0  0  0
  -14.6016  -35.1470  -13.1056 C   0  0  0  0  0  0  0  0  0  0  0  0
  -12.3620  -35.0895  -14.0776 C   0  0  0  0  0  0  0  0  0  0  0  0
  -12.6699  -34.5866  -11.7123 C   0  0  0  0  0  0  0  0  0  0  0  0
  2  1  1  1
  2  3  1  0
  3  4  1  0
  4  5  1  0
  5  6  1  0
  6  7  1  0
  7  8  1  0
  8  9  1  0
  9 10  1  0
 10 11  1  0
 11 12  1  0
 12 13  2  0
 13 14  1  0
 14 15  2  0
 15 16  1  0
 16 17  1  0
 13 18  1  0
 18 19  2  0
 18 20  1  0
 20 21  1  0
 21 22  1  1
 21 23  1  0
 23 24  1  6
 23 25  1  0
 25 26  1  0
 26 27  1  0
 27 28  1  0
 28 29  2  0
 29 30  1  0
 30 31  2  0
 31 32  1  0
 32 33  2  0
 30 34  1  0
 34 35  1  0
 34 36  1  0
 34 37  1  0
 16 11  2  0
 22  2  1  0
 33 28  1  0
M  END
$$$$
