
     RDKit          3D

 37 39  0  0  0  0  0  0  0  0999 V2000
  -13.1342  -40.5448   -8.4355 C   0  0  0  0  0  0  0  0  0  0  0  0
  -14.0815  -39.5320   -9.0610 C   0  0  2  0  0  0  0  0  0  0  0  0
  -13.2476  -38.7148  -10.0217 C   0  0  0  0  0  0  0  0  0  0  0  0
  -13.0983  -39.3888  -11.3495 C   0  0  0  0  0  0  0  0  0  0  0  0
  -13.9897  -40.4221  -11.4309 O   0  0  0  0  0  0  0  0  0  0  0  0
  -13.5621  -41.4874  -12.1963 C   0  0  0  0  0  0  0  0  0  0  0  0
  -13.8334  -41.1683  -13.6482 C   0  0  0  0  0  0  0  0  0  0  0  0
  -15.1840  -40.5595  -13.8155 C   0  0  0  0  0  0  0  0  0  0  0  0
  -16.3152  -41.4627  -13.3300 C   0  0  0  0  0  0  0  0  0  0  0  0
  -17.4823  -40.6017  -13.2538 N   0  0  0  0  0  0  0  0  0  0  0  0
  -18.0159  -39.8208  -12.1844 C   0  0  0  0  0  0  0  0  0  0  0  0
  -17.3956  -39.0456  -11.2240 C   0  0  0  0  0  0  0  0  0  0  0  0
  -18.1937  -38.4160  -10.2884 C   0  0  0  0  0  0  0  0  0  0  0  0
  -19.6028  -38.5830  -10.3482 C   0  0  0  0  0  0  0  0  0  0  0  0
  -20.2442  -39.3393  -11.2846 C   0  0  0  0  0  0  0  0  0  0  0  0
  -19.4288  -39.9537  -12.1998 C   0  0  0  0  0  0  0  0  0  0  0  0
  -20.2794  -40.9079  -13.4374 Cl  0  0  0  0  0  0  0  0  0  0  0  0
  -17.8666  -37.5545   -9.1475 C   0  0  0  0  0  0  0  0  0  0  0  0
  -18.6491  -36.5272   -8.9246 O   0  0  0  0  0  0  0  0  0  0  0  0
  -16.8464  -37.5814   -8.1790 N   0  0  0  0  0  0  0  0  0  0  0  0
  -16.1441  -38.8130   -7.7791 C   0  0  1  0  0  0  0  0  0  0  0  0
  -14.6861  -38.6205   -8.0220 C   0  0  0  0  0  0  0  0  0  0  0  0
  -16.5110  -39.1227   -6.3628 C   0  0  2  0  0  0  0  0  0  0  0  0
  -16.5335  -40.5077   -6.2134 O   0  0  0  0  0  0  0  0  0  0  0  0
  -17.8519  -38.6045   -5.9414 C   0  0  0  0  0  0  0  0  0  0  0  0
  -18.4239  -39.3603   -4.8503 N   0  0  0  0  0  0  0  0  0  0  0  0
  -19.6734  -38.8267   -4.3778 C   0  0  0  0  0  0  0  0  0  0  0  0
  -20.7974  -39.7889   -4.5087 C   0  0  0  0  0  0  0  0  0  0  0  0
  -20.7469  -40.7410   -5.5032 C   0  0  0  0  0  0  0  0  0  0  0  0
  -21.7262  -41.6733   -5.7115 C   0  0  0  0  0  0  0  0  0  0  0  0
  -22.8258  -41.6624   -4.8823 C   0  0  0  0  0  0  0  0  0  0  0  0
  -22.8827  -40.7038   -3.8765 C   0  0  0  0  0  0  0  0  0  0  0  0
  -21.8789  -39.7975   -3.7126 N   0  0  0  0  0  0  0  0  0  0  0  0
  -21.6901  -42.7063   -6.7754 C   0  0  0  0  0  0  0  0  0  0  0  0
  -23.0835  -43.1368   -7.1829 C   0  0  0  0  0  0  0  0  0  0  0  0
  -20.9385  -43.9435   -6.3388 C   0  0  0  0  0  0  0  0  0  0  0  0
  -20.9932  -42.1830   -8.0241 C   0  0  0  0  0  0  0  0  0  0  0  0
  2  1  1  1
  2  3  1  0
  3  4  1  0
  4  5  1  0
  5  6  1  0
  6  7  1  0
  7  8  1  0
  8  9  1  0
  9 10  1  0
 10 11  1  0
 11 12  1  0
 12 13  2  0
 13 14  1  0
 14 15  2  0
 15 16  1  0
 16 17  1  0
 13 18  1  0
 18 19  2  0
 18 20  1  0
 20 21  1  0
 21 22  1  1
 21 23  1  0
 23 24  1  6
 23 25  1  0
 25 26  1  0
 26 27  1  0
 27 28  1  0
 28 29  2  0
 29 30  1  0
 30 31  2  0
 31 32  1  0
 32 33  2  0
 30 34  1  0
 34 35  1  0
 34 36  1  0
 34 37  1  0
 16 11  2  0
 22  2  1  0
 33 28  1  0
M  END
$$$$
