
     RDKit          3D

 37 39  0  0  0  0  0  0  0  0999 V2000
  -14.2205  -35.8881   -9.4229 C   0  0  0  0  0  0  0  0  0  0  0  0
  -14.7993  -36.9981  -10.2873 C   0  0  2  0  0  0  0  0  0  0  0  0
  -15.3344  -36.3256  -11.5313 C   0  0  0  0  0  0  0  0  0  0  0  0
  -14.2630  -36.0963  -12.5508 C   0  0  0  0  0  0  0  0  0  0  0  0
  -13.1514  -36.8115  -12.2021 O   0  0  0  0  0  0  0  0  0  0  0  0
  -11.9572  -36.2336  -12.5810 C   0  0  0  0  0  0  0  0  0  0  0  0
  -11.6996  -36.5814  -14.0289 C   0  0  0  0  0  0  0  0  0  0  0  0
  -12.0094  -38.0154  -14.2946 C   0  0  0  0  0  0  0  0  0  0  0  0
  -11.1843  -38.9768  -13.4427 C   0  0  0  0  0  0  0  0  0  0  0  0
  -11.8396  -40.2654  -13.5819 N   0  0  0  0  0  0  0  0  0  0  0  0
  -12.8632  -40.8961  -12.8122 C   0  0  0  0  0  0  0  0  0  0  0  0
  -14.0084  -40.3896  -12.2292 C   0  0  0  0  0  0  0  0  0  0  0  0
  -14.8069  -41.2597  -11.5123 C   0  0  0  0  0  0  0  0  0  0  0  0
  -14.4293  -42.6246  -11.4044 C   0  0  0  0  0  0  0  0  0  0  0  0
  -13.3071  -43.1546  -11.9699 C   0  0  0  0  0  0  0  0  0  0  0  0
  -12.5323  -42.2693  -12.6743 C   0  0  0  0  0  0  0  0  0  0  0  0
  -11.0906  -42.9799  -13.4372 Cl  0  0  0  0  0  0  0  0  0  0  0  0
  -16.0537  -41.0528  -10.7683 C   0  0  0  0  0  0  0  0  0  0  0  0
  -16.9699  -41.9856  -10.8567 O   0  0  0  0  0  0  0  0  0  0  0  0
  -16.5178  -40.0225   -9.9300 N   0  0  0  0  0  0  0  0  0  0  0  0
  -15.6217  -39.1236   -9.1824 C   0  0  1  0  0  0  0  0  0  0  0  0
  -15.9227  -37.7206   -9.5858 C   0  0  0  0  0  0  0  0  0  0  0  0
  -15.7839  -39.4078   -7.7232 C   0  0  2  0  0  0  0  0  0  0  0  0
  -14.6121  -40.0060   -7.2648 O   0  0  0  0  0  0  0  0  0  0  0  0
  -16.9170  -40.3302   -7.3926 C   0  0  0  0  0  0  0  0  0  0  0  0
  -17.6044  -39.9555   -6.1777 N   0  0  0  0  0  0  0  0  0  0  0  0
  -18.5482  -40.9430   -5.7264 C   0  0  0  0  0  0  0  0  0  0  0  0
  -19.9260  -40.6918   -6.2211 C   0  0  0  0  0  0  0  0  0  0  0  0
  -20.1846  -39.5270   -6.9099 C   0  0  0  0  0  0  0  0  0  0  0  0
  -21.4154  -39.1974   -7.4080 C   0  0  0  0  0  0  0  0  0  0  0  0
  -22.4567  -40.0771   -7.2118 C   0  0  0  0  0  0  0  0  0  0  0  0
  -22.2021  -41.2547   -6.5174 C   0  0  0  0  0  0  0  0  0  0  0  0
  -20.9565  -41.5342   -6.0420 N   0  0  0  0  0  0  0  0  0  0  0  0
  -21.7137  -37.9495   -8.1522 C   0  0  0  0  0  0  0  0  0  0  0  0
  -22.9092  -38.1170   -9.0666 C   0  0  0  0  0  0  0  0  0  0  0  0
  -20.5460  -37.5042   -9.0032 C   0  0  0  0  0  0  0  0  0  0  0  0
  -22.0283  -36.8045   -7.1989 C   0  0  0  0  0  0  0  0  0  0  0  0
  2  1  1  1
  2  3  1  0
  3  4  1  0
  4  5  1  0
  5  6  1  0
  6  7  1  0
  7  8  1  0
  8  9  1  0
  9 10  1  0
 10 11  1  0
 11 12  1  0
 12 13  2  0
 13 14  1  0
 14 15  2  0
 15 16  1  0
 16 17  1  0
 13 18  1  0
 18 19  2  0
 18 20  1  0
 20 21  1  0
 21 22  1  1
 21 23  1  0
 23 24  1  6
 23 25  1  0
 25 26  1  0
 26 27  1  0
 27 28  1  0
 28 29  2  0
 29 30  1  0
 30 31  2  0
 31 32  1  0
 32 33  2  0
 30 34  1  0
 34 35  1  0
 34 36  1  0
 34 37  1  0
 16 11  2  0
 22  2  1  0
 33 28  1  0
M  END
$$$$
