
     RDKit          3D

 37 39  0  0  0  0  0  0  0  0999 V2000
  -14.7586  -35.8644   -9.8029 C   0  0  0  0  0  0  0  0  0  0  0  0
  -14.9912  -37.2136  -10.4662 C   0  0  2  0  0  0  0  0  0  0  0  0
  -15.3464  -36.9179  -11.9058 C   0  0  0  0  0  0  0  0  0  0  0  0
  -14.1303  -36.7153  -12.7542 C   0  0  0  0  0  0  0  0  0  0  0  0
  -13.0269  -37.1330  -12.0637 O   0  0  0  0  0  0  0  0  0  0  0  0
  -11.8706  -36.4413  -12.3606 C   0  0  0  0  0  0  0  0  0  0  0  0
  -11.2767  -37.0275  -13.6205 C   0  0  0  0  0  0  0  0  0  0  0  0
  -11.3270  -38.5173  -13.5889 C   0  0  0  0  0  0  0  0  0  0  0  0
  -10.5708  -39.1197  -12.4073 C   0  0  0  0  0  0  0  0  0  0  0  0
  -11.0018  -40.5053  -12.3474 N   0  0  0  0  0  0  0  0  0  0  0  0
  -12.0657  -41.1370  -11.6352 C   0  0  0  0  0  0  0  0  0  0  0  0
  -13.3642  -40.7345  -11.3906 C   0  0  0  0  0  0  0  0  0  0  0  0
  -14.1665  -41.5671  -10.6344 C   0  0  0  0  0  0  0  0  0  0  0  0
  -13.6366  -42.7907  -10.1454 C   0  0  0  0  0  0  0  0  0  0  0  0
  -12.3607  -43.2162  -10.3716 C   0  0  0  0  0  0  0  0  0  0  0  0
  -11.5860  -42.3707  -11.1234 C   0  0  0  0  0  0  0  0  0  0  0  0
   -9.9354  -42.9535  -11.4419 Cl  0  0  0  0  0  0  0  0  0  0  0  0
  -15.5556  -41.4380  -10.1823 C   0  0  0  0  0  0  0  0  0  0  0  0
  -16.2983  -42.5176  -10.2019 O   0  0  0  0  0  0  0  0  0  0  0  0
  -16.3177  -40.3574   -9.7017 N   0  0  0  0  0  0  0  0  0  0  0  0
  -15.7249  -39.1786   -9.0467 C   0  0  1  0  0  0  0  0  0  0  0  0
  -16.1253  -37.9654   -9.8146 C   0  0  0  0  0  0  0  0  0  0  0  0
  -16.1425  -39.1811   -7.6107 C   0  0  2  0  0  0  0  0  0  0  0  0
  -14.9960  -39.2814   -6.8256 O   0  0  0  0  0  0  0  0  0  0  0  0
  -17.0473  -40.3124   -7.2293 C   0  0  0  0  0  0  0  0  0  0  0  0
  -18.1220  -40.5099   -8.1753 N   0  0  0  0  0  0  0  0  0  0  0  0
  -18.9471  -41.6493   -7.8744 C   0  0  0  0  0  0  0  0  0  0  0  0
  -20.1078  -41.3088   -7.0124 C   0  0  0  0  0  0  0  0  0  0  0  0
  -20.9399  -40.2784   -7.3919 C   0  0  0  0  0  0  0  0  0  0  0  0
  -22.0347  -39.8833   -6.6730 C   0  0  0  0  0  0  0  0  0  0  0  0
  -22.3244  -40.5509   -5.5037 C   0  0  0  0  0  0  0  0  0  0  0  0
  -21.4883  -41.5921   -5.1153 C   0  0  0  0  0  0  0  0  0  0  0  0
  -20.4100  -41.9451   -5.8690 N   0  0  0  0  0  0  0  0  0  0  0  0
  -22.9426  -38.7776   -7.0646 C   0  0  0  0  0  0  0  0  0  0  0  0
  -24.2971  -38.9053   -6.3998 C   0  0  0  0  0  0  0  0  0  0  0  0
  -23.1690  -38.7325   -8.5589 C   0  0  0  0  0  0  0  0  0  0  0  0
  -22.3657  -37.4266   -6.6638 C   0  0  0  0  0  0  0  0  0  0  0  0
  2  1  1  1
  2  3  1  0
  3  4  1  0
  4  5  1  0
  5  6  1  0
  6  7  1  0
  7  8  1  0
  8  9  1  0
  9 10  1  0
 10 11  1  0
 11 12  1  0
 12 13  2  0
 13 14  1  0
 14 15  2  0
 15 16  1  0
 16 17  1  0
 13 18  1  0
 18 19  2  0
 18 20  1  0
 20 21  1  0
 21 22  1  6
 21 23  1  0
 23 24  1  1
 23 25  1  0
 25 26  1  0
 26 27  1  0
 27 28  1  0
 28 29  2  0
 29 30  1  0
 30 31  2  0
 31 32  1  0
 32 33  2  0
 30 34  1  0
 34 35  1  0
 34 36  1  0
 34 37  1  0
 16 11  2  0
 22  2  1  0
 33 28  1  0
M  END
$$$$
