
     RDKit          3D

 37 39  0  0  0  0  0  0  0  0999 V2000
  -21.3361  -38.1564   -8.0913 C   0  0  0  0  0  0  0  0  0  0  0  0
  -20.4570  -39.0779   -7.2592 C   0  0  2  0  0  0  0  0  0  0  0  0
  -20.7616  -38.7561   -5.8136 C   0  0  0  0  0  0  0  0  0  0  0  0
  -21.9767  -39.4779   -5.3214 C   0  0  0  0  0  0  0  0  0  0  0  0
  -22.3161  -40.4499   -6.2207 O   0  0  0  0  0  0  0  0  0  0  0  0
  -23.6682  -40.7147   -6.2936 C   0  0  0  0  0  0  0  0  0  0  0  0
  -24.0284  -41.6593   -5.1704 C   0  0  0  0  0  0  0  0  0  0  0  0
  -23.0114  -42.7416   -5.0390 C   0  0  0  0  0  0  0  0  0  0  0  0
  -22.8580  -43.5798   -6.3058 C   0  0  0  0  0  0  0  0  0  0  0  0
  -21.6302  -44.3322   -6.1168 N   0  0  0  0  0  0  0  0  0  0  0  0
  -20.2780  -44.0446   -6.4729 C   0  0  0  0  0  0  0  0  0  0  0  0
  -19.5524  -42.8703   -6.4237 C   0  0  0  0  0  0  0  0  0  0  0  0
  -18.2444  -42.9006   -6.8675 C   0  0  0  0  0  0  0  0  0  0  0  0
  -17.6994  -44.1207   -7.3486 C   0  0  0  0  0  0  0  0  0  0  0  0
  -18.3891  -45.2958   -7.4076 C   0  0  0  0  0  0  0  0  0  0  0  0
  -19.6847  -45.2373   -6.9623 C   0  0  0  0  0  0  0  0  0  0  0  0
  -20.5625  -46.7842   -7.0105 Cl  0  0  0  0  0  0  0  0  0  0  0  0
  -17.2230  -41.8531   -6.9680 C   0  0  0  0  0  0  0  0  0  0  0  0
  -15.9929  -42.1792   -6.6551 O   0  0  0  0  0  0  0  0  0  0  0  0
  -17.2632  -40.4991   -7.3483 N   0  0  0  0  0  0  0  0  0  0  0  0
  -18.2901  -39.9419   -8.2455 C   0  0  1  0  0  0  0  0  0  0  0  0
  -18.9916  -38.8401   -7.5273 C   0  0  0  0  0  0  0  0  0  0  0  0
  -17.6266  -39.5383   -9.5235 C   0  0  2  0  0  0  0  0  0  0  0  0
  -18.3028  -40.1514  -10.5759 O   0  0  0  0  0  0  0  0  0  0  0  0
  -16.1852  -39.9332   -9.6262 C   0  0  0  0  0  0  0  0  0  0  0  0
  -15.3133  -38.8045   -9.8602 N   0  0  0  0  0  0  0  0  0  0  0  0
  -15.5364  -38.1623  -11.1280 C   0  0  0  0  0  0  0  0  0  0  0  0
  -14.2735  -37.8082  -11.8249 C   0  0  0  0  0  0  0  0  0  0  0  0
  -13.8498  -36.4973  -11.8110 C   0  0  0  0  0  0  0  0  0  0  0  0
  -12.7039  -36.0637  -12.4198 C   0  0  0  0  0  0  0  0  0  0  0  0
  -11.9278  -36.9869  -13.0847 C   0  0  0  0  0  0  0  0  0  0  0  0
  -12.3500  -38.3118  -13.1023 C   0  0  0  0  0  0  0  0  0  0  0  0
  -13.5007  -38.6903  -12.4792 N   0  0  0  0  0  0  0  0  0  0  0  0
  -12.2307  -34.6580  -12.4157 C   0  0  0  0  0  0  0  0  0  0  0  0
  -13.3863  -33.6800  -12.3827 C   0  0  0  0  0  0  0  0  0  0  0  0
  -11.3952  -34.3377  -13.6345 C   0  0  0  0  0  0  0  0  0  0  0  0
  -11.3620  -34.3755  -11.1974 C   0  0  0  0  0  0  0  0  0  0  0  0
  2  1  1  6
  2  3  1  0
  3  4  1  0
  4  5  1  0
  5  6  1  0
  6  7  1  0
  7  8  1  0
  8  9  1  0
  9 10  1  0
 10 11  1  0
 11 12  1  0
 12 13  2  0
 13 14  1  0
 14 15  2  0
 15 16  1  0
 16 17  1  0
 13 18  1  0
 18 19  2  0
 18 20  1  0
 20 21  1  0
 21 22  1  1
 21 23  1  0
 23 24  1  6
 23 25  1  0
 25 26  1  0
 26 27  1  0
 27 28  1  0
 28 29  2  0
 29 30  1  0
 30 31  2  0
 31 32  1  0
 32 33  2  0
 30 34  1  0
 34 35  1  0
 34 36  1  0
 34 37  1  0
 16 11  2  0
 22  2  1  0
 33 28  1  0
M  END
$$$$
