
     RDKit          3D

 37 39  0  0  0  0  0  0  0  0999 V2000
  -13.7476  -38.0085   -9.2714 C   0  0  0  0  0  0  0  0  0  0  0  0
  -15.2018  -37.5622   -9.2553 C   0  0  2  0  0  0  0  0  0  0  0  0
  -15.1809  -36.0724   -8.9983 C   0  0  0  0  0  0  0  0  0  0  0  0
  -14.9589  -35.2889  -10.2540 C   0  0  0  0  0  0  0  0  0  0  0  0
  -15.1202  -36.1139  -11.3320 O   0  0  0  0  0  0  0  0  0  0  0  0
  -14.3412  -35.7882  -12.4232 C   0  0  0  0  0  0  0  0  0  0  0  0
  -15.0351  -34.6867  -13.1904 C   0  0  0  0  0  0  0  0  0  0  0  0
  -16.4961  -34.9600  -13.3087 C   0  0  0  0  0  0  0  0  0  0  0  0
  -16.8064  -36.2745  -14.0206 C   0  0  0  0  0  0  0  0  0  0  0  0
  -18.2094  -36.5319  -13.7477 N   0  0  0  0  0  0  0  0  0  0  0  0
  -18.8535  -37.2627  -12.7041 C   0  0  0  0  0  0  0  0  0  0  0  0
  -18.5869  -37.3466  -11.3514 C   0  0  0  0  0  0  0  0  0  0  0  0
  -19.3876  -38.1721  -10.5856 C   0  0  0  0  0  0  0  0  0  0  0  0
  -20.4427  -38.8919  -11.2066 C   0  0  0  0  0  0  0  0  0  0  0  0
  -20.7319  -38.8283  -12.5380 C   0  0  0  0  0  0  0  0  0  0  0  0
  -19.9214  -38.0031  -13.2745 C   0  0  0  0  0  0  0  0  0  0  0  0
  -20.3312  -37.9008  -15.0029 Cl  0  0  0  0  0  0  0  0  0  0  0  0
  -19.3682  -38.4989   -9.1561 C   0  0  0  0  0  0  0  0  0  0  0  0
  -20.5235  -38.6060   -8.5469 O   0  0  0  0  0  0  0  0  0  0  0  0
  -18.3322  -38.7405   -8.2353 N   0  0  0  0  0  0  0  0  0  0  0  0
  -17.0001  -39.2318   -8.6280 C   0  0  1  0  0  0  0  0  0  0  0  0
  -15.9819  -38.2483   -8.1613 C   0  0  0  0  0  0  0  0  0  0  0  0
  -16.8330  -40.6160   -8.0871 C   0  0  2  0  0  0  0  0  0  0  0  0
  -15.6342  -41.1309   -8.5755 O   0  0  0  0  0  0  0  0  0  0  0  0
  -17.9214  -41.5695   -8.4746 C   0  0  0  0  0  0  0  0  0  0  0  0
  -18.1985  -42.5468   -7.4466 N   0  0  0  0  0  0  0  0  0  0  0  0
  -19.2173  -43.4928   -7.8160 C   0  0  0  0  0  0  0  0  0  0  0  0
  -20.5597  -43.1264   -7.2965 C   0  0  0  0  0  0  0  0  0  0  0  0
  -20.6890  -41.9917   -6.5260 C   0  0  0  0  0  0  0  0  0  0  0  0
  -21.8767  -41.5639   -5.9987 C   0  0  0  0  0  0  0  0  0  0  0  0
  -23.0087  -42.3069   -6.2501 C   0  0  0  0  0  0  0  0  0  0  0  0
  -22.8848  -43.4534   -7.0272 C   0  0  0  0  0  0  0  0  0  0  0  0
  -21.6769  -43.8348   -7.5284 N   0  0  0  0  0  0  0  0  0  0  0  0
  -22.0365  -40.3456   -5.1678 C   0  0  0  0  0  0  0  0  0  0  0  0
  -23.4252  -39.7566   -5.3019 C   0  0  0  0  0  0  0  0  0  0  0  0
  -21.0446  -39.2684   -5.5446 C   0  0  0  0  0  0  0  0  0  0  0  0
  -21.8150  -40.6546   -3.6933 C   0  0  0  0  0  0  0  0  0  0  0  0
  2  1  1  1
  2  3  1  0
  3  4  1  0
  4  5  1  0
  5  6  1  0
  6  7  1  0
  7  8  1  0
  8  9  1  0
  9 10  1  0
 10 11  1  0
 11 12  1  0
 12 13  2  0
 13 14  1  0
 14 15  2  0
 15 16  1  0
 16 17  1  0
 13 18  1  0
 18 19  2  0
 18 20  1  0
 20 21  1  0
 21 22  1  1
 21 23  1  0
 23 24  1  6
 23 25  1  0
 25 26  1  0
 26 27  1  0
 27 28  1  0
 28 29  2  0
 29 30  1  0
 30 31  2  0
 31 32  1  0
 32 33  2  0
 30 34  1  0
 34 35  1  0
 34 36  1  0
 34 37  1  0
 16 11  2  0
 22  2  1  0
 33 28  1  0
M  END
$$$$
