
     RDKit          3D

 37 39  0  0  0  0  0  0  0  0999 V2000
  -19.4747  -38.6549   -4.8271 C   0  0  0  0  0  0  0  0  0  0  0  0
  -19.6608  -39.9031   -5.6765 C   0  0  2  0  0  0  0  0  0  0  0  0
  -20.6196  -40.7901   -4.9147 C   0  0  0  0  0  0  0  0  0  0  0  0
  -22.0474  -40.4152   -5.1605 C   0  0  0  0  0  0  0  0  0  0  0  0
  -22.1099  -39.5602   -6.2254 O   0  0  0  0  0  0  0  0  0  0  0  0
  -23.1393  -38.6436   -6.1634 C   0  0  0  0  0  0  0  0  0  0  0  0
  -24.4016  -39.3131   -6.6552 C   0  0  0  0  0  0  0  0  0  0  0  0
  -24.1318  -40.1254   -7.8760 C   0  0  0  0  0  0  0  0  0  0  0  0
  -23.5729  -39.3028   -9.0344 C   0  0  0  0  0  0  0  0  0  0  0  0
  -23.0665  -40.2786   -9.9833 N   0  0  0  0  0  0  0  0  0  0  0  0
  -21.7755  -40.8676  -10.1392 C   0  0  0  0  0  0  0  0  0  0  0  0
  -20.8592  -41.3152   -9.2076 C   0  0  0  0  0  0  0  0  0  0  0  0
  -19.6622  -41.8249   -9.6726 C   0  0  0  0  0  0  0  0  0  0  0  0
  -19.4212  -41.8728  -11.0714 C   0  0  0  0  0  0  0  0  0  0  0  0
  -20.3061  -41.4410  -12.0152 C   0  0  0  0  0  0  0  0  0  0  0  0
  -21.4848  -40.9391  -11.5265 C   0  0  0  0  0  0  0  0  0  0  0  0
  -22.6453  -40.4126  -12.7682 Cl  0  0  0  0  0  0  0  0  0  0  0  0
  -18.4890  -42.3562   -8.9712 C   0  0  0  0  0  0  0  0  0  0  0  0
  -17.9013  -43.4063   -9.4900 O   0  0  0  0  0  0  0  0  0  0  0  0
  -17.8083  -41.9725   -7.8011 N   0  0  0  0  0  0  0  0  0  0  0  0
  -17.8212  -40.5975   -7.2728 C   0  0  1  0  0  0  0  0  0  0  0  0
  -18.3577  -40.6348   -5.8826 C   0  0  0  0  0  0  0  0  0  0  0  0
  -16.4419  -40.0336   -7.4005 C   0  0  2  0  0  0  0  0  0  0  0  0
  -15.5710  -40.8508   -6.6832 O   0  0  0  0  0  0  0  0  0  0  0  0
  -16.2890  -38.6410   -6.8703 C   0  0  0  0  0  0  0  0  0  0  0  0
  -16.1660  -37.6552   -7.9200 N   0  0  0  0  0  0  0  0  0  0  0  0
  -14.8370  -37.5591   -8.4619 C   0  0  0  0  0  0  0  0  0  0  0  0
  -14.8230  -37.4914   -9.9456 C   0  0  0  0  0  0  0  0  0  0  0  0
  -14.9270  -36.2613  -10.5575 C   0  0  0  0  0  0  0  0  0  0  0  0
  -14.9244  -36.0862  -11.9143 C   0  0  0  0  0  0  0  0  0  0  0  0
  -14.8117  -37.1998  -12.7167 C   0  0  0  0  0  0  0  0  0  0  0  0
  -14.7064  -38.4443  -12.1052 C   0  0  0  0  0  0  0  0  0  0  0  0
  -14.7142  -38.5627  -10.7481 N   0  0  0  0  0  0  0  0  0  0  0  0
  -15.0345  -34.7712  -12.5917 C   0  0  0  0  0  0  0  0  0  0  0  0
  -16.4797  -34.3637  -12.7881 C   0  0  0  0  0  0  0  0  0  0  0  0
  -14.3723  -34.7767  -13.9509 C   0  0  0  0  0  0  0  0  0  0  0  0
  -14.3609  -33.6761  -11.7759 C   0  0  0  0  0  0  0  0  0  0  0  0
  2  1  1  1
  2  3  1  0
  3  4  1  0
  4  5  1  0
  5  6  1  0
  6  7  1  0
  7  8  1  0
  8  9  1  0
  9 10  1  0
 10 11  1  0
 11 12  1  0
 12 13  2  0
 13 14  1  0
 14 15  2  0
 15 16  1  0
 16 17  1  0
 13 18  1  0
 18 19  2  0
 18 20  1  0
 20 21  1  0
 21 22  1  1
 21 23  1  0
 23 24  1  1
 23 25  1  0
 25 26  1  0
 26 27  1  0
 27 28  1  0
 28 29  2  0
 29 30  1  0
 30 31  2  0
 31 32  1  0
 32 33  2  0
 30 34  1  0
 34 35  1  0
 34 36  1  0
 34 37  1  0
 16 11  2  0
 22  2  1  0
 33 28  1  0
M  END
$$$$
