
     RDKit          3D

 37 39  0  0  0  0  0  0  0  0999 V2000
  -11.9789  -38.8205   -9.1394 C   0  0  0  0  0  0  0  0  0  0  0  0
  -13.0701  -39.3731  -10.0439 C   0  0  2  0  0  0  0  0  0  0  0  0
  -12.5752  -39.1873  -11.4605 C   0  0  0  0  0  0  0  0  0  0  0  0
  -11.6655  -40.2963  -11.8876 C   0  0  0  0  0  0  0  0  0  0  0  0
  -11.7542  -41.3212  -10.9874 O   0  0  0  0  0  0  0  0  0  0  0  0
  -10.5923  -42.0491  -10.8330 C   0  0  0  0  0  0  0  0  0  0  0  0
  -10.5166  -43.0652  -11.9490 C   0  0  0  0  0  0  0  0  0  0  0  0
  -11.8404  -43.7159  -12.1664 C   0  0  0  0  0  0  0  0  0  0  0  0
  -12.3657  -44.4389  -10.9285 C   0  0  0  0  0  0  0  0  0  0  0  0
  -13.7650  -44.7065  -11.2105 N   0  0  0  0  0  0  0  0  0  0  0  0
  -14.9476  -43.9554  -10.9363 C   0  0  0  0  0  0  0  0  0  0  0  0
  -15.2041  -42.6000  -11.0092 C   0  0  0  0  0  0  0  0  0  0  0  0
  -16.4642  -42.1613  -10.6508 C   0  0  0  0  0  0  0  0  0  0  0  0
  -17.4377  -43.1056  -10.2295 C   0  0  0  0  0  0  0  0  0  0  0  0
  -17.2156  -44.4489  -10.1493 C   0  0  0  0  0  0  0  0  0  0  0  0
  -15.9571  -44.8569  -10.5093 C   0  0  0  0  0  0  0  0  0  0  0  0
  -15.6909  -46.6145  -10.4349 Cl  0  0  0  0  0  0  0  0  0  0  0  0
  -17.0515  -40.8187  -10.5958 C   0  0  0  0  0  0  0  0  0  0  0  0
  -18.2933  -40.6875  -10.9932 O   0  0  0  0  0  0  0  0  0  0  0  0
  -16.5587  -39.5656  -10.1875 N   0  0  0  0  0  0  0  0  0  0  0  0
  -15.4633  -39.4057   -9.2156 C   0  0  1  0  0  0  0  0  0  0  0  0
  -14.3701  -38.6286   -9.8657 C   0  0  0  0  0  0  0  0  0  0  0  0
  -16.0243  -38.7867   -7.9751 C   0  0  2  0  0  0  0  0  0  0  0  0
  -16.4205  -39.8122   -7.1195 O   0  0  0  0  0  0  0  0  0  0  0  0
  -17.2159  -37.9082   -8.2040 C   0  0  0  0  0  0  0  0  0  0  0  0
  -18.0792  -37.8274   -7.0477 N   0  0  0  0  0  0  0  0  0  0  0  0
  -19.2761  -38.6160   -7.1711 C   0  0  0  0  0  0  0  0  0  0  0  0
  -20.0144  -38.3495   -8.4320 C   0  0  0  0  0  0  0  0  0  0  0  0
  -21.1438  -39.0875   -8.7115 C   0  0  0  0  0  0  0  0  0  0  0  0
  -21.8968  -38.9236   -9.8418 C   0  0  0  0  0  0  0  0  0  0  0  0
  -21.5069  -37.9681  -10.7539 C   0  0  0  0  0  0  0  0  0  0  0  0
  -20.3677  -37.2199  -10.4776 C   0  0  0  0  0  0  0  0  0  0  0  0
  -19.6536  -37.4239   -9.3356 N   0  0  0  0  0  0  0  0  0  0  0  0
  -23.1154  -39.7070  -10.1604 C   0  0  0  0  0  0  0  0  0  0  0  0
  -23.0822  -41.0772   -9.5165 C   0  0  0  0  0  0  0  0  0  0  0  0
  -23.2885  -39.9054  -11.6492 C   0  0  0  0  0  0  0  0  0  0  0  0
  -24.3679  -39.0004   -9.6598 C   0  0  0  0  0  0  0  0  0  0  0  0
  2  1  1  1
  2  3  1  0
  3  4  1  0
  4  5  1  0
  5  6  1  0
  6  7  1  0
  7  8  1  0
  8  9  1  0
  9 10  1  0
 10 11  1  0
 11 12  1  0
 12 13  2  0
 13 14  1  0
 14 15  2  0
 15 16  1  0
 16 17  1  0
 13 18  1  0
 18 19  2  0
 18 20  1  0
 20 21  1  0
 21 22  1  6
 21 23  1  0
 23 24  1  1
 23 25  1  0
 25 26  1  0
 26 27  1  0
 27 28  1  0
 28 29  2  0
 29 30  1  0
 30 31  2  0
 31 32  1  0
 32 33  2  0
 30 34  1  0
 34 35  1  0
 34 36  1  0
 34 37  1  0
 16 11  2  0
 22  2  1  0
 33 28  1  0
M  END
$$$$
