
     RDKit          3D

 37 39  0  0  0  0  0  0  0  0999 V2000
  -23.9636  -43.6386   -4.1970 C   0  0  0  0  0  0  0  0  0  0  0  0
  -22.7827  -44.5785   -4.4678 C   0  0  0  0  0  0  0  0  0  0  0  0
  -21.9417  -43.8965   -5.4211 N   0  0  0  0  0  0  0  0  0  0  0  0
  -21.6896  -42.4994   -5.2236 C   0  0  0  0  0  0  0  0  0  0  0  0
  -22.4565  -41.4110   -5.8576 C   0  0  0  0  0  0  0  0  0  0  0  0
  -22.0432  -40.8047   -7.1303 C   0  0  0  0  0  0  0  0  0  0  0  0
  -21.5507  -39.3507   -7.1844 C   0  0  0  0  0  0  0  0  0  0  0  0
  -20.8303  -39.0930   -8.4978 C   0  0  0  0  0  0  0  0  0  0  0  0
  -19.5623  -38.2967   -8.4971 C   0  0  1  0  0  0  0  0  0  0  0  0
  -19.2904  -37.4916   -7.2451 C   0  0  0  0  0  0  0  0  0  0  0  0
  -18.3985  -38.6684   -9.3131 C   0  0  0  0  0  0  0  0  0  0  0  0
  -17.1284  -39.2370   -8.9412 C   0  0  2  0  0  0  0  0  0  0  0  0
  -17.0233  -40.3952   -8.0145 N   0  0  0  0  0  0  0  0  0  0  0  0
  -18.1020  -41.2473   -7.7828 C   0  0  0  0  0  0  0  0  0  0  0  0
  -18.8784  -40.5987   -6.8184 O   0  0  0  0  0  0  0  0  0  0  0  0
  -18.8292  -42.4838   -8.0555 C   0  0  0  0  0  0  0  0  0  0  0  0
  -19.3023  -43.4440   -7.1262 C   0  0  0  0  0  0  0  0  0  0  0  0
  -20.3615  -44.2168   -7.4964 C   0  0  0  0  0  0  0  0  0  0  0  0
  -20.9566  -44.1437   -8.7552 C   0  0  0  0  0  0  0  0  0  0  0  0
  -20.5190  -43.2478   -9.7102 C   0  0  0  0  0  0  0  0  0  0  0  0
  -19.4833  -42.4600   -9.3047 C   0  0  0  0  0  0  0  0  0  0  0  0
  -21.4209  -44.7220   -6.4916 C   0  0  0  0  0  0  0  0  0  0  0  0
  -21.8183  -45.8628   -6.6413 O   0  0  0  0  0  0  0  0  0  0  0  0
  -16.0500  -38.2816   -8.4992 C   0  0  2  0  0  0  0  0  0  0  0  0
  -16.4595  -36.9936   -8.2748 O   0  0  0  0  0  0  0  0  0  0  0  0
  -14.7424  -38.4593   -9.1790 C   0  0  0  0  0  0  0  0  0  0  0  0
  -13.9849  -39.6123   -8.8598 N   0  0  0  0  0  0  0  0  0  0  0  0
  -13.5996  -40.4513   -9.9648 C   0  0  0  0  0  0  0  0  0  0  0  0
  -13.1795  -39.6362  -11.1472 C   0  0  0  0  0  0  0  0  0  0  0  0
  -13.2036  -38.2715  -11.0520 C   0  0  0  0  0  0  0  0  0  0  0  0
  -12.8160  -37.4378  -12.1081 C   0  0  0  0  0  0  0  0  0  0  0  0
  -12.4030  -38.0292  -13.2648 C   0  0  0  0  0  0  0  0  0  0  0  0
  -12.3775  -39.4019  -13.3649 C   0  0  0  0  0  0  0  0  0  0  0  0
  -12.7606  -40.2166  -12.3207 C   0  0  0  0  0  0  0  0  0  0  0  0
  -12.8720  -35.9657  -11.9291 C   0  0  0  0  0  0  0  0  0  0  0  0
  -11.4830  -35.3745  -12.1525 C   0  0  0  0  0  0  0  0  0  0  0  0
  -13.8228  -35.3004  -12.8979 C   0  0  0  0  0  0  0  0  0  0  0  0
  1  2  1  0
  2  3  1  0
  3  4  1  0
  4  5  1  0
  5  6  1  0
  6  7  1  0
  7  8  1  0
  8  9  1  0
  9 10  1  1
  9 11  1  0
 12 11  1  1
 12 13  1  0
 13 14  1  0
 14 15  2  0
 14 16  1  0
 16 17  2  0
 17 18  1  0
 18 19  2  0
 19 20  1  0
 20 21  2  0
 18 22  1  0
 22 23  2  0
 12 24  1  0
 24 25  1  6
 24 26  1  0
 26 27  1  0
 27 28  1  0
 28 29  1  0
 29 30  2  0
 30 31  1  0
 31 32  2  0
 32 33  1  0
 33 34  2  0
 31 35  1  0
 35 36  1  0
 35 37  1  0
 21 16  1  0
 22  3  1  0
 34 29  1  0
M  END
$$$$
