
     RDKit          3D

 37 39  0  0  0  0  0  0  0  0999 V2000
  -25.0403  -45.2148   -5.6974 C   0  0  0  0  0  0  0  0  0  0  0  0
  -23.6627  -45.6253   -5.1634 C   0  0  0  0  0  0  0  0  0  0  0  0
  -22.6988  -44.8737   -5.9298 N   0  0  0  0  0  0  0  0  0  0  0  0
  -22.3568  -43.5559   -5.4816 C   0  0  0  0  0  0  0  0  0  0  0  0
  -22.9852  -42.3145   -5.9703 C   0  0  0  0  0  0  0  0  0  0  0  0
  -22.4268  -41.5470   -7.0916 C   0  0  0  0  0  0  0  0  0  0  0  0
  -21.8216  -40.1534   -6.8655 C   0  0  0  0  0  0  0  0  0  0  0  0
  -20.9815  -39.7490   -8.0659 C   0  0  0  0  0  0  0  0  0  0  0  0
  -19.6602  -39.0794   -7.8468 C   0  0  1  0  0  0  0  0  0  0  0  0
  -19.4277  -38.5178   -6.4611 C   0  0  0  0  0  0  0  0  0  0  0  0
  -18.4672  -39.4144   -8.6361 C   0  0  0  0  0  0  0  0  0  0  0  0
  -17.2780  -40.1469   -8.2838 C   0  0  2  0  0  0  0  0  0  0  0  0
  -17.3359  -41.4459   -7.5626 N   0  0  0  0  0  0  0  0  0  0  0  0
  -18.4918  -42.2252   -7.5503 C   0  0  0  0  0  0  0  0  0  0  0  0
  -19.2904  -41.6770   -6.5426 O   0  0  0  0  0  0  0  0  0  0  0  0
  -19.2877  -43.3307   -8.0761 C   0  0  0  0  0  0  0  0  0  0  0  0
  -19.9054  -44.3843   -7.3566 C   0  0  0  0  0  0  0  0  0  0  0  0
  -20.9879  -44.9887   -7.9213 C   0  0  0  0  0  0  0  0  0  0  0  0
  -21.4737  -44.6577   -9.1856 C   0  0  0  0  0  0  0  0  0  0  0  0
  -20.8943  -43.6599   -9.9437 C   0  0  0  0  0  0  0  0  0  0  0  0
  -19.8367  -43.0445   -9.3432 C   0  0  0  0  0  0  0  0  0  0  0  0
  -22.1594  -45.5556   -7.0886 C   0  0  0  0  0  0  0  0  0  0  0  0
  -22.6299  -46.6165   -7.4557 O   0  0  0  0  0  0  0  0  0  0  0  0
  -16.1681  -39.3764   -7.6162 C   0  0  2  0  0  0  0  0  0  0  0  0
  -16.3857  -38.0310   -7.4765 O   0  0  0  0  0  0  0  0  0  0  0  0
  -14.7977  -39.7961   -8.0025 C   0  0  0  0  0  0  0  0  0  0  0  0
  -13.7485  -38.8610   -7.8295 N   0  0  0  0  0  0  0  0  0  0  0  0
  -13.7382  -37.7366   -8.7289 C   0  0  0  0  0  0  0  0  0  0  0  0
  -13.4855  -38.1691  -10.1389 C   0  0  0  0  0  0  0  0  0  0  0  0
  -13.3614  -37.2146  -11.1113 C   0  0  0  0  0  0  0  0  0  0  0  0
  -13.1135  -37.5354  -12.4516 C   0  0  0  0  0  0  0  0  0  0  0  0
  -12.9953  -38.8538  -12.7772 C   0  0  0  0  0  0  0  0  0  0  0  0
  -13.1197  -39.8174  -11.8019 C   0  0  0  0  0  0  0  0  0  0  0  0
  -13.3638  -39.4941  -10.4840 C   0  0  0  0  0  0  0  0  0  0  0  0
  -12.9938  -36.4434  -13.4493 C   0  0  0  0  0  0  0  0  0  0  0  0
  -11.7757  -35.5857  -13.1187 C   0  0  0  0  0  0  0  0  0  0  0  0
  -12.8288  -36.9630  -14.8593 C   0  0  0  0  0  0  0  0  0  0  0  0
  1  2  1  0
  2  3  1  0
  3  4  1  0
  4  5  1  0
  5  6  1  0
  6  7  1  0
  7  8  1  0
  8  9  1  0
  9 10  1  1
  9 11  1  0
 12 11  1  1
 12 13  1  0
 13 14  1  0
 14 15  2  0
 14 16  1  0
 16 17  2  0
 17 18  1  0
 18 19  2  0
 19 20  1  0
 20 21  2  0
 18 22  1  0
 22 23  2  0
 12 24  1  0
 24 25  1  6
 24 26  1  0
 26 27  1  0
 27 28  1  0
 28 29  1  0
 29 30  2  0
 30 31  1  0
 31 32  2  0
 32 33  1  0
 33 34  2  0
 31 35  1  0
 35 36  1  0
 35 37  1  0
 21 16  1  0
 22  3  1  0
 34 29  1  0
M  END
$$$$
