
     RDKit          3D

 37 39  0  0  0  0  0  0  0  0999 V2000
  -22.5643  -45.6491   -3.4956 C   0  0  0  0  0  0  0  0  0  0  0  0
  -23.3897  -45.2048   -4.7091 C   0  0  0  0  0  0  0  0  0  0  0  0
  -22.4758  -44.5017   -5.5761 N   0  0  0  0  0  0  0  0  0  0  0  0
  -22.2878  -43.0965   -5.3649 C   0  0  0  0  0  0  0  0  0  0  0  0
  -23.0178  -42.0355   -6.0832 C   0  0  0  0  0  0  0  0  0  0  0  0
  -22.4939  -41.4229   -7.3113 C   0  0  0  0  0  0  0  0  0  0  0  0
  -22.0428  -39.9546   -7.3261 C   0  0  0  0  0  0  0  0  0  0  0  0
  -21.1988  -39.6811   -8.5604 C   0  0  0  0  0  0  0  0  0  0  0  0
  -19.9623  -38.8459   -8.4354 C   0  0  1  0  0  0  0  0  0  0  0  0
  -19.8455  -38.0268   -7.1686 C   0  0  0  0  0  0  0  0  0  0  0  0
  -18.7098  -39.1854   -9.1242 C   0  0  0  0  0  0  0  0  0  0  0  0
  -17.4682  -39.7127   -8.6189 C   0  0  2  0  0  0  0  0  0  0  0  0
  -17.4243  -40.8625   -7.6771 N   0  0  0  0  0  0  0  0  0  0  0  0
  -18.4949  -41.7465   -7.5510 C   0  0  0  0  0  0  0  0  0  0  0  0
  -19.3859  -41.1175   -6.6768 O   0  0  0  0  0  0  0  0  0  0  0  0
  -19.1522  -43.0061   -7.8872 C   0  0  0  0  0  0  0  0  0  0  0  0
  -19.6895  -43.9760   -7.0039 C   0  0  0  0  0  0  0  0  0  0  0  0
  -20.6809  -44.7830   -7.4750 C   0  0  0  0  0  0  0  0  0  0  0  0
  -21.1448  -44.7345   -8.7890 C   0  0  0  0  0  0  0  0  0  0  0  0
  -20.6384  -43.8301   -9.7010 C   0  0  0  0  0  0  0  0  0  0  0  0
  -19.6744  -43.0087   -9.1972 C   0  0  0  0  0  0  0  0  0  0  0  0
  -21.8225  -45.3159   -6.5807 C   0  0  0  0  0  0  0  0  0  0  0  0
  -22.1676  -46.4691   -6.7614 O   0  0  0  0  0  0  0  0  0  0  0  0
  -16.4707  -38.7222   -8.0759 C   0  0  2  0  0  0  0  0  0  0  0  0
  -17.0065  -37.5909   -7.5191 O   0  0  0  0  0  0  0  0  0  0  0  0
  -15.2513  -38.5473   -8.9043 C   0  0  0  0  0  0  0  0  0  0  0  0
  -14.6239  -39.7125   -9.4079 N   0  0  0  0  0  0  0  0  0  0  0  0
  -13.2107  -39.6177   -9.6669 C   0  0  0  0  0  0  0  0  0  0  0  0
  -12.9410  -38.9657  -10.9864 C   0  0  0  0  0  0  0  0  0  0  0  0
  -12.4112  -37.7044  -11.0049 C   0  0  0  0  0  0  0  0  0  0  0  0
  -12.1195  -37.0295  -12.1966 C   0  0  0  0  0  0  0  0  0  0  0  0
  -12.3813  -37.6718  -13.3701 C   0  0  0  0  0  0  0  0  0  0  0  0
  -12.9146  -38.9408  -13.3560 C   0  0  0  0  0  0  0  0  0  0  0  0
  -13.1993  -39.5993  -12.1786 C   0  0  0  0  0  0  0  0  0  0  0  0
  -11.5478  -35.6615  -12.1350 C   0  0  0  0  0  0  0  0  0  0  0  0
  -12.2045  -34.8882  -10.9950 C   0  0  0  0  0  0  0  0  0  0  0  0
  -10.0554  -35.6679  -11.8944 C   0  0  0  0  0  0  0  0  0  0  0  0
  1  2  1  0
  2  3  1  0
  3  4  1  0
  4  5  1  0
  5  6  1  0
  6  7  1  0
  7  8  1  0
  8  9  1  0
  9 10  1  1
  9 11  1  0
 12 11  1  1
 12 13  1  0
 13 14  1  0
 14 15  2  0
 14 16  1  0
 16 17  2  0
 17 18  1  0
 18 19  2  0
 19 20  1  0
 20 21  2  0
 18 22  1  0
 22 23  2  0
 12 24  1  0
 24 25  1  6
 24 26  1  0
 26 27  1  0
 27 28  1  0
 28 29  1  0
 29 30  2  0
 30 31  1  0
 31 32  2  0
 32 33  1  0
 33 34  2  0
 31 35  1  0
 35 36  1  0
 35 37  1  0
 21 16  1  0
 22  3  1  0
 34 29  1  0
M  END
$$$$
