
     RDKit          3D

 37 39  0  0  0  0  0  0  0  0999 V2000
  -21.5583  -47.4080   -5.1181 C   0  0  0  0  0  0  0  0  0  0  0  0
  -22.4497  -46.1684   -4.9766 C   0  0  0  0  0  0  0  0  0  0  0  0
  -21.8120  -45.1295   -5.7480 N   0  0  0  0  0  0  0  0  0  0  0  0
  -21.4303  -43.9234   -5.0742 C   0  0  0  0  0  0  0  0  0  0  0  0
  -22.2515  -42.7000   -5.0151 C   0  0  0  0  0  0  0  0  0  0  0  0
  -22.1083  -41.6165   -5.9968 C   0  0  0  0  0  0  0  0  0  0  0  0
  -21.5485  -40.2480   -5.5803 C   0  0  0  0  0  0  0  0  0  0  0  0
  -21.1395  -39.4557   -6.8113 C   0  0  0  0  0  0  0  0  0  0  0  0
  -19.8573  -38.6825   -6.7957 C   0  0  1  0  0  0  0  0  0  0  0  0
  -19.2487  -38.4431   -5.4312 C   0  0  0  0  0  0  0  0  0  0  0  0
  -18.9430  -38.6506   -7.9452 C   0  0  0  0  0  0  0  0  0  0  0  0
  -17.6609  -39.2750   -8.1485 C   0  0  2  0  0  0  0  0  0  0  0  0
  -17.4179  -40.7042   -7.8182 N   0  0  0  0  0  0  0  0  0  0  0  0
  -18.4659  -41.6155   -7.6960 C   0  0  0  0  0  0  0  0  0  0  0  0
  -18.9517  -41.4404   -6.3971 O   0  0  0  0  0  0  0  0  0  0  0  0
  -19.3155  -42.6615   -8.2581 C   0  0  0  0  0  0  0  0  0  0  0  0
  -19.6200  -43.9318   -7.7075 C   0  0  0  0  0  0  0  0  0  0  0  0
  -20.7844  -44.5265   -8.0905 C   0  0  0  0  0  0  0  0  0  0  0  0
  -21.6509  -43.9723   -9.0318 C   0  0  0  0  0  0  0  0  0  0  0  0
  -21.3911  -42.7517   -9.6224 C   0  0  0  0  0  0  0  0  0  0  0  0
  -20.2403  -42.1584   -9.1965 C   0  0  0  0  0  0  0  0  0  0  0  0
  -21.6104  -45.4326   -7.1503 C   0  0  0  0  0  0  0  0  0  0  0  0
  -22.1052  -46.4289   -7.6444 O   0  0  0  0  0  0  0  0  0  0  0  0
  -16.4493  -38.5415   -7.6335 C   0  0  2  0  0  0  0  0  0  0  0  0
  -16.7106  -37.4228   -6.8872 O   0  0  0  0  0  0  0  0  0  0  0  0
  -15.3172  -38.4585   -8.5901 C   0  0  0  0  0  0  0  0  0  0  0  0
  -14.0065  -38.6037   -8.0744 N   0  0  0  0  0  0  0  0  0  0  0  0
  -12.9413  -38.6662   -9.0412 C   0  0  0  0  0  0  0  0  0  0  0  0
  -12.9519  -37.4712   -9.9416 C   0  0  0  0  0  0  0  0  0  0  0  0
  -11.8560  -37.2213  -10.7219 C   0  0  0  0  0  0  0  0  0  0  0  0
  -11.7908  -36.1314  -11.5986 C   0  0  0  0  0  0  0  0  0  0  0  0
  -12.8704  -35.3015  -11.6607 C   0  0  0  0  0  0  0  0  0  0  0  0
  -13.9749  -35.5491  -10.8772 C   0  0  0  0  0  0  0  0  0  0  0  0
  -14.0321  -36.6245  -10.0161 C   0  0  0  0  0  0  0  0  0  0  0  0
  -10.5662  -35.9254  -12.4109 C   0  0  0  0  0  0  0  0  0  0  0  0
  -10.9530  -35.3780  -13.7818 C   0  0  0  0  0  0  0  0  0  0  0  0
   -9.6060  -34.9475  -11.7729 C   0  0  0  0  0  0  0  0  0  0  0  0
  1  2  1  0
  2  3  1  0
  3  4  1  0
  4  5  1  0
  5  6  1  0
  6  7  1  0
  7  8  1  0
  8  9  1  0
  9 10  1  1
  9 11  1  0
 12 11  1  1
 12 13  1  0
 13 14  1  0
 14 15  2  0
 14 16  1  0
 16 17  2  0
 17 18  1  0
 18 19  2  0
 19 20  1  0
 20 21  2  0
 18 22  1  0
 22 23  2  0
 12 24  1  0
 24 25  1  6
 24 26  1  0
 26 27  1  0
 27 28  1  0
 28 29  1  0
 29 30  2  0
 30 31  1  0
 31 32  2  0
 32 33  1  0
 33 34  2  0
 31 35  1  0
 35 36  1  0
 35 37  1  0
 21 16  1  0
 22  3  1  0
 34 29  1  0
M  END
$$$$
