
     RDKit          3D

 37 39  0  0  0  0  0  0  0  0999 V2000
  -22.8292  -43.8221   -2.5632 C   0  0  0  0  0  0  0  0  0  0  0  0
  -23.4186  -44.0921   -3.9528 C   0  0  0  0  0  0  0  0  0  0  0  0
  -22.4768  -43.5435   -4.8979 N   0  0  0  0  0  0  0  0  0  0  0  0
  -22.0875  -42.1722   -4.7475 C   0  0  0  0  0  0  0  0  0  0  0  0
  -22.7130  -41.0404   -5.4562 C   0  0  0  0  0  0  0  0  0  0  0  0
  -22.1925  -40.5374   -6.7347 C   0  0  0  0  0  0  0  0  0  0  0  0
  -21.5493  -39.1456   -6.8279 C   0  0  0  0  0  0  0  0  0  0  0  0
  -20.7585  -39.0224   -8.1202 C   0  0  0  0  0  0  0  0  0  0  0  0
  -19.4152  -38.3614   -8.1001 C   0  0  1  0  0  0  0  0  0  0  0  0
  -19.1066  -37.5332   -6.8720 C   0  0  0  0  0  0  0  0  0  0  0  0
  -18.2676  -38.8869   -8.8520 C   0  0  0  0  0  0  0  0  0  0  0  0
  -17.0782  -39.5658   -8.4054 C   0  0  2  0  0  0  0  0  0  0  0  0
  -17.1284  -40.6858   -7.4288 N   0  0  0  0  0  0  0  0  0  0  0  0
  -18.2980  -41.4114   -7.2068 C   0  0  0  0  0  0  0  0  0  0  0  0
  -19.0370  -40.6438   -6.3022 O   0  0  0  0  0  0  0  0  0  0  0  0
  -19.1398  -42.5776   -7.4583 C   0  0  0  0  0  0  0  0  0  0  0  0
  -19.7442  -43.4415   -6.5107 C   0  0  0  0  0  0  0  0  0  0  0  0
  -20.8640  -44.1172   -6.8921 C   0  0  0  0  0  0  0  0  0  0  0  0
  -21.4019  -44.0399   -8.1761 C   0  0  0  0  0  0  0  0  0  0  0  0
  -20.8387  -43.2374   -9.1482 C   0  0  0  0  0  0  0  0  0  0  0  0
  -19.7419  -42.5428   -8.7331 C   0  0  0  0  0  0  0  0  0  0  0  0
  -22.0063  -44.4653   -5.9116 C   0  0  0  0  0  0  0  0  0  0  0  0
  -22.5149  -45.5648   -6.0308 O   0  0  0  0  0  0  0  0  0  0  0  0
  -15.9228  -38.7073   -7.9592 C   0  0  2  0  0  0  0  0  0  0  0  0
  -16.2526  -37.4431   -7.5468 O   0  0  0  0  0  0  0  0  0  0  0  0
  -14.6915  -38.8446   -8.7768 C   0  0  0  0  0  0  0  0  0  0  0  0
  -14.5262  -40.0358   -9.5244 N   0  0  0  0  0  0  0  0  0  0  0  0
  -13.1719  -40.4157   -9.8323 C   0  0  0  0  0  0  0  0  0  0  0  0
  -12.5350  -39.4451  -10.7764 C   0  0  0  0  0  0  0  0  0  0  0  0
  -13.2119  -38.3030  -11.1072 C   0  0  0  0  0  0  0  0  0  0  0  0
  -12.6816  -37.3398  -11.9743 C   0  0  0  0  0  0  0  0  0  0  0  0
  -11.4435  -37.5691  -12.4966 C   0  0  0  0  0  0  0  0  0  0  0  0
  -10.7590  -38.7170  -12.1665 C   0  0  0  0  0  0  0  0  0  0  0  0
  -11.2876  -39.6612  -11.3120 C   0  0  0  0  0  0  0  0  0  0  0  0
  -13.4780  -36.1274  -12.2869 C   0  0  0  0  0  0  0  0  0  0  0  0
  -14.7878  -36.5387  -12.9531 C   0  0  0  0  0  0  0  0  0  0  0  0
  -13.8158  -35.3224  -11.0528 C   0  0  0  0  0  0  0  0  0  0  0  0
  1  2  1  0
  2  3  1  0
  3  4  1  0
  4  5  1  0
  5  6  1  0
  6  7  1  0
  7  8  1  0
  8  9  1  0
  9 10  1  1
  9 11  1  0
 12 11  1  1
 12 13  1  0
 13 14  1  0
 14 15  2  0
 14 16  1  0
 16 17  2  0
 17 18  1  0
 18 19  2  0
 19 20  1  0
 20 21  2  0
 18 22  1  0
 22 23  2  0
 12 24  1  0
 24 25  1  6
 24 26  1  0
 26 27  1  0
 27 28  1  0
 28 29  1  0
 29 30  2  0
 30 31  1  0
 31 32  2  0
 32 33  1  0
 33 34  2  0
 31 35  1  0
 35 36  1  0
 35 37  1  0
 21 16  1  0
 22  3  1  0
 34 29  1  0
M  END
$$$$
