
     RDKit          3D

 37 39  0  0  0  0  0  0  0  0999 V2000
  -22.8654  -46.1663   -6.6021 C   0  0  0  0  0  0  0  0  0  0  0  0
  -23.1155  -45.5035   -7.9620 C   0  0  0  0  0  0  0  0  0  0  0  0
  -22.5655  -44.1734   -7.8636 N   0  0  0  0  0  0  0  0  0  0  0  0
  -21.2440  -44.0251   -7.3287 C   0  0  0  0  0  0  0  0  0  0  0  0
  -20.9394  -43.7280   -5.9167 C   0  0  0  0  0  0  0  0  0  0  0  0
  -20.7610  -42.3534   -5.4301 C   0  0  0  0  0  0  0  0  0  0  0  0
  -19.3864  -41.8612   -4.9527 C   0  0  0  0  0  0  0  0  0  0  0  0
  -19.3735  -40.3431   -4.8778 C   0  0  0  0  0  0  0  0  0  0  0  0
  -18.1748  -39.5928   -5.3696 C   0  0  1  0  0  0  0  0  0  0  0  0
  -16.9164  -40.4116   -5.5582 C   0  0  0  0  0  0  0  0  0  0  0  0
  -18.2874  -38.3578   -6.1574 C   0  0  0  0  0  0  0  0  0  0  0  0
  -18.0527  -38.1063   -7.5562 C   0  0  2  0  0  0  0  0  0  0  0  0
  -18.5883  -38.9977   -8.6189 N   0  0  0  0  0  0  0  0  0  0  0  0
  -19.6600  -39.8574   -8.3817 C   0  0  0  0  0  0  0  0  0  0  0  0
  -19.0962  -40.9847   -7.7776 O   0  0  0  0  0  0  0  0  0  0  0  0
  -21.0867  -40.1612   -8.4456 C   0  0  0  0  0  0  0  0  0  0  0  0
  -21.7119  -41.3217   -8.9670 C   0  0  0  0  0  0  0  0  0  0  0  0
  -22.9442  -41.6484   -8.4864 C   0  0  0  0  0  0  0  0  0  0  0  0
  -23.6322  -40.8694   -7.5570 C   0  0  0  0  0  0  0  0  0  0  0  0
  -23.0847  -39.7138   -7.0366 C   0  0  0  0  0  0  0  0  0  0  0  0
  -21.8367  -39.4269   -7.5037 C   0  0  0  0  0  0  0  0  0  0  0  0
  -23.4254  -43.1094   -8.3404 C   0  0  0  0  0  0  0  0  0  0  0  0
  -24.5832  -43.3375   -8.6388 O   0  0  0  0  0  0  0  0  0  0  0  0
  -16.6359  -37.8062   -7.9727 C   0  0  2  0  0  0  0  0  0  0  0  0
  -15.6624  -38.2662   -7.1256 O   0  0  0  0  0  0  0  0  0  0  0  0
  -16.4305  -36.4580   -8.5589 C   0  0  0  0  0  0  0  0  0  0  0  0
  -17.1753  -36.1215   -9.7153 N   0  0  0  0  0  0  0  0  0  0  0  0
  -17.2335  -37.1191  -10.7520 C   0  0  0  0  0  0  0  0  0  0  0  0
  -16.0410  -37.0396  -11.6523 C   0  0  0  0  0  0  0  0  0  0  0  0
  -14.9089  -37.7290  -11.3128 C   0  0  0  0  0  0  0  0  0  0  0  0
  -13.7551  -37.7159  -12.1061 C   0  0  0  0  0  0  0  0  0  0  0  0
  -13.7831  -36.9823  -13.2548 C   0  0  0  0  0  0  0  0  0  0  0  0
  -14.9200  -36.2871  -13.5999 C   0  0  0  0  0  0  0  0  0  0  0  0
  -16.0525  -36.3047  -12.8138 C   0  0  0  0  0  0  0  0  0  0  0  0
  -12.5651  -38.4876  -11.6696 C   0  0  0  0  0  0  0  0  0  0  0  0
  -11.9305  -39.1682  -12.8790 C   0  0  0  0  0  0  0  0  0  0  0  0
  -11.5146  -37.6147  -11.0218 C   0  0  0  0  0  0  0  0  0  0  0  0
  1  2  1  0
  2  3  1  0
  3  4  1  0
  4  5  1  0
  5  6  1  0
  6  7  1  0
  7  8  1  0
  8  9  1  0
  9 10  1  6
  9 11  1  0
 12 11  1  1
 12 13  1  0
 13 14  1  0
 14 15  2  0
 14 16  1  0
 16 17  2  0
 17 18  1  0
 18 19  2  0
 19 20  1  0
 20 21  2  0
 18 22  1  0
 22 23  2  0
 12 24  1  0
 24 25  1  1
 24 26  1  0
 26 27  1  0
 27 28  1  0
 28 29  1  0
 29 30  2  0
 30 31  1  0
 31 32  2  0
 32 33  1  0
 33 34  2  0
 31 35  1  0
 35 36  1  0
 35 37  1  0
 21 16  1  0
 22  3  1  0
 34 29  1  0
M  END
$$$$
