
     RDKit          3D

 37 39  0  0  0  0  0  0  0  0999 V2000
  -21.2443  -47.4360   -7.6368 C   0  0  0  0  0  0  0  0  0  0  0  0
  -22.3320  -46.5090   -7.0809 C   0  0  0  0  0  0  0  0  0  0  0  0
  -21.7486  -45.1901   -7.0413 N   0  0  0  0  0  0  0  0  0  0  0  0
  -20.3200  -45.0803   -7.0797 C   0  0  0  0  0  0  0  0  0  0  0  0
  -19.4555  -44.9664   -5.8905 C   0  0  0  0  0  0  0  0  0  0  0  0
  -19.0508  -43.6648   -5.3425 C   0  0  0  0  0  0  0  0  0  0  0  0
  -17.5866  -43.2053   -5.4091 C   0  0  0  0  0  0  0  0  0  0  0  0
  -17.4968  -41.7109   -5.1460 C   0  0  0  0  0  0  0  0  0  0  0  0
  -16.5811  -40.8709   -5.9815 C   0  0  1  0  0  0  0  0  0  0  0  0
  -15.5362  -41.6245   -6.7751 C   0  0  0  0  0  0  0  0  0  0  0  0
  -16.9675  -39.5452   -6.4833 C   0  0  0  0  0  0  0  0  0  0  0  0
  -17.3176  -39.1035   -7.8089 C   0  0  2  0  0  0  0  0  0  0  0  0
  -18.2685  -39.8588   -8.6669 N   0  0  0  0  0  0  0  0  0  0  0  0
  -19.1758  -40.7698   -8.1278 C   0  0  0  0  0  0  0  0  0  0  0  0
  -18.4497  -41.9527   -7.9622 O   0  0  0  0  0  0  0  0  0  0  0  0
  -20.5125  -41.0992   -7.6417 C   0  0  0  0  0  0  0  0  0  0  0  0
  -21.3322  -42.1956   -8.0098 C   0  0  0  0  0  0  0  0  0  0  0  0
  -22.2698  -42.6152   -7.1148 C   0  0  0  0  0  0  0  0  0  0  0  0
  -22.4929  -41.9852   -5.8912 C   0  0  0  0  0  0  0  0  0  0  0  0
  -21.7446  -40.8955   -5.4927 C   0  0  0  0  0  0  0  0  0  0  0  0
  -20.7885  -40.5167   -6.3873 C   0  0  0  0  0  0  0  0  0  0  0  0
  -22.6946  -44.0946   -6.9792 C   0  0  0  0  0  0  0  0  0  0  0  0
  -23.8797  -44.3108   -6.8048 O   0  0  0  0  0  0  0  0  0  0  0  0
  -16.1864  -38.7140   -8.7252 C   0  0  2  0  0  0  0  0  0  0  0  0
  -15.0862  -38.1787   -8.1088 O   0  0  0  0  0  0  0  0  0  0  0  0
  -16.6069  -38.0894  -10.0045 C   0  0  0  0  0  0  0  0  0  0  0  0
  -17.5754  -37.0579   -9.9474 N   0  0  0  0  0  0  0  0  0  0  0  0
  -17.5665  -36.1107  -11.0318 C   0  0  0  0  0  0  0  0  0  0  0  0
  -18.3009  -36.6396  -12.2234 C   0  0  0  0  0  0  0  0  0  0  0  0
  -19.4219  -37.3989  -12.0259 C   0  0  0  0  0  0  0  0  0  0  0  0
  -20.1715  -37.9217  -13.0868 C   0  0  0  0  0  0  0  0  0  0  0  0
  -19.7505  -37.6517  -14.3549 C   0  0  0  0  0  0  0  0  0  0  0  0
  -18.6231  -36.8884  -14.5580 C   0  0  0  0  0  0  0  0  0  0  0  0
  -17.8898  -36.3769  -13.5084 C   0  0  0  0  0  0  0  0  0  0  0  0
  -21.3749  -38.7384  -12.7922 C   0  0  0  0  0  0  0  0  0  0  0  0
  -21.2758  -40.0715  -13.5282 C   0  0  0  0  0  0  0  0  0  0  0  0
  -21.5291  -39.0312  -11.3172 C   0  0  0  0  0  0  0  0  0  0  0  0
  1  2  1  0
  2  3  1  0
  3  4  1  0
  4  5  1  0
  5  6  1  0
  6  7  1  0
  7  8  1  0
  8  9  1  0
  9 10  1  6
  9 11  1  0
 12 11  1  1
 12 13  1  0
 13 14  1  0
 14 15  2  0
 14 16  1  0
 16 17  2  0
 17 18  1  0
 18 19  2  0
 19 20  1  0
 20 21  2  0
 18 22  1  0
 22 23  2  0
 12 24  1  0
 24 25  1  1
 24 26  1  0
 26 27  1  0
 27 28  1  0
 28 29  1  0
 29 30  2  0
 30 31  1  0
 31 32  2  0
 32 33  1  0
 33 34  2  0
 31 35  1  0
 35 36  1  0
 35 37  1  0
 21 16  1  0
 22  3  1  0
 34 29  1  0
M  END
$$$$
