
     RDKit          3D

 37 39  0  0  0  0  0  0  0  0999 V2000
  -20.0204  -47.9282  -12.2459 C   0  0  0  0  0  0  0  0  0  0  0  0
  -20.2400  -48.0838  -10.7363 C   0  0  0  0  0  0  0  0  0  0  0  0
  -19.5734  -46.9629  -10.1196 N   0  0  0  0  0  0  0  0  0  0  0  0
  -19.5488  -45.7167  -10.8275 C   0  0  0  0  0  0  0  0  0  0  0  0
  -18.4459  -45.2681  -11.6974 C   0  0  0  0  0  0  0  0  0  0  0  0
  -17.3415  -44.4413  -11.1925 C   0  0  0  0  0  0  0  0  0  0  0  0
  -17.1747  -42.9860  -11.6548 C   0  0  0  0  0  0  0  0  0  0  0  0
  -16.2300  -42.2474  -10.7207 C   0  0  0  0  0  0  0  0  0  0  0  0
  -16.5596  -40.8500  -10.2957 C   0  0  1  0  0  0  0  0  0  0  0  0
  -17.6123  -40.1414  -11.1199 C   0  0  0  0  0  0  0  0  0  0  0  0
  -16.3695  -40.3808   -8.9165 C   0  0  0  0  0  0  0  0  0  0  0  0
  -17.3251  -40.0935   -7.8776 C   0  0  2  0  0  0  0  0  0  0  0  0
  -18.4435  -41.0191   -7.5561 N   0  0  0  0  0  0  0  0  0  0  0  0
  -18.4082  -42.3642   -7.9211 C   0  0  0  0  0  0  0  0  0  0  0  0
  -18.8241  -42.3908   -9.2553 O   0  0  0  0  0  0  0  0  0  0  0  0
  -18.1437  -43.7638   -7.6005 C   0  0  0  0  0  0  0  0  0  0  0  0
  -18.9938  -44.8817   -7.7934 C   0  0  0  0  0  0  0  0  0  0  0  0
  -18.4115  -46.1064   -7.9234 C   0  0  0  0  0  0  0  0  0  0  0  0
  -17.0364  -46.3126   -7.8198 C   0  0  0  0  0  0  0  0  0  0  0  0
  -16.1631  -45.2654   -7.6036 C   0  0  0  0  0  0  0  0  0  0  0  0
  -16.7646  -44.0455   -7.5139 C   0  0  0  0  0  0  0  0  0  0  0  0
  -18.9999  -47.2228   -8.8148 C   0  0  0  0  0  0  0  0  0  0  0  0
  -18.9547  -48.3568   -8.3746 O   0  0  0  0  0  0  0  0  0  0  0  0
  -17.9398  -38.7176   -7.8700 C   0  0  2  0  0  0  0  0  0  0  0  0
  -17.4516  -37.8486   -8.8100 O   0  0  0  0  0  0  0  0  0  0  0  0
  -18.2078  -38.1617   -6.5199 C   0  0  0  0  0  0  0  0  0  0  0  0
  -19.5380  -37.7838   -6.2148 N   0  0  0  0  0  0  0  0  0  0  0  0
  -19.9074  -37.8086   -4.8233 C   0  0  0  0  0  0  0  0  0  0  0  0
  -20.9382  -38.8587   -4.5518 C   0  0  0  0  0  0  0  0  0  0  0  0
  -20.8765  -39.5580   -3.3774 C   0  0  0  0  0  0  0  0  0  0  0  0
  -21.8083  -40.5482   -3.0429 C   0  0  0  0  0  0  0  0  0  0  0  0
  -22.8054  -40.8088   -3.9352 C   0  0  0  0  0  0  0  0  0  0  0  0
  -22.8710  -40.1076   -5.1180 C   0  0  0  0  0  0  0  0  0  0  0  0
  -21.9498  -39.1339   -5.4408 C   0  0  0  0  0  0  0  0  0  0  0  0
  -21.6734  -41.2652   -1.7506 C   0  0  0  0  0  0  0  0  0  0  0  0
  -22.8092  -40.8505   -0.8196 C   0  0  0  0  0  0  0  0  0  0  0  0
  -21.7292  -42.7670   -1.9132 C   0  0  0  0  0  0  0  0  0  0  0  0
  1  2  1  0
  2  3  1  0
  3  4  1  0
  4  5  1  0
  5  6  1  0
  6  7  1  0
  7  8  1  0
  8  9  1  0
  9 10  1  1
  9 11  1  0
 12 11  1  6
 12 13  1  0
 13 14  1  0
 14 15  2  0
 14 16  1  0
 16 17  2  0
 17 18  1  0
 18 19  2  0
 19 20  1  0
 20 21  2  0
 18 22  1  0
 22 23  2  0
 12 24  1  0
 24 25  1  1
 24 26  1  0
 26 27  1  0
 27 28  1  0
 28 29  1  0
 29 30  2  0
 30 31  1  0
 31 32  2  0
 32 33  1  0
 33 34  2  0
 31 35  1  0
 35 36  1  0
 35 37  1  0
 21 16  1  0
 22  3  1  0
 34 29  1  0
M  END
$$$$
