
     RDKit          3D

 37 39  0  0  0  0  0  0  0  0999 V2000
  -23.4549  -42.9441   -3.3151 C   0  0  0  0  0  0  0  0  0  0  0  0
  -22.9377  -44.0832   -4.2019 C   0  0  0  0  0  0  0  0  0  0  0  0
  -22.0881  -43.4639   -5.1898 N   0  0  0  0  0  0  0  0  0  0  0  0
  -21.7853  -42.0705   -5.0445 C   0  0  0  0  0  0  0  0  0  0  0  0
  -22.5238  -40.9785   -5.7055 C   0  0  0  0  0  0  0  0  0  0  0  0
  -22.1090  -40.4311   -7.0041 C   0  0  0  0  0  0  0  0  0  0  0  0
  -21.5678  -38.9978   -7.1156 C   0  0  0  0  0  0  0  0  0  0  0  0
  -20.8586  -38.8106   -8.4470 C   0  0  0  0  0  0  0  0  0  0  0  0
  -19.5642  -38.0593   -8.4914 C   0  0  1  0  0  0  0  0  0  0  0  0
  -19.2462  -37.2216   -7.2721 C   0  0  0  0  0  0  0  0  0  0  0  0
  -18.4261  -38.4991   -9.3099 C   0  0  0  0  0  0  0  0  0  0  0  0
  -17.1708  -39.0984   -8.9358 C   0  0  2  0  0  0  0  0  0  0  0  0
  -17.0917  -40.2270   -7.9709 N   0  0  0  0  0  0  0  0  0  0  0  0
  -18.1955  -41.0327   -7.6949 C   0  0  0  0  0  0  0  0  0  0  0  0
  -18.9347  -40.3246   -6.7430 O   0  0  0  0  0  0  0  0  0  0  0  0
  -18.9686  -42.2517   -7.9143 C   0  0  0  0  0  0  0  0  0  0  0  0
  -19.4605  -43.1624   -6.9457 C   0  0  0  0  0  0  0  0  0  0  0  0
  -20.5509  -43.9101   -7.2742 C   0  0  0  0  0  0  0  0  0  0  0  0
  -21.1618  -43.8596   -8.5265 C   0  0  0  0  0  0  0  0  0  0  0  0
  -20.7082  -43.0129   -9.5181 C   0  0  0  0  0  0  0  0  0  0  0  0
  -19.6400  -42.2481   -9.1545 C   0  0  0  0  0  0  0  0  0  0  0  0
  -21.6119  -44.3434   -6.2379 C   0  0  0  0  0  0  0  0  0  0  0  0
  -22.0504  -45.4741   -6.3423 O   0  0  0  0  0  0  0  0  0  0  0  0
  -16.0539  -38.1664   -8.5422 C   0  0  2  0  0  0  0  0  0  0  0  0
  -16.4468  -36.9735   -7.9949 O   0  0  0  0  0  0  0  0  0  0  0  0
  -14.9135  -38.1238   -9.4916 C   0  0  0  0  0  0  0  0  0  0  0  0
  -13.9759  -39.1838   -9.4435 N   0  0  0  0  0  0  0  0  0  0  0  0
  -13.8679  -39.9973  -10.6267 C   0  0  0  0  0  0  0  0  0  0  0  0
  -13.5377  -39.1696  -11.8287 C   0  0  0  0  0  0  0  0  0  0  0  0
  -13.2634  -37.8396  -11.6609 C   0  0  0  0  0  0  0  0  0  0  0  0
  -12.9350  -36.9993  -12.7317 C   0  0  0  0  0  0  0  0  0  0  0  0
  -12.8928  -37.5478  -13.9790 C   0  0  0  0  0  0  0  0  0  0  0  0
  -13.1683  -38.8854  -14.1523 C   0  0  0  0  0  0  0  0  0  0  0  0
  -13.4910  -39.7069  -13.0930 C   0  0  0  0  0  0  0  0  0  0  0  0
  -12.6525  -35.5663  -12.4699 C   0  0  0  0  0  0  0  0  0  0  0  0
  -13.6919  -35.0136  -11.4988 C   0  0  0  0  0  0  0  0  0  0  0  0
  -11.2854  -35.3470  -11.8634 C   0  0  0  0  0  0  0  0  0  0  0  0
  1  2  1  0
  2  3  1  0
  3  4  1  0
  4  5  1  0
  5  6  1  0
  6  7  1  0
  7  8  1  0
  8  9  1  0
  9 10  1  1
  9 11  1  0
 12 11  1  1
 12 13  1  0
 13 14  1  0
 14 15  2  0
 14 16  1  0
 16 17  2  0
 17 18  1  0
 18 19  2  0
 19 20  1  0
 20 21  2  0
 18 22  1  0
 22 23  2  0
 12 24  1  0
 24 25  1  6
 24 26  1  0
 26 27  1  0
 27 28  1  0
 28 29  1  0
 29 30  2  0
 30 31  1  0
 31 32  2  0
 32 33  1  0
 33 34  2  0
 31 35  1  0
 35 36  1  0
 35 37  1  0
 21 16  1  0
 22  3  1  0
 34 29  1  0
M  END
$$$$
