
     RDKit          3D

 37 39  0  0  0  0  0  0  0  0999 V2000
  -23.4974  -43.4948   -2.7374 C   0  0  0  0  0  0  0  0  0  0  0  0
  -23.4823  -44.4565   -3.9316 C   0  0  0  0  0  0  0  0  0  0  0  0
  -22.5015  -43.9335   -4.8512 N   0  0  0  0  0  0  0  0  0  0  0  0
  -22.2267  -42.5271   -4.8204 C   0  0  0  0  0  0  0  0  0  0  0  0
  -22.8658  -41.5284   -5.6972 C   0  0  0  0  0  0  0  0  0  0  0  0
  -22.2704  -41.1190   -6.9763 C   0  0  0  0  0  0  0  0  0  0  0  0
  -21.7230  -39.6967   -7.1685 C   0  0  0  0  0  0  0  0  0  0  0  0
  -20.8306  -39.6434   -8.3978 C   0  0  0  0  0  0  0  0  0  0  0  0
  -19.5454  -38.8772   -8.3408 C   0  0  1  0  0  0  0  0  0  0  0  0
  -19.4082  -37.9050   -7.1895 C   0  0  0  0  0  0  0  0  0  0  0  0
  -18.3003  -39.3827   -8.9348 C   0  0  0  0  0  0  0  0  0  0  0  0
  -17.1100  -39.9136   -8.3214 C   0  0  2  0  0  0  0  0  0  0  0  0
  -17.1669  -40.9278   -7.2355 N   0  0  0  0  0  0  0  0  0  0  0  0
  -18.2966  -41.7189   -7.0315 C   0  0  0  0  0  0  0  0  0  0  0  0
  -19.1669  -40.9248   -6.2794 O   0  0  0  0  0  0  0  0  0  0  0  0
  -19.0266  -42.9690   -7.2217 C   0  0  0  0  0  0  0  0  0  0  0  0
  -19.6498  -43.7770   -6.2377 C   0  0  0  0  0  0  0  0  0  0  0  0
  -20.6796  -44.5767   -6.6328 C   0  0  0  0  0  0  0  0  0  0  0  0
  -21.1045  -44.6755   -7.9571 C   0  0  0  0  0  0  0  0  0  0  0  0
  -20.5156  -43.9343   -8.9620 C   0  0  0  0  0  0  0  0  0  0  0  0
  -19.5130  -43.1142   -8.5374 C   0  0  0  0  0  0  0  0  0  0  0  0
  -21.8771  -44.9136   -5.7164 C   0  0  0  0  0  0  0  0  0  0  0  0
  -22.2928  -46.0569   -5.7557 O   0  0  0  0  0  0  0  0  0  0  0  0
  -16.0639  -38.9232   -7.8791 C   0  0  2  0  0  0  0  0  0  0  0  0
  -16.3638  -38.2162   -6.7446 O   0  0  0  0  0  0  0  0  0  0  0  0
  -15.4087  -38.1743   -8.9807 C   0  0  0  0  0  0  0  0  0  0  0  0
  -15.4640  -38.7322  -10.2810 N   0  0  0  0  0  0  0  0  0  0  0  0
  -15.5064  -37.7990  -11.3768 C   0  0  0  0  0  0  0  0  0  0  0  0
  -14.1642  -37.6556  -12.0226 C   0  0  0  0  0  0  0  0  0  0  0  0
  -13.4884  -36.4735  -11.8880 C   0  0  0  0  0  0  0  0  0  0  0  0
  -12.2241  -36.2627  -12.4516 C   0  0  0  0  0  0  0  0  0  0  0  0
  -11.6647  -37.2867  -13.1565 C   0  0  0  0  0  0  0  0  0  0  0  0
  -12.3414  -38.4775  -13.2946 C   0  0  0  0  0  0  0  0  0  0  0  0
  -13.5862  -38.6780  -12.7367 C   0  0  0  0  0  0  0  0  0  0  0  0
  -11.5549  -34.9516  -12.2637 C   0  0  0  0  0  0  0  0  0  0  0  0
  -12.5483  -33.8294  -12.5508 C   0  0  0  0  0  0  0  0  0  0  0  0
  -11.0338  -34.7638  -10.8572 C   0  0  0  0  0  0  0  0  0  0  0  0
  1  2  1  0
  2  3  1  0
  3  4  1  0
  4  5  1  0
  5  6  1  0
  6  7  1  0
  7  8  1  0
  8  9  1  0
  9 10  1  1
  9 11  1  0
 12 11  1  1
 12 13  1  0
 13 14  1  0
 14 15  2  0
 14 16  1  0
 16 17  2  0
 17 18  1  0
 18 19  2  0
 19 20  1  0
 20 21  2  0
 18 22  1  0
 22 23  2  0
 12 24  1  0
 24 25  1  1
 24 26  1  0
 26 27  1  0
 27 28  1  0
 28 29  1  0
 29 30  2  0
 30 31  1  0
 31 32  2  0
 32 33  1  0
 33 34  2  0
 31 35  1  0
 35 36  1  0
 35 37  1  0
 21 16  1  0
 22  3  1  0
 34 29  1  0
M  END
$$$$
