
     RDKit          3D

 37 39  0  0  0  0  0  0  0  0999 V2000
  -23.3979  -46.2089   -5.5413 C   0  0  0  0  0  0  0  0  0  0  0  0
  -21.9598  -46.5075   -5.9817 C   0  0  0  0  0  0  0  0  0  0  0  0
  -21.4646  -45.2897   -6.5759 N   0  0  0  0  0  0  0  0  0  0  0  0
  -21.0730  -44.2215   -5.7041 C   0  0  0  0  0  0  0  0  0  0  0  0
  -21.9441  -43.0988   -5.3099 C   0  0  0  0  0  0  0  0  0  0  0  0
  -21.9651  -41.8307   -6.0513 C   0  0  0  0  0  0  0  0  0  0  0  0
  -21.4334  -40.5386   -5.4131 C   0  0  0  0  0  0  0  0  0  0  0  0
  -21.2032  -39.4847   -6.4840 C   0  0  0  0  0  0  0  0  0  0  0  0
  -19.9682  -38.6398   -6.4309 C   0  0  1  0  0  0  0  0  0  0  0  0
  -19.2261  -38.6395   -5.1122 C   0  0  0  0  0  0  0  0  0  0  0  0
  -19.1888  -38.3082   -7.6313 C   0  0  0  0  0  0  0  0  0  0  0  0
  -17.9067  -38.7832   -8.0847 C   0  0  2  0  0  0  0  0  0  0  0  0
  -17.5564  -40.2283   -8.0871 N   0  0  0  0  0  0  0  0  0  0  0  0
  -18.5367  -41.2191   -8.0579 C   0  0  0  0  0  0  0  0  0  0  0  0
  -18.8849  -41.3478   -6.7103 O   0  0  0  0  0  0  0  0  0  0  0  0
  -19.3886  -42.1877   -8.7419 C   0  0  0  0  0  0  0  0  0  0  0  0
  -19.5656  -43.5622   -8.4434 C   0  0  0  0  0  0  0  0  0  0  0  0
  -20.7331  -44.1495   -8.8279 C   0  0  0  0  0  0  0  0  0  0  0  0
  -21.7251  -43.4798   -9.5431 C   0  0  0  0  0  0  0  0  0  0  0  0
  -21.5945  -42.1490   -9.8866 C   0  0  0  0  0  0  0  0  0  0  0  0
  -20.4355  -41.5727   -9.4594 C   0  0  0  0  0  0  0  0  0  0  0  0
  -21.4034  -45.2856   -8.0234 C   0  0  0  0  0  0  0  0  0  0  0  0
  -21.8982  -46.1938   -8.6652 O   0  0  0  0  0  0  0  0  0  0  0  0
  -16.6848  -38.0839   -7.5472 C   0  0  2  0  0  0  0  0  0  0  0  0
  -16.9276  -36.9494   -6.8187 O   0  0  0  0  0  0  0  0  0  0  0  0
  -15.5277  -38.0477   -8.4764 C   0  0  0  0  0  0  0  0  0  0  0  0
  -14.4145  -38.8694   -8.1752 N   0  0  0  0  0  0  0  0  0  0  0  0
  -13.2703  -38.7395   -9.0396 C   0  0  0  0  0  0  0  0  0  0  0  0
  -13.6433  -38.9524  -10.4730 C   0  0  0  0  0  0  0  0  0  0  0  0
  -13.7411  -37.8662  -11.2992 C   0  0  0  0  0  0  0  0  0  0  0  0
  -14.0740  -37.9808  -12.6545 C   0  0  0  0  0  0  0  0  0  0  0  0
  -14.3049  -39.2305  -13.1477 C   0  0  0  0  0  0  0  0  0  0  0  0
  -14.2077  -40.3260  -12.3198 C   0  0  0  0  0  0  0  0  0  0  0  0
  -13.8795  -40.2055  -10.9861 C   0  0  0  0  0  0  0  0  0  0  0  0
  -14.1629  -36.7553  -13.4864 C   0  0  0  0  0  0  0  0  0  0  0  0
  -14.9599  -35.6908  -12.7378 C   0  0  0  0  0  0  0  0  0  0  0  0
  -12.8048  -36.1769  -13.8124 C   0  0  0  0  0  0  0  0  0  0  0  0
  1  2  1  0
  2  3  1  0
  3  4  1  0
  4  5  1  0
  5  6  1  0
  6  7  1  0
  7  8  1  0
  8  9  1  0
  9 10  1  1
  9 11  1  0
 12 11  1  1
 12 13  1  0
 13 14  1  0
 14 15  2  0
 14 16  1  0
 16 17  2  0
 17 18  1  0
 18 19  2  0
 19 20  1  0
 20 21  2  0
 18 22  1  0
 22 23  2  0
 12 24  1  0
 24 25  1  6
 24 26  1  0
 26 27  1  0
 27 28  1  0
 28 29  1  0
 29 30  2  0
 30 31  1  0
 31 32  2  0
 32 33  1  0
 33 34  2  0
 31 35  1  0
 35 36  1  0
 35 37  1  0
 21 16  1  0
 22  3  1  0
 34 29  1  0
M  END
$$$$
