
     RDKit          3D

 37 39  0  0  0  0  0  0  0  0999 V2000
  -22.0511  -48.6823   -8.4133 C   0  0  0  0  0  0  0  0  0  0  0  0
  -22.7221  -47.3517   -8.7746 C   0  0  0  0  0  0  0  0  0  0  0  0
  -21.8689  -46.3180   -8.2411 N   0  0  0  0  0  0  0  0  0  0  0  0
  -20.6743  -45.9877   -8.9609 C   0  0  0  0  0  0  0  0  0  0  0  0
  -19.3420  -46.5537   -8.6793 C   0  0  0  0  0  0  0  0  0  0  0  0
  -18.3914  -45.8965   -7.7724 C   0  0  0  0  0  0  0  0  0  0  0  0
  -17.0882  -45.2853   -8.3088 C   0  0  0  0  0  0  0  0  0  0  0  0
  -16.4877  -44.3476   -7.2741 C   0  0  0  0  0  0  0  0  0  0  0  0
  -15.9168  -43.0353   -7.7143 C   0  0  1  0  0  0  0  0  0  0  0  0
  -15.6410  -42.9004   -9.1960 C   0  0  0  0  0  0  0  0  0  0  0  0
  -16.1322  -41.7912   -6.9632 C   0  0  0  0  0  0  0  0  0  0  0  0
  -16.9576  -40.6463   -7.2511 C   0  0  2  0  0  0  0  0  0  0  0  0
  -18.3687  -40.7834   -7.6993 N   0  0  0  0  0  0  0  0  0  0  0  0
  -19.0974  -41.9508   -7.4760 C   0  0  0  0  0  0  0  0  0  0  0  0
  -18.7278  -42.8147   -8.5108 O   0  0  0  0  0  0  0  0  0  0  0  0
  -20.0538  -42.7236   -6.6887 C   0  0  0  0  0  0  0  0  0  0  0  0
  -21.2056  -43.4142   -7.1427 C   0  0  0  0  0  0  0  0  0  0  0  0
  -21.6538  -44.4606   -6.3943 C   0  0  0  0  0  0  0  0  0  0  0  0
  -21.0694  -44.8412   -5.1870 C   0  0  0  0  0  0  0  0  0  0  0  0
  -19.9637  -44.1868   -4.6816 C   0  0  0  0  0  0  0  0  0  0  0  0
  -19.5107  -43.1678   -5.4653 C   0  0  0  0  0  0  0  0  0  0  0  0
  -22.3319  -45.7031   -7.0137 C   0  0  0  0  0  0  0  0  0  0  0  0
  -23.2860  -46.1631   -6.4139 O   0  0  0  0  0  0  0  0  0  0  0  0
  -16.3673  -39.5775   -8.1344 C   0  0  2  0  0  0  0  0  0  0  0  0
  -15.0305  -39.7079   -8.4045 O   0  0  0  0  0  0  0  0  0  0  0  0
  -16.8658  -38.2044   -7.8702 C   0  0  0  0  0  0  0  0  0  0  0  0
  -18.2216  -37.9264   -8.1696 N   0  0  0  0  0  0  0  0  0  0  0  0
  -18.5365  -36.5618   -8.5043 C   0  0  0  0  0  0  0  0  0  0  0  0
  -18.4735  -36.3348   -9.9820 C   0  0  0  0  0  0  0  0  0  0  0  0
  -17.4099  -35.6480  -10.5008 C   0  0  0  0  0  0  0  0  0  0  0  0
  -17.2707  -35.4031  -11.8724 C   0  0  0  0  0  0  0  0  0  0  0  0
  -18.2428  -35.8754  -12.7032 C   0  0  0  0  0  0  0  0  0  0  0  0
  -19.3148  -36.5667  -12.1853 C   0  0  0  0  0  0  0  0  0  0  0  0
  -19.4451  -36.8041  -10.8334 C   0  0  0  0  0  0  0  0  0  0  0  0
  -16.0893  -34.6483  -12.3590 C   0  0  0  0  0  0  0  0  0  0  0  0
  -15.0782  -35.6208  -12.9592 C   0  0  0  0  0  0  0  0  0  0  0  0
  -16.4475  -33.6342  -13.4212 C   0  0  0  0  0  0  0  0  0  0  0  0
  1  2  1  0
  2  3  1  0
  3  4  1  0
  4  5  1  0
  5  6  1  0
  6  7  1  0
  7  8  1  0
  8  9  1  0
  9 10  1  6
  9 11  1  0
 12 11  1  6
 12 13  1  0
 13 14  1  0
 14 15  2  0
 14 16  1  0
 16 17  2  0
 17 18  1  0
 18 19  2  0
 19 20  1  0
 20 21  2  0
 18 22  1  0
 22 23  2  0
 12 24  1  0
 24 25  1  1
 24 26  1  0
 26 27  1  0
 27 28  1  0
 28 29  1  0
 29 30  2  0
 30 31  1  0
 31 32  2  0
 32 33  1  0
 33 34  2  0
 31 35  1  0
 35 36  1  0
 35 37  1  0
 21 16  1  0
 22  3  1  0
 34 29  1  0
M  END
$$$$
