
     RDKit          3D

 41 45  0  0  0  0  0  0  0  0999 V2000
  -14.3934  -36.5841  -12.2996 C   0  0  0  0  0  0  0  0  0  0  0  0
  -13.4418  -37.7589  -12.3305 C   0  0  0  0  0  0  0  0  0  0  0  0
  -12.1863  -37.3655  -11.5517 C   0  0  0  0  0  0  0  0  0  0  0  0
  -14.0597  -38.9771  -11.7691 C   0  0  0  0  0  0  0  0  0  0  0  0
  -14.0687  -39.2864  -10.4500 C   0  0  0  0  0  0  0  0  0  0  0  0
  -14.6418  -40.4267   -9.9090 C   0  0  0  0  0  0  0  0  0  0  0  0
  -14.6488  -40.7587   -8.4843 C   0  0  0  0  0  0  0  0  0  0  0  0
  -14.9343  -39.6920   -7.5875 N   0  0  0  0  0  0  0  0  0  0  0  0
  -15.5571  -38.5323   -8.1617 C   0  0  0  0  0  0  0  0  0  0  0  0
  -16.7439  -38.0518   -7.3771 C   0  0  1  0  0  0  0  0  0  0  0  0
  -17.5008  -37.1544   -8.1439 O   0  0  0  0  0  0  0  0  0  0  0  0
  -17.6868  -39.2622   -7.1765 C   0  0  2  0  0  0  0  0  0  0  0  0
  -18.6794  -38.9868   -6.1491 C   0  0  0  0  0  0  0  0  0  0  0  0
  -20.0813  -38.5860   -6.4724 C   0  0  0  0  0  0  0  0  0  0  0  0
  -20.9605  -39.0925   -7.3948 C   0  0  0  0  0  0  0  0  0  0  0  0
  -22.2433  -38.5919   -7.4355 C   0  0  0  0  0  0  0  0  0  0  0  0
  -23.3933  -38.9666   -8.3036 C   0  0  0  0  0  0  0  0  0  0  0  0
  -23.9260  -40.3653   -8.1638 C   0  0  0  0  0  0  0  0  0  0  0  0
  -23.3934  -41.1956   -7.0544 C   0  0  0  0  0  0  0  0  0  0  0  0
  -23.2000  -42.6544   -7.4707 C   0  0  0  0  0  0  0  0  0  0  0  0
  -22.1449  -43.3025   -6.8264 O   0  0  0  0  0  0  0  0  0  0  0  0
  -20.7746  -43.3983   -6.9625 C   0  0  0  0  0  0  0  0  0  0  0  0
  -19.8155  -42.4147   -6.7309 C   0  0  0  0  0  0  0  0  0  0  0  0
  -18.4883  -42.6786   -6.9304 C   0  0  0  0  0  0  0  0  0  0  0  0
  -18.1602  -43.9973   -7.3715 C   0  0  0  0  0  0  0  0  0  0  0  0
  -19.0540  -44.9900   -7.6058 C   0  0  0  0  0  0  0  0  0  0  0  0
  -20.3720  -44.6739   -7.3948 C   0  0  0  0  0  0  0  0  0  0  0  0
  -18.6342  -46.3186   -8.0604 C   0  0  0  0  0  0  0  0  0  0  0  0
  -17.9847  -46.6127   -9.1975 N   0  0  0  0  0  0  0  0  0  0  0  0
  -17.7784  -47.9443   -9.2548 C   0  0  0  0  0  0  0  0  0  0  0  0
  -18.3380  -48.4449   -8.0876 C   0  0  0  0  0  0  0  0  0  0  0  0
  -18.8370  -47.4313   -7.4066 O   0  0  0  0  0  0  0  0  0  0  0  0
  -17.2830  -41.8046   -6.8042 C   0  0  0  0  0  0  0  0  0  0  0  0
  -16.2790  -42.4435   -6.2244 O   0  0  0  0  0  0  0  0  0  0  0  0
  -16.9578  -40.5046   -7.1453 N   0  0  0  0  0  0  0  0  0  0  0  0
  -22.6169  -37.5667   -6.5288 C   0  0  0  0  0  0  0  0  0  0  0  0
  -21.7773  -37.0296   -5.5952 C   0  0  0  0  0  0  0  0  0  0  0  0
  -20.5178  -37.5582   -5.5904 C   0  0  0  0  0  0  0  0  0  0  0  0
  -15.2365  -41.2875  -10.8098 C   0  0  0  0  0  0  0  0  0  0  0  0
  -15.2490  -41.0044  -12.1820 C   0  0  0  0  0  0  0  0  0  0  0  0
  -14.6666  -39.8621  -12.6510 C   0  0  0  0  0  0  0  0  0  0  0  0
  1  2  1  0
  2  3  1  0
  2  4  1  0
  4  5  2  0
  5  6  1  0
  6  7  1  0
  7  8  1  0
  8  9  1  0
  9 10  1  0
 10 11  1  6
 10 12  1  0
 12 13  1  1
 13 14  1  0
 14 15  1  0
 15 16  2  0
 16 17  1  0
 17 18  1  0
 18 19  1  0
 19 20  1  0
 20 21  1  0
 21 22  1  0
 22 23  1  0
 23 24  2  0
 24 25  1  0
 25 26  2  0
 26 27  1  0
 26 28  1  0
 28 29  2  0
 29 30  1  0
 30 31  2  0
 31 32  1  0
 24 33  1  0
 33 34  2  0
 33 35  1  0
 16 36  1  0
 36 37  2  0
 37 38  1  0
  6 39  2  0
 39 40  1  0
 40 41  2  0
 27 22  2  0
 32 28  1  0
 35 12  1  0
 38 14  2  0
 41  4  1  0
M  END
$$$$
