
     RDKit          3D

 41 45  0  0  0  0  0  0  0  0999 V2000
   -8.6324  -38.3257  -10.8562 C   0  0  0  0  0  0  0  0  0  0  0  0
  -10.0443  -37.9772  -11.2703 C   0  0  0  0  0  0  0  0  0  0  0  0
  -10.0354  -37.6936  -12.7727 C   0  0  0  0  0  0  0  0  0  0  0  0
  -10.9941  -39.0574  -10.9356 C   0  0  0  0  0  0  0  0  0  0  0  0
  -11.8023  -39.0494   -9.8482 C   0  0  0  0  0  0  0  0  0  0  0  0
  -12.6961  -40.0567   -9.5197 C   0  0  0  0  0  0  0  0  0  0  0  0
  -13.5667  -40.0458   -8.3442 C   0  0  0  0  0  0  0  0  0  0  0  0
  -14.8079  -39.3648   -8.4824 N   0  0  0  0  0  0  0  0  0  0  0  0
  -15.4502  -39.4739   -9.7623 C   0  0  0  0  0  0  0  0  0  0  0  0
  -16.3533  -38.3139  -10.0687 C   0  0  1  0  0  0  0  0  0  0  0  0
  -16.6358  -38.2691  -11.4415 O   0  0  0  0  0  0  0  0  0  0  0  0
  -17.7235  -38.6084   -9.4129 C   0  0  2  0  0  0  0  0  0  0  0  0
  -18.6453  -37.4998   -9.6081 C   0  0  0  0  0  0  0  0  0  0  0  0
  -19.7080  -37.5129  -10.6574 C   0  0  0  0  0  0  0  0  0  0  0  0
  -20.5868  -38.5010  -11.0204 C   0  0  0  0  0  0  0  0  0  0  0  0
  -21.5386  -38.2257  -11.9775 C   0  0  0  0  0  0  0  0  0  0  0  0
  -22.6160  -39.0878  -12.5364 C   0  0  0  0  0  0  0  0  0  0  0  0
  -23.6836  -39.5488  -11.5838 C   0  0  0  0  0  0  0  0  0  0  0  0
  -23.6852  -38.9648  -10.2189 C   0  0  0  0  0  0  0  0  0  0  0  0
  -24.0470  -39.9993   -9.1522 C   0  0  0  0  0  0  0  0  0  0  0  0
  -23.4407  -39.7857   -7.9132 O   0  0  0  0  0  0  0  0  0  0  0  0
  -22.2222  -40.0447   -7.3186 C   0  0  0  0  0  0  0  0  0  0  0  0
  -20.9864  -39.4666   -7.6003 C   0  0  0  0  0  0  0  0  0  0  0  0
  -19.8667  -39.8540   -6.9170 C   0  0  0  0  0  0  0  0  0  0  0  0
  -20.0465  -40.8576   -5.9161 C   0  0  0  0  0  0  0  0  0  0  0  0
  -21.2266  -41.4469   -5.6008 C   0  0  0  0  0  0  0  0  0  0  0  0
  -22.3183  -41.0264   -6.3170 C   0  0  0  0  0  0  0  0  0  0  0  0
  -21.3257  -42.4732   -4.5593 C   0  0  0  0  0  0  0  0  0  0  0  0
  -20.4289  -42.7311   -3.5948 N   0  0  0  0  0  0  0  0  0  0  0  0
  -20.8813  -43.7484   -2.8335 C   0  0  0  0  0  0  0  0  0  0  0  0
  -22.1053  -44.0950   -3.3881 C   0  0  0  0  0  0  0  0  0  0  0  0
  -22.3261  -43.3017   -4.4187 O   0  0  0  0  0  0  0  0  0  0  0  0
  -18.4387  -39.4358   -7.0530 C   0  0  0  0  0  0  0  0  0  0  0  0
  -17.8664  -39.2721   -5.8706 O   0  0  0  0  0  0  0  0  0  0  0  0
  -17.5722  -39.1841   -8.1008 N   0  0  0  0  0  0  0  0  0  0  0  0
  -21.5805  -36.9339  -12.5627 C   0  0  0  0  0  0  0  0  0  0  0  0
  -20.7265  -35.9194  -12.2359 C   0  0  0  0  0  0  0  0  0  0  0  0
  -19.8024  -36.2377  -11.2817 C   0  0  0  0  0  0  0  0  0  0  0  0
  -12.7377  -41.1312  -10.3858 C   0  0  0  0  0  0  0  0  0  0  0  0
  -11.9184  -41.1781  -11.5214 C   0  0  0  0  0  0  0  0  0  0  0  0
  -11.0589  -40.1515  -11.7888 C   0  0  0  0  0  0  0  0  0  0  0  0
  1  2  1  0
  2  3  1  0
  2  4  1  0
  4  5  2  0
  5  6  1  0
  6  7  1  0
  7  8  1  0
  8  9  1  0
  9 10  1  0
 10 11  1  6
 10 12  1  0
 12 13  1  1
 13 14  1  0
 14 15  1  0
 15 16  2  0
 16 17  1  0
 17 18  1  0
 18 19  1  0
 19 20  1  0
 20 21  1  0
 21 22  1  0
 22 23  1  0
 23 24  2  0
 24 25  1  0
 25 26  2  0
 26 27  1  0
 26 28  1  0
 28 29  2  0
 29 30  1  0
 30 31  2  0
 31 32  1  0
 24 33  1  0
 33 34  2  0
 33 35  1  0
 16 36  1  0
 36 37  2  0
 37 38  1  0
  6 39  2  0
 39 40  1  0
 40 41  2  0
 27 22  2  0
 32 28  1  0
 35 12  1  0
 38 14  2  0
 41  4  1  0
M  END
$$$$
