
     RDKit          3D

 41 45  0  0  0  0  0  0  0  0999 V2000
  -10.9216  -37.3061  -13.2861 C   0  0  0  0  0  0  0  0  0  0  0  0
  -12.3231  -37.1406  -12.7431 C   0  0  0  0  0  0  0  0  0  0  0  0
  -13.1458  -36.3898  -13.7905 C   0  0  0  0  0  0  0  0  0  0  0  0
  -12.9379  -38.4421  -12.4126 C   0  0  0  0  0  0  0  0  0  0  0  0
  -13.2180  -38.8525  -11.1521 C   0  0  0  0  0  0  0  0  0  0  0  0
  -13.7918  -40.0716  -10.8264 C   0  0  0  0  0  0  0  0  0  0  0  0
  -14.0920  -40.5125   -9.4643 C   0  0  0  0  0  0  0  0  0  0  0  0
  -14.6747  -39.5447   -8.5999 N   0  0  0  0  0  0  0  0  0  0  0  0
  -16.0075  -39.1231   -8.9294 C   0  0  0  0  0  0  0  0  0  0  0  0
  -16.7913  -38.6609   -7.7349 C   0  0  1  0  0  0  0  0  0  0  0  0
  -17.6174  -37.5832   -8.0846 O   0  0  0  0  0  0  0  0  0  0  0  0
  -17.7831  -39.7901   -7.3670 C   0  0  2  0  0  0  0  0  0  0  0  0
  -18.6299  -39.3987   -6.2505 C   0  0  0  0  0  0  0  0  0  0  0  0
  -20.0300  -38.9127   -6.4350 C   0  0  0  0  0  0  0  0  0  0  0  0
  -21.0415  -39.3949   -7.2253 C   0  0  0  0  0  0  0  0  0  0  0  0
  -22.2842  -38.8055   -7.1481 C   0  0  0  0  0  0  0  0  0  0  0  0
  -23.5492  -39.1344   -7.8610 C   0  0  0  0  0  0  0  0  0  0  0  0
  -24.1540  -40.4835   -7.5895 C   0  0  0  0  0  0  0  0  0  0  0  0
  -23.5533  -41.3001   -6.5050 C   0  0  0  0  0  0  0  0  0  0  0  0
  -23.5068  -42.7860   -6.8637 C   0  0  0  0  0  0  0  0  0  0  0  0
  -22.4298  -43.4793   -6.3089 O   0  0  0  0  0  0  0  0  0  0  0  0
  -21.0938  -43.6795   -6.5925 C   0  0  0  0  0  0  0  0  0  0  0  0
  -20.0510  -42.7583   -6.5216 C   0  0  0  0  0  0  0  0  0  0  0  0
  -18.7763  -43.1256   -6.8546 C   0  0  0  0  0  0  0  0  0  0  0  0
  -18.5898  -44.4828   -7.2603 C   0  0  0  0  0  0  0  0  0  0  0  0
  -19.5687  -45.4179   -7.3408 C   0  0  0  0  0  0  0  0  0  0  0  0
  -20.8296  -44.9986   -7.0001 C   0  0  0  0  0  0  0  0  0  0  0  0
  -19.2935  -46.7921   -7.7697 C   0  0  0  0  0  0  0  0  0  0  0  0
  -18.3312  -47.6036   -7.3042 N   0  0  0  0  0  0  0  0  0  0  0  0
  -18.4016  -48.7855   -7.9499 C   0  0  0  0  0  0  0  0  0  0  0  0
  -19.4623  -48.6488   -8.8344 C   0  0  0  0  0  0  0  0  0  0  0  0
  -19.9631  -47.4373   -8.6874 O   0  0  0  0  0  0  0  0  0  0  0  0
  -17.5090  -42.3360   -6.9101 C   0  0  0  0  0  0  0  0  0  0  0  0
  -16.4896  -43.0193   -6.4140 O   0  0  0  0  0  0  0  0  0  0  0  0
  -17.1396  -41.0792   -7.3529 N   0  0  0  0  0  0  0  0  0  0  0  0
  -22.4817  -37.7169   -6.2599 C   0  0  0  0  0  0  0  0  0  0  0  0
  -21.5060  -37.2008   -5.4556 C   0  0  0  0  0  0  0  0  0  0  0  0
  -20.2923  -37.8181   -5.5645 C   0  0  0  0  0  0  0  0  0  0  0  0
  -14.0846  -40.9026  -11.8894 C   0  0  0  0  0  0  0  0  0  0  0  0
  -13.8108  -40.5158  -13.2079 C   0  0  0  0  0  0  0  0  0  0  0  0
  -13.2445  -39.2996  -13.4613 C   0  0  0  0  0  0  0  0  0  0  0  0
  1  2  1  0
  2  3  1  0
  2  4  1  0
  4  5  2  0
  5  6  1  0
  6  7  1  0
  7  8  1  0
  8  9  1  0
  9 10  1  0
 10 11  1  6
 10 12  1  0
 12 13  1  1
 13 14  1  0
 14 15  1  0
 15 16  2  0
 16 17  1  0
 17 18  1  0
 18 19  1  0
 19 20  1  0
 20 21  1  0
 21 22  1  0
 22 23  1  0
 23 24  2  0
 24 25  1  0
 25 26  2  0
 26 27  1  0
 26 28  1  0
 28 29  2  0
 29 30  1  0
 30 31  2  0
 31 32  1  0
 24 33  1  0
 33 34  2  0
 33 35  1  0
 16 36  1  0
 36 37  2  0
 37 38  1  0
  6 39  2  0
 39 40  1  0
 40 41  2  0
 27 22  2  0
 32 28  1  0
 35 12  1  0
 38 14  2  0
 41  4  1  0
M  END
$$$$
