
     RDKit          3D

 41 45  0  0  0  0  0  0  0  0999 V2000
  -12.8777  -35.1524  -10.6455 C   0  0  0  0  0  0  0  0  0  0  0  0
  -14.0488  -36.0314  -11.0230 C   0  0  0  0  0  0  0  0  0  0  0  0
  -14.1923  -35.9926  -12.5447 C   0  0  0  0  0  0  0  0  0  0  0  0
  -13.8719  -37.4150  -10.5377 C   0  0  0  0  0  0  0  0  0  0  0  0
  -14.3764  -37.8815   -9.3700 C   0  0  0  0  0  0  0  0  0  0  0  0
  -14.2163  -39.1758   -8.9003 C   0  0  0  0  0  0  0  0  0  0  0  0
  -14.7612  -39.6763   -7.6383 C   0  0  0  0  0  0  0  0  0  0  0  0
  -15.3341  -40.9779   -7.6685 N   0  0  0  0  0  0  0  0  0  0  0  0
  -16.0956  -41.3069   -8.8409 C   0  0  0  0  0  0  0  0  0  0  0  0
  -16.9607  -40.1759   -9.3178 C   0  0  1  0  0  0  0  0  0  0  0  0
  -17.5176  -40.4850  -10.5670 O   0  0  0  0  0  0  0  0  0  0  0  0
  -18.1824  -40.0970   -8.3714 C   0  0  2  0  0  0  0  0  0  0  0  0
  -18.9186  -38.8579   -8.5706 C   0  0  0  0  0  0  0  0  0  0  0  0
  -20.1723  -38.7887   -9.3792 C   0  0  0  0  0  0  0  0  0  0  0  0
  -21.2668  -39.6146   -9.3949 C   0  0  0  0  0  0  0  0  0  0  0  0
  -22.3438  -39.2763  -10.1844 C   0  0  0  0  0  0  0  0  0  0  0  0
  -23.6504  -39.9646  -10.3727 C   0  0  0  0  0  0  0  0  0  0  0  0
  -24.5450  -40.0709   -9.1693 C   0  0  0  0  0  0  0  0  0  0  0  0
  -24.1446  -39.3280   -7.9479 C   0  0  0  0  0  0  0  0  0  0  0  0
  -24.4356  -40.1203   -6.6727 C   0  0  0  0  0  0  0  0  0  0  0  0
  -23.5435  -39.8773   -5.6270 O   0  0  0  0  0  0  0  0  0  0  0  0
  -22.2875  -40.3010   -5.2419 C   0  0  0  0  0  0  0  0  0  0  0  0
  -21.0633  -40.0289   -5.8487 C   0  0  0  0  0  0  0  0  0  0  0  0
  -19.9049  -40.5457   -5.3372 C   0  0  0  0  0  0  0  0  0  0  0  0
  -20.0304  -41.3537   -4.1656 C   0  0  0  0  0  0  0  0  0  0  0  0
  -21.1956  -41.6436   -3.5351 C   0  0  0  0  0  0  0  0  0  0  0  0
  -22.3288  -41.1048   -4.0893 C   0  0  0  0  0  0  0  0  0  0  0  0
  -21.2386  -42.4850   -2.3359 C   0  0  0  0  0  0  0  0  0  0  0  0
  -21.1735  -42.0731   -1.0602 N   0  0  0  0  0  0  0  0  0  0  0  0
  -21.2447  -43.1464   -0.2468 C   0  0  0  0  0  0  0  0  0  0  0  0
  -21.3582  -44.2358   -1.0990 C   0  0  0  0  0  0  0  0  0  0  0  0
  -21.3501  -43.7867   -2.3393 O   0  0  0  0  0  0  0  0  0  0  0  0
  -18.4917  -40.4494   -5.8130 C   0  0  0  0  0  0  0  0  0  0  0  0
  -17.6534  -40.2551   -4.8071 O   0  0  0  0  0  0  0  0  0  0  0  0
  -17.8474  -40.5174   -7.0346 N   0  0  0  0  0  0  0  0  0  0  0  0
  -22.2897  -38.0897  -10.9602 C   0  0  0  0  0  0  0  0  0  0  0  0
  -21.2224  -37.2377  -10.9792 C   0  0  0  0  0  0  0  0  0  0  0  0
  -20.1800  -37.6125  -10.1800 C   0  0  0  0  0  0  0  0  0  0  0  0
  -13.4828  -40.0229   -9.7069 C   0  0  0  0  0  0  0  0  0  0  0  0
  -12.9440  -39.5797  -10.9220 C   0  0  0  0  0  0  0  0  0  0  0  0
  -13.1389  -38.2909  -11.3281 C   0  0  0  0  0  0  0  0  0  0  0  0
  1  2  1  0
  2  3  1  0
  2  4  1  0
  4  5  2  0
  5  6  1  0
  6  7  1  0
  7  8  1  0
  8  9  1  0
  9 10  1  0
 10 11  1  6
 10 12  1  0
 12 13  1  1
 13 14  1  0
 14 15  1  0
 15 16  2  0
 16 17  1  0
 17 18  1  0
 18 19  1  0
 19 20  1  0
 20 21  1  0
 21 22  1  0
 22 23  1  0
 23 24  2  0
 24 25  1  0
 25 26  2  0
 26 27  1  0
 26 28  1  0
 28 29  2  0
 29 30  1  0
 30 31  2  0
 31 32  1  0
 24 33  1  0
 33 34  2  0
 33 35  1  0
 16 36  1  0
 36 37  2  0
 37 38  1  0
  6 39  2  0
 39 40  1  0
 40 41  2  0
 27 22  2  0
 32 28  1  0
 35 12  1  0
 38 14  2  0
 41  4  1  0
M  END
$$$$
