
     RDKit          3D

 41 45  0  0  0  0  0  0  0  0999 V2000
  -14.8675  -35.2766  -12.3391 C   0  0  0  0  0  0  0  0  0  0  0  0
  -14.7951  -36.6675  -12.9282 C   0  0  0  0  0  0  0  0  0  0  0  0
  -14.2058  -36.5507  -14.3341 C   0  0  0  0  0  0  0  0  0  0  0  0
  -13.9920  -37.5763  -12.0855 C   0  0  0  0  0  0  0  0  0  0  0  0
  -14.5196  -38.4933  -11.2391 C   0  0  0  0  0  0  0  0  0  0  0  0
  -13.7790  -39.3506  -10.4403 C   0  0  0  0  0  0  0  0  0  0  0  0
  -14.3516  -40.3390   -9.5264 C   0  0  0  0  0  0  0  0  0  0  0  0
  -15.0804  -39.8276   -8.4171 N   0  0  0  0  0  0  0  0  0  0  0  0
  -16.2266  -39.0211   -8.7308 C   0  0  0  0  0  0  0  0  0  0  0  0
  -17.0226  -38.6318   -7.5184 C   0  0  1  0  0  0  0  0  0  0  0  0
  -17.9732  -37.6575   -7.8549 O   0  0  0  0  0  0  0  0  0  0  0  0
  -17.8716  -39.8589   -7.1088 C   0  0  2  0  0  0  0  0  0  0  0  0
  -18.5750  -39.6139   -5.8589 C   0  0  0  0  0  0  0  0  0  0  0  0
  -20.0171  -39.2288   -5.8100 C   0  0  0  0  0  0  0  0  0  0  0  0
  -21.0957  -39.7338   -6.4896 C   0  0  0  0  0  0  0  0  0  0  0  0
  -22.3521  -39.2515   -6.1956 C   0  0  0  0  0  0  0  0  0  0  0  0
  -23.6804  -39.6295   -6.7518 C   0  0  0  0  0  0  0  0  0  0  0  0
  -24.1460  -41.0379   -6.5081 C   0  0  0  0  0  0  0  0  0  0  0  0
  -23.3417  -41.8774   -5.5849 C   0  0  0  0  0  0  0  0  0  0  0  0
  -23.2449  -43.3265   -6.0637 C   0  0  0  0  0  0  0  0  0  0  0  0
  -22.0546  -43.9690   -5.7192 O   0  0  0  0  0  0  0  0  0  0  0  0
  -20.7623  -44.0426   -6.1988 C   0  0  0  0  0  0  0  0  0  0  0  0
  -19.7860  -43.0488   -6.1987 C   0  0  0  0  0  0  0  0  0  0  0  0
  -18.5498  -43.2900   -6.7320 C   0  0  0  0  0  0  0  0  0  0  0  0
  -18.3303  -44.5968   -7.2662 C   0  0  0  0  0  0  0  0  0  0  0  0
  -19.2441  -45.5988   -7.2856 C   0  0  0  0  0  0  0  0  0  0  0  0
  -20.4690  -45.3053   -6.7426 C   0  0  0  0  0  0  0  0  0  0  0  0
  -18.9392  -46.9138   -7.8563 C   0  0  0  0  0  0  0  0  0  0  0  0
  -19.1399  -48.1085   -7.2788 N   0  0  0  0  0  0  0  0  0  0  0  0
  -18.7307  -49.0790   -8.1212 C   0  0  0  0  0  0  0  0  0  0  0  0
  -18.2705  -48.4081   -9.2454 C   0  0  0  0  0  0  0  0  0  0  0  0
  -18.4172  -47.1137   -9.0371 O   0  0  0  0  0  0  0  0  0  0  0  0
  -17.3607  -42.4005   -6.8981 C   0  0  0  0  0  0  0  0  0  0  0  0
  -16.2362  -43.0336   -6.6028 O   0  0  0  0  0  0  0  0  0  0  0  0
  -17.1457  -41.0908   -7.2859 N   0  0  0  0  0  0  0  0  0  0  0  0
  -22.4949  -38.2460   -5.2049 C   0  0  0  0  0  0  0  0  0  0  0  0
  -21.4520  -37.7112   -4.5038 C   0  0  0  0  0  0  0  0  0  0  0  0
  -20.2269  -38.2213   -4.8273 C   0  0  0  0  0  0  0  0  0  0  0  0
  -12.4071  -39.2322  -10.5398 C   0  0  0  0  0  0  0  0  0  0  0  0
  -11.8217  -38.2967  -11.4031 C   0  0  0  0  0  0  0  0  0  0  0  0
  -12.6086  -37.4811  -12.1645 C   0  0  0  0  0  0  0  0  0  0  0  0
  1  2  1  0
  2  3  1  0
  2  4  1  0
  4  5  2  0
  5  6  1  0
  6  7  1  0
  7  8  1  0
  8  9  1  0
  9 10  1  0
 10 11  1  6
 10 12  1  0
 12 13  1  1
 13 14  1  0
 14 15  1  0
 15 16  2  0
 16 17  1  0
 17 18  1  0
 18 19  1  0
 19 20  1  0
 20 21  1  0
 21 22  1  0
 22 23  1  0
 23 24  2  0
 24 25  1  0
 25 26  2  0
 26 27  1  0
 26 28  1  0
 28 29  2  0
 29 30  1  0
 30 31  2  0
 31 32  1  0
 24 33  1  0
 33 34  2  0
 33 35  1  0
 16 36  1  0
 36 37  2  0
 37 38  1  0
  6 39  2  0
 39 40  1  0
 40 41  2  0
 27 22  2  0
 32 28  1  0
 35 12  1  0
 38 14  2  0
 41  4  1  0
M  END
$$$$
