
     RDKit          3D

 41 45  0  0  0  0  0  0  0  0999 V2000
  -22.5939  -42.0225   -5.7816 C   0  0  0  0  0  0  0  0  0  0  0  0
  -23.0918  -40.7302   -6.3888 C   0  0  0  0  0  0  0  0  0  0  0  0
  -23.6565  -39.8687   -5.2590 C   0  0  0  0  0  0  0  0  0  0  0  0
  -22.0210  -40.0212   -7.1180 C   0  0  0  0  0  0  0  0  0  0  0  0
  -21.1355  -39.1766   -6.5364 C   0  0  0  0  0  0  0  0  0  0  0  0
  -20.1276  -38.5023   -7.2079 C   0  0  0  0  0  0  0  0  0  0  0  0
  -19.1737  -37.5899   -6.5774 C   0  0  0  0  0  0  0  0  0  0  0  0
  -18.2783  -38.1643   -5.6330 N   0  0  0  0  0  0  0  0  0  0  0  0
  -17.1661  -38.8920   -6.1772 C   0  0  0  0  0  0  0  0  0  0  0  0
  -17.0925  -38.8215   -7.6754 C   0  0  1  0  0  0  0  0  0  0  0  0
  -15.7689  -38.6082   -8.0862 O   0  0  0  0  0  0  0  0  0  0  0  0
  -17.4331  -40.2284   -8.2221 C   0  0  2  0  0  0  0  0  0  0  0  0
  -17.6299  -40.1954   -9.6634 C   0  0  0  0  0  0  0  0  0  0  0  0
  -16.5744  -40.6243  -10.6290 C   0  0  0  0  0  0  0  0  0  0  0  0
  -15.7518  -41.7213  -10.6175 C   0  0  0  0  0  0  0  0  0  0  0  0
  -14.9101  -41.9325  -11.6874 C   0  0  0  0  0  0  0  0  0  0  0  0
  -13.9438  -43.0352  -11.9462 C   0  0  0  0  0  0  0  0  0  0  0  0
  -14.5124  -44.4182  -12.0995 C   0  0  0  0  0  0  0  0  0  0  0  0
  -15.9896  -44.5503  -12.1662 C   0  0  0  0  0  0  0  0  0  0  0  0
  -16.4899  -45.7863  -11.4173 C   0  0  0  0  0  0  0  0  0  0  0  0
  -17.7570  -45.6424  -10.8497 O   0  0  0  0  0  0  0  0  0  0  0  0
  -18.3030  -45.1003   -9.7037 C   0  0  0  0  0  0  0  0  0  0  0  0
  -18.4059  -43.7564   -9.3514 C   0  0  0  0  0  0  0  0  0  0  0  0
  -18.9693  -43.3924   -8.1594 C   0  0  0  0  0  0  0  0  0  0  0  0
  -19.4403  -44.4536   -7.3268 C   0  0  0  0  0  0  0  0  0  0  0  0
  -19.3684  -45.7746   -7.6257 C   0  0  0  0  0  0  0  0  0  0  0  0
  -18.7917  -46.0874   -8.8302 C   0  0  0  0  0  0  0  0  0  0  0  0
  -19.8744  -46.8036   -6.7129 C   0  0  0  0  0  0  0  0  0  0  0  0
  -19.6320  -46.9022   -5.3966 N   0  0  0  0  0  0  0  0  0  0  0  0
  -20.2749  -47.9836   -4.9104 C   0  0  0  0  0  0  0  0  0  0  0  0
  -20.9238  -48.5376   -6.0049 C   0  0  0  0  0  0  0  0  0  0  0  0
  -20.6526  -47.7939   -7.0601 O   0  0  0  0  0  0  0  0  0  0  0  0
  -19.1558  -42.0501   -7.5300 C   0  0  0  0  0  0  0  0  0  0  0  0
  -20.3477  -41.9408   -6.9645 O   0  0  0  0  0  0  0  0  0  0  0  0
  -18.3950  -40.9041   -7.3890 N   0  0  0  0  0  0  0  0  0  0  0  0
  -14.9138  -41.0103  -12.7656 C   0  0  0  0  0  0  0  0  0  0  0  0
  -15.7123  -39.9037  -12.8212 C   0  0  0  0  0  0  0  0  0  0  0  0
  -16.5309  -39.7369  -11.7405 C   0  0  0  0  0  0  0  0  0  0  0  0
  -20.0516  -38.7313   -8.5673 C   0  0  0  0  0  0  0  0  0  0  0  0
  -20.9482  -39.5974   -9.2070 C   0  0  0  0  0  0  0  0  0  0  0  0
  -21.9191  -40.2322   -8.4870 C   0  0  0  0  0  0  0  0  0  0  0  0
  1  2  1  0
  2  3  1  0
  2  4  1  0
  4  5  2  0
  5  6  1  0
  6  7  1  0
  7  8  1  0
  8  9  1  0
  9 10  1  0
 10 11  1  1
 10 12  1  0
 12 13  1  6
 13 14  1  0
 14 15  1  0
 15 16  2  0
 16 17  1  0
 17 18  1  0
 18 19  1  0
 19 20  1  0
 20 21  1  0
 21 22  1  0
 22 23  1  0
 23 24  2  0
 24 25  1  0
 25 26  2  0
 26 27  1  0
 26 28  1  0
 28 29  2  0
 29 30  1  0
 30 31  2  0
 31 32  1  0
 24 33  1  0
 33 34  2  0
 33 35  1  0
 16 36  1  0
 36 37  2  0
 37 38  1  0
  6 39  2  0
 39 40  1  0
 40 41  2  0
 27 22  2  0
 32 28  1  0
 35 12  1  0
 38 14  2  0
 41  4  1  0
M  END
$$$$
