
     RDKit          3D

 41 45  0  0  0  0  0  0  0  0999 V2000
  -18.4635  -44.3348  -10.4076 C   0  0  0  0  0  0  0  0  0  0  0  0
  -19.3194  -43.4937  -11.3276 C   0  0  0  0  0  0  0  0  0  0  0  0
  -20.7120  -43.3878  -10.7054 C   0  0  0  0  0  0  0  0  0  0  0  0
  -18.7308  -42.1579  -11.5517 C   0  0  0  0  0  0  0  0  0  0  0  0
  -17.5301  -41.7643  -11.0627 C   0  0  0  0  0  0  0  0  0  0  0  0
  -16.9664  -40.5137  -11.2622 C   0  0  0  0  0  0  0  0  0  0  0  0
  -15.6702  -40.0912  -10.7318 C   0  0  0  0  0  0  0  0  0  0  0  0
  -15.6952  -39.3392   -9.5246 N   0  0  0  0  0  0  0  0  0  0  0  0
  -15.6644  -40.0982   -8.3058 C   0  0  0  0  0  0  0  0  0  0  0  0
  -16.5083  -39.4993   -7.2176 C   0  0  1  0  0  0  0  0  0  0  0  0
  -17.2615  -38.4294   -7.7216 O   0  0  0  0  0  0  0  0  0  0  0  0
  -17.5704  -40.5530   -6.8229 C   0  0  2  0  0  0  0  0  0  0  0  0
  -18.1888  -40.2198   -5.5487 C   0  0  0  0  0  0  0  0  0  0  0  0
  -19.5280  -39.5659   -5.4515 C   0  0  0  0  0  0  0  0  0  0  0  0
  -20.6969  -39.8303   -6.1180 C   0  0  0  0  0  0  0  0  0  0  0  0
  -21.8304  -39.1253   -5.7777 C   0  0  0  0  0  0  0  0  0  0  0  0
  -23.2172  -39.2212   -6.3107 C   0  0  0  0  0  0  0  0  0  0  0  0
  -23.9416  -40.5209   -6.0970 C   0  0  0  0  0  0  0  0  0  0  0  0
  -23.2970  -41.5305   -5.2199 C   0  0  0  0  0  0  0  0  0  0  0  0
  -23.4916  -42.9540   -5.7438 C   0  0  0  0  0  0  0  0  0  0  0  0
  -22.4415  -43.8251   -5.4490 O   0  0  0  0  0  0  0  0  0  0  0  0
  -21.1974  -44.1299   -5.9635 C   0  0  0  0  0  0  0  0  0  0  0  0
  -20.0475  -43.3434   -5.9589 C   0  0  0  0  0  0  0  0  0  0  0  0
  -18.8918  -43.8000   -6.5305 C   0  0  0  0  0  0  0  0  0  0  0  0
  -18.9396  -45.1057   -7.1087 C   0  0  0  0  0  0  0  0  0  0  0  0
  -20.0301  -45.9116   -7.1343 C   0  0  0  0  0  0  0  0  0  0  0  0
  -21.1644  -45.4062   -6.5517 C   0  0  0  0  0  0  0  0  0  0  0  0
  -19.9964  -47.2406   -7.7513 C   0  0  0  0  0  0  0  0  0  0  0  0
  -19.4316  -48.3486   -7.2469 N   0  0  0  0  0  0  0  0  0  0  0  0
  -19.6116  -49.3675   -8.1120 C   0  0  0  0  0  0  0  0  0  0  0  0
  -20.3194  -48.8179   -9.1717 C   0  0  0  0  0  0  0  0  0  0  0  0
  -20.5252  -47.5420   -8.9073 O   0  0  0  0  0  0  0  0  0  0  0  0
  -17.5567  -43.1511   -6.7007 C   0  0  0  0  0  0  0  0  0  0  0  0
  -16.5703  -43.9986   -6.4531 O   0  0  0  0  0  0  0  0  0  0  0  0
  -17.1000  -41.8950   -7.0549 N   0  0  0  0  0  0  0  0  0  0  0  0
  -21.7568  -38.1454   -4.7544 C   0  0  0  0  0  0  0  0  0  0  0  0
  -20.6168  -37.8456   -4.0647 C   0  0  0  0  0  0  0  0  0  0  0  0
  -19.5199  -38.5708   -4.4343 C   0  0  0  0  0  0  0  0  0  0  0  0
  -17.7116  -39.6307  -12.0179 C   0  0  0  0  0  0  0  0  0  0  0  0
  -18.9579  -39.9986  -12.5419 C   0  0  0  0  0  0  0  0  0  0  0  0
  -19.4570  -41.2478  -12.3090 C   0  0  0  0  0  0  0  0  0  0  0  0
  1  2  1  0
  2  3  1  0
  2  4  1  0
  4  5  2  0
  5  6  1  0
  6  7  1  0
  7  8  1  0
  8  9  1  0
  9 10  1  0
 10 11  1  6
 10 12  1  0
 12 13  1  1
 13 14  1  0
 14 15  1  0
 15 16  2  0
 16 17  1  0
 17 18  1  0
 18 19  1  0
 19 20  1  0
 20 21  1  0
 21 22  1  0
 22 23  1  0
 23 24  2  0
 24 25  1  0
 25 26  2  0
 26 27  1  0
 26 28  1  0
 28 29  2  0
 29 30  1  0
 30 31  2  0
 31 32  1  0
 24 33  1  0
 33 34  2  0
 33 35  1  0
 16 36  1  0
 36 37  2  0
 37 38  1  0
  6 39  2  0
 39 40  1  0
 40 41  2  0
 27 22  2  0
 32 28  1  0
 35 12  1  0
 38 14  2  0
 41  4  1  0
M  END
$$$$
