
     RDKit          3D

 41 45  0  0  0  0  0  0  0  0999 V2000
  -11.4462  -38.0563  -10.5216 C   0  0  0  0  0  0  0  0  0  0  0  0
  -11.0401  -38.9949   -9.4078 C   0  0  0  0  0  0  0  0  0  0  0  0
  -10.3564  -38.1646   -8.3212 C   0  0  0  0  0  0  0  0  0  0  0  0
  -12.1986  -39.7339   -8.8666 C   0  0  0  0  0  0  0  0  0  0  0  0
  -13.3083  -39.1435   -8.3610 C   0  0  0  0  0  0  0  0  0  0  0  0
  -14.4016  -39.8234   -7.8473 C   0  0  0  0  0  0  0  0  0  0  0  0
  -15.5980  -39.1831   -7.3009 C   0  0  0  0  0  0  0  0  0  0  0  0
  -16.2584  -38.2494   -8.1468 N   0  0  0  0  0  0  0  0  0  0  0  0
  -16.7901  -38.7734   -9.3738 C   0  0  0  0  0  0  0  0  0  0  0  0
  -18.0957  -38.1438   -9.7662 C   0  0  1  0  0  0  0  0  0  0  0  0
  -18.4031  -38.4555  -11.0983 O   0  0  0  0  0  0  0  0  0  0  0  0
  -19.2098  -38.8422   -8.9506 C   0  0  2  0  0  0  0  0  0  0  0  0
  -20.4919  -38.1826   -9.1457 C   0  0  0  0  0  0  0  0  0  0  0  0
  -21.5345  -38.7106  -10.0756 C   0  0  0  0  0  0  0  0  0  0  0  0
  -21.9966  -39.9884  -10.2598 C   0  0  0  0  0  0  0  0  0  0  0  0
  -23.0397  -40.1987  -11.1347 C   0  0  0  0  0  0  0  0  0  0  0  0
  -23.7451  -41.4568  -11.5036 C   0  0  0  0  0  0  0  0  0  0  0  0
  -24.4982  -42.1621  -10.4104 C   0  0  0  0  0  0  0  0  0  0  0  0
  -24.6347  -41.4623   -9.1082 C   0  0  0  0  0  0  0  0  0  0  0  0
  -24.5122  -42.4229   -7.9246 C   0  0  0  0  0  0  0  0  0  0  0  0
  -23.9551  -41.8557   -6.7773 O   0  0  0  0  0  0  0  0  0  0  0  0
  -22.6943  -41.5752   -6.2903 C   0  0  0  0  0  0  0  0  0  0  0  0
  -21.7880  -40.6203   -6.7460 C   0  0  0  0  0  0  0  0  0  0  0  0
  -20.5646  -40.4841   -6.1499 C   0  0  0  0  0  0  0  0  0  0  0  0
  -20.2897  -41.3570   -5.0527 C   0  0  0  0  0  0  0  0  0  0  0  0
  -21.1383  -42.2976   -4.5684 C   0  0  0  0  0  0  0  0  0  0  0  0
  -22.3504  -42.3970   -5.2029 C   0  0  0  0  0  0  0  0  0  0  0  0
  -20.7777  -43.1570   -3.4373 C   0  0  0  0  0  0  0  0  0  0  0  0
  -19.5895  -43.7401   -3.2156 N   0  0  0  0  0  0  0  0  0  0  0  0
  -19.6545  -44.4508   -2.0712 C   0  0  0  0  0  0  0  0  0  0  0  0
  -20.9494  -44.2666   -1.6073 C   0  0  0  0  0  0  0  0  0  0  0  0
  -21.5815  -43.4839   -2.4606 O   0  0  0  0  0  0  0  0  0  0  0  0
  -19.4113  -39.5886   -6.4671 C   0  0  0  0  0  0  0  0  0  0  0  0
  -18.8703  -39.0866   -5.3681 O   0  0  0  0  0  0  0  0  0  0  0  0
  -18.7710  -39.1617   -7.6159 N   0  0  0  0  0  0  0  0  0  0  0  0
  -23.6021  -39.0924  -11.8222 C   0  0  0  0  0  0  0  0  0  0  0  0
  -23.1752  -37.8036  -11.6736 C   0  0  0  0  0  0  0  0  0  0  0  0
  -22.1417  -37.6436  -10.7950 C   0  0  0  0  0  0  0  0  0  0  0  0
  -14.3179  -41.2014   -7.8676 C   0  0  0  0  0  0  0  0  0  0  0  0
  -13.1879  -41.8508   -8.3820 C   0  0  0  0  0  0  0  0  0  0  0  0
  -12.1438  -41.1217   -8.8743 C   0  0  0  0  0  0  0  0  0  0  0  0
  1  2  1  0
  2  3  1  0
  2  4  1  0
  4  5  2  0
  5  6  1  0
  6  7  1  0
  7  8  1  0
  8  9  1  0
  9 10  1  0
 10 11  1  6
 10 12  1  0
 12 13  1  1
 13 14  1  0
 14 15  1  0
 15 16  2  0
 16 17  1  0
 17 18  1  0
 18 19  1  0
 19 20  1  0
 20 21  1  0
 21 22  1  0
 22 23  1  0
 23 24  2  0
 24 25  1  0
 25 26  2  0
 26 27  1  0
 26 28  1  0
 28 29  2  0
 29 30  1  0
 30 31  2  0
 31 32  1  0
 24 33  1  0
 33 34  2  0
 33 35  1  0
 16 36  1  0
 36 37  2  0
 37 38  1  0
  6 39  2  0
 39 40  1  0
 40 41  2  0
 27 22  2  0
 32 28  1  0
 35 12  1  0
 38 14  2  0
 41  4  1  0
M  END
$$$$
