
     RDKit          3D

 41 44  0  0  0  0  0  0  0  0999 V2000
  -11.7099  -34.4788  -11.7068 C   0  0  0  0  0  0  0  0  0  0  0  0
  -12.9237  -34.8645  -10.9082 C   0  0  0  0  0  0  0  0  0  0  0  0
  -12.4668  -35.7662   -9.7519 C   0  0  0  0  0  0  0  0  0  0  0  0
  -13.8254  -35.7177  -11.7538 C   0  0  0  0  0  0  0  0  0  0  0  0
  -13.7789  -35.5838  -13.1206 C   0  0  0  0  0  0  0  0  0  0  0  0
  -14.6212  -36.3676  -13.9082 C   0  0  0  0  0  0  0  0  0  0  0  0
  -15.4937  -37.2662  -13.3206 C   0  0  0  0  0  0  0  0  0  0  0  0
  -15.5462  -37.4035  -11.9577 C   0  0  0  0  0  0  0  0  0  0  0  0
  -14.7023  -36.6183  -11.2012 C   0  0  0  0  0  0  0  0  0  0  0  0
  -16.4591  -38.3343  -11.2333 C   0  0  0  0  0  0  0  0  0  0  0  0
  -17.7614  -38.2798  -12.0405 C   0  0  0  0  0  0  0  0  0  0  0  0
  -16.6426  -37.7896   -9.8399 C   0  0  0  0  0  0  0  0  0  0  0  0
  -15.9637  -39.6790  -11.1974 N   0  0  0  0  0  0  0  0  0  0  0  0
  -16.9871  -40.5152  -10.5413 C   0  0  0  0  0  0  0  0  0  0  0  0
  -17.8727  -39.5473   -9.7973 C   0  0  1  0  0  0  0  0  0  0  0  0
  -19.0674  -39.4903  -10.5512 O   0  0  0  0  0  0  0  0  0  0  0  0
  -18.1631  -39.9044   -8.3670 C   0  0  2  0  0  0  0  0  0  0  0  0
  -18.5218  -38.7482   -7.4883 C   0  0  0  0  0  0  0  0  0  0  0  0
  -19.6579  -38.9474   -6.5456 C   0  0  0  0  0  0  0  0  0  0  0  0
  -19.2060  -38.9761   -5.2179 C   0  0  0  0  0  0  0  0  0  0  0  0
  -20.0205  -39.1740   -4.1292 C   0  0  0  0  0  0  0  0  0  0  0  0
  -19.4136  -39.1964   -2.4940 Cl  0  0  0  0  0  0  0  0  0  0  0  0
  -21.3406  -39.3468   -4.4385 C   0  0  0  0  0  0  0  0  0  0  0  0
  -22.1958  -39.5510   -3.3287 O   0  0  0  0  0  0  0  0  0  0  0  0
  -21.8504  -39.3274   -5.7655 C   0  0  0  0  0  0  0  0  0  0  0  0
  -23.3143  -39.5565   -5.6906 C   0  0  0  0  0  0  0  0  0  0  0  0
  -24.0446  -40.3241   -6.6962 C   0  0  0  0  0  0  0  0  0  0  0  0
  -23.3562  -41.5666   -7.1774 C   0  0  0  0  0  0  0  0  0  0  0  0
  -23.3214  -42.6739   -6.1550 C   0  0  0  0  0  0  0  0  0  0  0  0
  -22.1684  -43.3939   -6.0594 O   0  0  0  0  0  0  0  0  0  0  0  0
  -20.9645  -43.4786   -6.7430 C   0  0  0  0  0  0  0  0  0  0  0  0
  -19.8724  -42.6231   -6.6810 C   0  0  0  0  0  0  0  0  0  0  0  0
  -18.7817  -42.9094   -7.4567 C   0  0  0  0  0  0  0  0  0  0  0  0
  -18.8449  -44.0693   -8.2711 C   0  0  0  0  0  0  0  0  0  0  0  0
  -19.9194  -44.9198   -8.3373 C   0  0  0  0  0  0  0  0  0  0  0  0
  -19.9298  -46.1271   -9.2105 C   0  0  0  0  0  0  0  0  0  0  0  0
  -20.9354  -44.5733   -7.5578 N   0  0  0  0  0  0  0  0  0  0  0  0
  -17.4975  -42.2355   -7.6540 C   0  0  0  0  0  0  0  0  0  0  0  0
  -16.3935  -42.9337   -7.6821 O   0  0  0  0  0  0  0  0  0  0  0  0
  -17.2042  -40.8401   -7.8410 N   0  0  0  0  0  0  0  0  0  0  0  0
  -21.0077  -39.1247   -6.8311 C   0  0  0  0  0  0  0  0  0  0  0  0
  1  2  1  0
  2  3  1  0
  2  4  1  0
  4  5  2  0
  5  6  1  0
  6  7  2  0
  7  8  1  0
  8  9  2  0
  8 10  1  0
 10 11  1  0
 10 12  1  0
 10 13  1  0
 13 14  1  0
 14 15  1  0
 15 16  1  6
 15 17  1  0
 17 18  1  1
 18 19  1  0
 19 20  1  0
 20 21  2  0
 21 22  1  0
 21 23  1  0
 23 24  1  0
 23 25  2  0
 25 26  1  0
 26 27  1  0
 27 28  1  0
 28 29  1  0
 29 30  1  0
 30 31  1  0
 31 32  1  0
 32 33  2  0
 33 34  1  0
 34 35  2  0
 35 36  1  0
 35 37  1  0
 33 38  1  0
 38 39  2  0
 38 40  1  0
 25 41  1  0
  9  4  1  0
 37 31  2  0
 40 17  1  0
 41 19  2  0
M  END
$$$$
