
     RDKit          3D

 41 44  0  0  0  0  0  0  0  0999 V2000
  -10.1572  -36.4047  -11.9793 C   0  0  0  0  0  0  0  0  0  0  0  0
  -11.2539  -36.9909  -12.8239 C   0  0  0  0  0  0  0  0  0  0  0  0
  -12.4126  -35.9837  -12.8669 C   0  0  0  0  0  0  0  0  0  0  0  0
  -11.8054  -38.2124  -12.1460 C   0  0  0  0  0  0  0  0  0  0  0  0
  -11.2887  -39.4437  -12.4700 C   0  0  0  0  0  0  0  0  0  0  0  0
  -11.8047  -40.5807  -11.8494 C   0  0  0  0  0  0  0  0  0  0  0  0
  -12.8251  -40.4701  -10.9217 C   0  0  0  0  0  0  0  0  0  0  0  0
  -13.3462  -39.2450  -10.5952 C   0  0  0  0  0  0  0  0  0  0  0  0
  -12.8179  -38.1360  -11.2216 C   0  0  0  0  0  0  0  0  0  0  0  0
  -14.4518  -39.0262   -9.6184 C   0  0  0  0  0  0  0  0  0  0  0  0
  -13.7313  -38.8419   -8.2778 C   0  0  0  0  0  0  0  0  0  0  0  0
  -15.3093  -40.2657   -9.6256 C   0  0  0  0  0  0  0  0  0  0  0  0
  -15.2316  -37.8610   -9.9170 N   0  0  0  0  0  0  0  0  0  0  0  0
  -16.5622  -38.0450   -9.3065 C   0  0  0  0  0  0  0  0  0  0  0  0
  -16.3023  -38.7290   -7.9877 C   0  0  1  0  0  0  0  0  0  0  0  0
  -16.3710  -37.6993   -7.0214 O   0  0  0  0  0  0  0  0  0  0  0  0
  -17.2451  -39.8466   -7.6418 C   0  0  2  0  0  0  0  0  0  0  0  0
  -17.4485  -40.0698   -6.1767 C   0  0  0  0  0  0  0  0  0  0  0  0
  -18.8456  -40.3158   -5.7218 C   0  0  0  0  0  0  0  0  0  0  0  0
  -19.0020  -41.6387   -5.2821 C   0  0  0  0  0  0  0  0  0  0  0  0
  -20.1872  -42.1673   -4.8310 C   0  0  0  0  0  0  0  0  0  0  0  0
  -20.3329  -43.8188   -4.2884 Cl  0  0  0  0  0  0  0  0  0  0  0  0
  -21.2346  -41.2894   -4.8413 C   0  0  0  0  0  0  0  0  0  0  0  0
  -22.4646  -41.8162   -4.3785 O   0  0  0  0  0  0  0  0  0  0  0  0
  -21.1305  -39.9400   -5.2769 C   0  0  0  0  0  0  0  0  0  0  0  0
  -22.4710  -39.3180   -5.1458 C   0  0  0  0  0  0  0  0  0  0  0  0
  -22.9789  -38.3318   -6.0961 C   0  0  0  0  0  0  0  0  0  0  0  0
  -22.6896  -38.6245   -7.5383 C   0  0  0  0  0  0  0  0  0  0  0  0
  -23.4871  -39.7769   -8.0938 C   0  0  0  0  0  0  0  0  0  0  0  0
  -22.8368  -40.6364   -8.9277 O   0  0  0  0  0  0  0  0  0  0  0  0
  -21.5939  -40.7134   -9.5384 C   0  0  0  0  0  0  0  0  0  0  0  0
  -20.3782  -41.0888   -8.9819 C   0  0  0  0  0  0  0  0  0  0  0  0
  -19.2708  -41.0874   -9.7861 C   0  0  0  0  0  0  0  0  0  0  0  0
  -19.4467  -40.7029  -11.1404 C   0  0  0  0  0  0  0  0  0  0  0  0
  -20.6441  -40.3316  -11.6979 C   0  0  0  0  0  0  0  0  0  0  0  0
  -20.7708  -39.9388  -13.1296 C   0  0  0  0  0  0  0  0  0  0  0  0
  -21.6676  -40.3580  -10.8543 N   0  0  0  0  0  0  0  0  0  0  0  0
  -17.8620  -41.3978   -9.5388 C   0  0  0  0  0  0  0  0  0  0  0  0
  -17.1956  -42.1253  -10.3954 O   0  0  0  0  0  0  0  0  0  0  0  0
  -17.0092  -41.0174   -8.4452 N   0  0  0  0  0  0  0  0  0  0  0  0
  -19.9289  -39.4433   -5.7199 C   0  0  0  0  0  0  0  0  0  0  0  0
  1  2  1  0
  2  3  1  0
  2  4  1  0
  4  5  2  0
  5  6  1  0
  6  7  2  0
  7  8  1  0
  8  9  2  0
  8 10  1  0
 10 11  1  0
 10 12  1  0
 10 13  1  0
 13 14  1  0
 14 15  1  0
 15 16  1  1
 15 17  1  0
 17 18  1  1
 18 19  1  0
 19 20  1  0
 20 21  2  0
 21 22  1  0
 21 23  1  0
 23 24  1  0
 23 25  2  0
 25 26  1  0
 26 27  1  0
 27 28  1  0
 28 29  1  0
 29 30  1  0
 30 31  1  0
 31 32  1  0
 32 33  2  0
 33 34  1  0
 34 35  2  0
 35 36  1  0
 35 37  1  0
 33 38  1  0
 38 39  2  0
 38 40  1  0
 25 41  1  0
  9  4  1  0
 37 31  2  0
 40 17  1  0
 41 19  2  0
M  END
$$$$
