
     RDKit          3D

 41 44  0  0  0  0  0  0  0  0999 V2000
  -13.1344  -35.4990  -12.8599 C   0  0  0  0  0  0  0  0  0  0  0  0
  -14.1321  -34.4232  -12.5322 C   0  0  0  0  0  0  0  0  0  0  0  0
  -13.3633  -33.2094  -11.9895 C   0  0  0  0  0  0  0  0  0  0  0  0
  -15.0083  -34.8844  -11.4028 C   0  0  0  0  0  0  0  0  0  0  0  0
  -14.8796  -34.2847  -10.1732 C   0  0  0  0  0  0  0  0  0  0  0  0
  -15.6850  -34.7167   -9.1200 C   0  0  0  0  0  0  0  0  0  0  0  0
  -16.5994  -35.7372   -9.3107 C   0  0  0  0  0  0  0  0  0  0  0  0
  -16.7315  -36.3408  -10.5343 C   0  0  0  0  0  0  0  0  0  0  0  0
  -15.9249  -35.8946  -11.5597 C   0  0  0  0  0  0  0  0  0  0  0  0
  -17.6783  -37.4536  -10.8336 C   0  0  0  0  0  0  0  0  0  0  0  0
  -16.8993  -38.3537  -11.7997 C   0  0  0  0  0  0  0  0  0  0  0  0
  -18.8913  -36.8467  -11.4911 C   0  0  0  0  0  0  0  0  0  0  0  0
  -18.0463  -38.1968   -9.6643 N   0  0  0  0  0  0  0  0  0  0  0  0
  -16.9238  -38.1141   -8.7103 C   0  0  0  0  0  0  0  0  0  0  0  0
  -16.8180  -39.4902   -8.1022 C   0  0  1  0  0  0  0  0  0  0  0  0
  -17.1877  -39.3215   -6.7481 O   0  0  0  0  0  0  0  0  0  0  0  0
  -17.6576  -40.5519   -8.7543 C   0  0  2  0  0  0  0  0  0  0  0  0
  -16.8879  -41.5956   -9.4999 C   0  0  0  0  0  0  0  0  0  0  0  0
  -17.3239  -43.0087   -9.3205 C   0  0  0  0  0  0  0  0  0  0  0  0
  -17.8881  -43.5112  -10.5025 C   0  0  0  0  0  0  0  0  0  0  0  0
  -18.4061  -44.7770  -10.6334 C   0  0  0  0  0  0  0  0  0  0  0  0
  -19.0937  -45.3606  -12.1266 Cl  0  0  0  0  0  0  0  0  0  0  0  0
  -18.3321  -45.5351   -9.4986 C   0  0  0  0  0  0  0  0  0  0  0  0
  -18.8602  -46.8436   -9.6147 O   0  0  0  0  0  0  0  0  0  0  0  0
  -17.7715  -45.0747   -8.2758 C   0  0  0  0  0  0  0  0  0  0  0  0
  -17.8806  -46.1745   -7.2862 C   0  0  0  0  0  0  0  0  0  0  0  0
  -18.1472  -45.9371   -5.8697 C   0  0  0  0  0  0  0  0  0  0  0  0
  -19.1747  -44.8839   -5.5796 C   0  0  0  0  0  0  0  0  0  0  0  0
  -20.5829  -45.3027   -5.9180 C   0  0  0  0  0  0  0  0  0  0  0  0
  -21.3859  -44.3670   -6.4982 O   0  0  0  0  0  0  0  0  0  0  0  0
  -21.3150  -43.0153   -6.8011 C   0  0  0  0  0  0  0  0  0  0  0  0
  -20.6461  -42.3974   -7.8495 C   0  0  0  0  0  0  0  0  0  0  0  0
  -20.7168  -41.0342   -7.9479 C   0  0  0  0  0  0  0  0  0  0  0  0
  -21.4764  -40.3463   -6.9668 C   0  0  0  0  0  0  0  0  0  0  0  0
  -22.1408  -40.9493   -5.9287 C   0  0  0  0  0  0  0  0  0  0  0  0
  -22.9268  -40.1756   -4.9269 C   0  0  0  0  0  0  0  0  0  0  0  0
  -22.0226  -42.2704   -5.9024 N   0  0  0  0  0  0  0  0  0  0  0  0
  -20.1354  -40.0736   -8.8868 C   0  0  0  0  0  0  0  0  0  0  0  0
  -20.8675  -39.0998   -9.3587 O   0  0  0  0  0  0  0  0  0  0  0  0
  -18.8037  -39.9953   -9.4241 N   0  0  0  0  0  0  0  0  0  0  0  0
  -17.2602  -43.8034   -8.1806 C   0  0  0  0  0  0  0  0  0  0  0  0
  1  2  1  0
  2  3  1  0
  2  4  1  0
  4  5  2  0
  5  6  1  0
  6  7  2  0
  7  8  1  0
  8  9  2  0
  8 10  1  0
 10 11  1  0
 10 12  1  0
 10 13  1  0
 13 14  1  0
 14 15  1  0
 15 16  1  1
 15 17  1  0
 17 18  1  6
 18 19  1  0
 19 20  1  0
 20 21  2  0
 21 22  1  0
 21 23  1  0
 23 24  1  0
 23 25  2  0
 25 26  1  0
 26 27  1  0
 27 28  1  0
 28 29  1  0
 29 30  1  0
 30 31  1  0
 31 32  1  0
 32 33  2  0
 33 34  1  0
 34 35  2  0
 35 36  1  0
 35 37  1  0
 33 38  1  0
 38 39  2  0
 38 40  1  0
 25 41  1  0
  9  4  1  0
 37 31  2  0
 40 17  1  0
 41 19  2  0
M  END
$$$$
