
     RDKit          3D

 41 44  0  0  0  0  0  0  0  0999 V2000
  -20.8748  -39.1506  -12.5469 C   0  0  0  0  0  0  0  0  0  0  0  0
  -20.9074  -39.8405  -11.2116 C   0  0  0  0  0  0  0  0  0  0  0  0
  -22.3736  -40.1380  -10.8645 C   0  0  0  0  0  0  0  0  0  0  0  0
  -20.4251  -38.8935  -10.1502 C   0  0  0  0  0  0  0  0  0  0  0  0
  -21.3465  -38.2880   -9.3301 C   0  0  0  0  0  0  0  0  0  0  0  0
  -20.9030  -37.4012   -8.3498 C   0  0  0  0  0  0  0  0  0  0  0  0
  -19.5533  -37.1330   -8.2069 C   0  0  0  0  0  0  0  0  0  0  0  0
  -18.6291  -37.7324   -9.0227 C   0  0  0  0  0  0  0  0  0  0  0  0
  -19.0928  -38.6064   -9.9832 C   0  0  0  0  0  0  0  0  0  0  0  0
  -17.1578  -37.4987   -8.9533 C   0  0  0  0  0  0  0  0  0  0  0  0
  -17.0016  -36.4413   -7.8541 C   0  0  0  0  0  0  0  0  0  0  0  0
  -16.7222  -36.9750  -10.2978 C   0  0  0  0  0  0  0  0  0  0  0  0
  -16.4258  -38.6798   -8.6010 N   0  0  0  0  0  0  0  0  0  0  0  0
  -16.3579  -38.7413   -7.1284 C   0  0  0  0  0  0  0  0  0  0  0  0
  -16.6279  -40.1833   -6.7788 C   0  0  1  0  0  0  0  0  0  0  0  0
  -16.8845  -40.1812   -5.3885 O   0  0  0  0  0  0  0  0  0  0  0  0
  -17.7592  -40.8295   -7.5273 C   0  0  2  0  0  0  0  0  0  0  0  0
  -17.4429  -41.2179   -8.9368 C   0  0  0  0  0  0  0  0  0  0  0  0
  -17.9268  -42.5514   -9.3913 C   0  0  0  0  0  0  0  0  0  0  0  0
  -18.9448  -42.4143  -10.3467 C   0  0  0  0  0  0  0  0  0  0  0  0
  -19.6055  -43.4695  -10.9279 C   0  0  0  0  0  0  0  0  0  0  0  0
  -20.8628  -43.2502  -12.1170 Cl  0  0  0  0  0  0  0  0  0  0  0  0
  -19.1905  -44.6985  -10.4976 C   0  0  0  0  0  0  0  0  0  0  0  0
  -19.8595  -45.7986  -11.0866 O   0  0  0  0  0  0  0  0  0  0  0  0
  -18.1650  -44.8931   -9.5323 C   0  0  0  0  0  0  0  0  0  0  0  0
  -18.0096  -46.3540   -9.3262 C   0  0  0  0  0  0  0  0  0  0  0  0
  -17.6960  -46.9376   -8.0243 C   0  0  0  0  0  0  0  0  0  0  0  0
  -18.4202  -46.3308   -6.8596 C   0  0  0  0  0  0  0  0  0  0  0  0
  -19.8880  -46.6719   -6.8153 C   0  0  0  0  0  0  0  0  0  0  0  0
  -20.7459  -45.6752   -6.4580 O   0  0  0  0  0  0  0  0  0  0  0  0
  -20.6510  -44.3716   -5.9938 C   0  0  0  0  0  0  0  0  0  0  0  0
  -20.3646  -43.2169   -6.7101 C   0  0  0  0  0  0  0  0  0  0  0  0
  -20.3217  -42.0290   -6.0318 C   0  0  0  0  0  0  0  0  0  0  0  0
  -20.5779  -42.0629   -4.6368 C   0  0  0  0  0  0  0  0  0  0  0  0
  -20.8624  -43.1991   -3.9222 C   0  0  0  0  0  0  0  0  0  0  0  0
  -21.1259  -43.1752   -2.4559 C   0  0  0  0  0  0  0  0  0  0  0  0
  -20.8842  -44.3077   -4.6504 N   0  0  0  0  0  0  0  0  0  0  0  0
  -20.0382  -40.6551   -6.4496 C   0  0  0  0  0  0  0  0  0  0  0  0
  -20.7861  -39.6755   -6.0161 O   0  0  0  0  0  0  0  0  0  0  0  0
  -19.0070  -40.1448   -7.3122 N   0  0  0  0  0  0  0  0  0  0  0  0
  -17.5234  -43.8151   -8.9728 C   0  0  0  0  0  0  0  0  0  0  0  0
  1  2  1  0
  2  3  1  0
  2  4  1  0
  4  5  2  0
  5  6  1  0
  6  7  2  0
  7  8  1  0
  8  9  2  0
  8 10  1  0
 10 11  1  0
 10 12  1  0
 10 13  1  0
 13 14  1  0
 14 15  1  0
 15 16  1  1
 15 17  1  0
 17 18  1  6
 18 19  1  0
 19 20  1  0
 20 21  2  0
 21 22  1  0
 21 23  1  0
 23 24  1  0
 23 25  2  0
 25 26  1  0
 26 27  1  0
 27 28  1  0
 28 29  1  0
 29 30  1  0
 30 31  1  0
 31 32  1  0
 32 33  2  0
 33 34  1  0
 34 35  2  0
 35 36  1  0
 35 37  1  0
 33 38  1  0
 38 39  2  0
 38 40  1  0
 25 41  1  0
  9  4  1  0
 37 31  2  0
 40 17  1  0
 41 19  2  0
M  END
$$$$
