
     RDKit          3D

 41 44  0  0  0  0  0  0  0  0999 V2000
   -9.5894  -38.1357  -12.0695 C   0  0  0  0  0  0  0  0  0  0  0  0
  -10.0161  -39.0654  -10.9679 C   0  0  0  0  0  0  0  0  0  0  0  0
   -9.2125  -40.3670  -11.1047 C   0  0  0  0  0  0  0  0  0  0  0  0
  -11.4524  -39.4539  -11.1729 C   0  0  0  0  0  0  0  0  0  0  0  0
  -11.7864  -40.7868  -11.1822 C   0  0  0  0  0  0  0  0  0  0  0  0
  -13.1174  -41.1513  -11.3815 C   0  0  0  0  0  0  0  0  0  0  0  0
  -14.0879  -40.1836  -11.5699 C   0  0  0  0  0  0  0  0  0  0  0  0
  -13.7612  -38.8523  -11.5635 C   0  0  0  0  0  0  0  0  0  0  0  0
  -12.4387  -38.5177  -11.3629 C   0  0  0  0  0  0  0  0  0  0  0  0
  -14.7325  -37.7393  -11.7688 C   0  0  0  0  0  0  0  0  0  0  0  0
  -15.7399  -38.3069  -12.7754 C   0  0  0  0  0  0  0  0  0  0  0  0
  -13.9664  -36.5746  -12.3419 C   0  0  0  0  0  0  0  0  0  0  0  0
  -15.4082  -37.3647  -10.5613 N   0  0  0  0  0  0  0  0  0  0  0  0
  -16.6823  -38.1073  -10.5131 C   0  0  0  0  0  0  0  0  0  0  0  0
  -17.1931  -37.9274   -9.1055 C   0  0  1  0  0  0  0  0  0  0  0  0
  -18.1980  -36.9378   -9.2043 O   0  0  0  0  0  0  0  0  0  0  0  0
  -17.7307  -39.1674   -8.4490 C   0  0  2  0  0  0  0  0  0  0  0  0
  -17.4469  -39.2798   -6.9846 C   0  0  0  0  0  0  0  0  0  0  0  0
  -18.5642  -39.7470   -6.1172 C   0  0  0  0  0  0  0  0  0  0  0  0
  -18.2972  -41.0248   -5.6037 C   0  0  0  0  0  0  0  0  0  0  0  0
  -19.1573  -41.7268   -4.7943 C   0  0  0  0  0  0  0  0  0  0  0  0
  -18.7795  -43.3130   -4.1744 Cl  0  0  0  0  0  0  0  0  0  0  0  0
  -20.3260  -41.0751   -4.5163 C   0  0  0  0  0  0  0  0  0  0  0  0
  -21.2249  -41.7830   -3.6823 O   0  0  0  0  0  0  0  0  0  0  0  0
  -20.6463  -39.7813   -5.0110 C   0  0  0  0  0  0  0  0  0  0  0  0
  -21.9921  -39.4225   -4.4999 C   0  0  0  0  0  0  0  0  0  0  0  0
  -22.9542  -38.6531   -5.2850 C   0  0  0  0  0  0  0  0  0  0  0  0
  -23.0401  -39.0252   -6.7353 C   0  0  0  0  0  0  0  0  0  0  0  0
  -23.6965  -40.3601   -6.9798 C   0  0  0  0  0  0  0  0  0  0  0  0
  -23.1471  -41.1548   -7.9409 O   0  0  0  0  0  0  0  0  0  0  0  0
  -22.1490  -41.0482   -8.8981 C   0  0  0  0  0  0  0  0  0  0  0  0
  -20.7731  -41.1227   -8.7254 C   0  0  0  0  0  0  0  0  0  0  0  0
  -19.9745  -40.9852   -9.8283 C   0  0  0  0  0  0  0  0  0  0  0  0
  -20.6146  -40.7784  -11.0775 C   0  0  0  0  0  0  0  0  0  0  0  0
  -21.9729  -40.7045  -11.2565 C   0  0  0  0  0  0  0  0  0  0  0  0
  -22.5914  -40.4877  -12.5946 C   0  0  0  0  0  0  0  0  0  0  0  0
  -22.6764  -40.8461  -10.1408 N   0  0  0  0  0  0  0  0  0  0  0  0
  -18.5223  -40.9891  -10.0111 C   0  0  0  0  0  0  0  0  0  0  0  0
  -17.9929  -41.6541  -11.0034 O   0  0  0  0  0  0  0  0  0  0  0  0
  -17.4916  -40.3435   -9.2437 N   0  0  0  0  0  0  0  0  0  0  0  0
  -19.7618  -39.1064   -5.8165 C   0  0  0  0  0  0  0  0  0  0  0  0
  1  2  1  0
  2  3  1  0
  2  4  1  0
  4  5  2  0
  5  6  1  0
  6  7  2  0
  7  8  1  0
  8  9  2  0
  8 10  1  0
 10 11  1  0
 10 12  1  0
 10 13  1  0
 13 14  1  0
 14 15  1  0
 15 16  1  6
 15 17  1  0
 17 18  1  1
 18 19  1  0
 19 20  1  0
 20 21  2  0
 21 22  1  0
 21 23  1  0
 23 24  1  0
 23 25  2  0
 25 26  1  0
 26 27  1  0
 27 28  1  0
 28 29  1  0
 29 30  1  0
 30 31  1  0
 31 32  1  0
 32 33  2  0
 33 34  1  0
 34 35  2  0
 35 36  1  0
 35 37  1  0
 33 38  1  0
 38 39  2  0
 38 40  1  0
 25 41  1  0
  9  4  1  0
 37 31  2  0
 40 17  1  0
 41 19  2  0
M  END
$$$$
