
     RDKit          3D

 41 44  0  0  0  0  0  0  0  0999 V2000
  -24.8384  -37.8861   -5.6920 C   0  0  0  0  0  0  0  0  0  0  0  0
  -23.3948  -37.7057   -6.0708 C   0  0  0  0  0  0  0  0  0  0  0  0
  -23.3301  -36.7184   -7.2455 C   0  0  0  0  0  0  0  0  0  0  0  0
  -22.8540  -39.0021   -6.6025 C   0  0  0  0  0  0  0  0  0  0  0  0
  -23.6969  -39.8440   -7.2872 C   0  0  0  0  0  0  0  0  0  0  0  0
  -23.2005  -41.0525   -7.7741 C   0  0  0  0  0  0  0  0  0  0  0  0
  -21.8773  -41.4000   -7.5681 C   0  0  0  0  0  0  0  0  0  0  0  0
  -21.0315  -40.5655   -6.8844 C   0  0  0  0  0  0  0  0  0  0  0  0
  -21.5461  -39.3758   -6.4144 C   0  0  0  0  0  0  0  0  0  0  0  0
  -19.5962  -40.8571   -6.6029 C   0  0  0  0  0  0  0  0  0  0  0  0
  -19.1698  -41.7708   -7.7578 C   0  0  0  0  0  0  0  0  0  0  0  0
  -19.5345  -41.5691   -5.2757 C   0  0  0  0  0  0  0  0  0  0  0  0
  -18.7837  -39.6762   -6.5899 N   0  0  0  0  0  0  0  0  0  0  0  0
  -17.3946  -40.0923   -6.3176 C   0  0  0  0  0  0  0  0  0  0  0  0
  -16.5332  -39.1415   -7.1106 C   0  0  1  0  0  0  0  0  0  0  0  0
  -15.2031  -39.5035   -6.7963 O   0  0  0  0  0  0  0  0  0  0  0  0
  -16.7515  -39.1573   -8.5971 C   0  0  2  0  0  0  0  0  0  0  0  0
  -17.6286  -38.0632   -9.1177 C   0  0  0  0  0  0  0  0  0  0  0  0
  -17.1854  -37.3833  -10.3669 C   0  0  0  0  0  0  0  0  0  0  0  0
  -18.0428  -37.6905  -11.4338 C   0  0  0  0  0  0  0  0  0  0  0  0
  -17.8722  -37.2325  -12.7179 C   0  0  0  0  0  0  0  0  0  0  0  0
  -18.9686  -37.6371  -14.0129 Cl  0  0  0  0  0  0  0  0  0  0  0  0
  -16.7764  -36.4337  -12.8891 C   0  0  0  0  0  0  0  0  0  0  0  0
  -16.5848  -35.9510  -14.2063 O   0  0  0  0  0  0  0  0  0  0  0  0
  -15.8762  -36.0922  -11.8430 C   0  0  0  0  0  0  0  0  0  0  0  0
  -14.8214  -35.2233  -12.4203 C   0  0  0  0  0  0  0  0  0  0  0  0
  -13.4284  -35.2781  -11.9837 C   0  0  0  0  0  0  0  0  0  0  0  0
  -12.8848  -36.6562  -11.7498 C   0  0  0  0  0  0  0  0  0  0  0  0
  -12.6649  -37.4432  -13.0167 C   0  0  0  0  0  0  0  0  0  0  0  0
  -13.0011  -38.7635  -12.9930 O   0  0  0  0  0  0  0  0  0  0  0  0
  -13.4246  -39.6867  -12.0484 C   0  0  0  0  0  0  0  0  0  0  0  0
  -14.6911  -39.8461  -11.5015 C   0  0  0  0  0  0  0  0  0  0  0  0
  -14.8750  -40.8349  -10.5734 C   0  0  0  0  0  0  0  0  0  0  0  0
  -13.7515  -41.6334  -10.2372 C   0  0  0  0  0  0  0  0  0  0  0  0
  -12.4976  -41.4830  -10.7735 C   0  0  0  0  0  0  0  0  0  0  0  0
  -11.3528  -42.3536  -10.3842 C   0  0  0  0  0  0  0  0  0  0  0  0
  -12.4012  -40.5038  -11.6633 N   0  0  0  0  0  0  0  0  0  0  0  0
  -16.0380  -41.2646   -9.7954 C   0  0  0  0  0  0  0  0  0  0  0  0
  -16.3018  -42.5378   -9.6682 O   0  0  0  0  0  0  0  0  0  0  0  0
  -17.0169  -40.4843   -9.0876 N   0  0  0  0  0  0  0  0  0  0  0  0
  -16.0782  -36.5661  -10.5697 C   0  0  0  0  0  0  0  0  0  0  0  0
  1  2  1  0
  2  3  1  0
  2  4  1  0
  4  5  2  0
  5  6  1  0
  6  7  2  0
  7  8  1  0
  8  9  2  0
  8 10  1  0
 10 11  1  0
 10 12  1  0
 10 13  1  0
 13 14  1  0
 14 15  1  0
 15 16  1  6
 15 17  1  0
 17 18  1  1
 18 19  1  0
 19 20  1  0
 20 21  2  0
 21 22  1  0
 21 23  1  0
 23 24  1  0
 23 25  2  0
 25 26  1  0
 26 27  1  0
 27 28  1  0
 28 29  1  0
 29 30  1  0
 30 31  1  0
 31 32  1  0
 32 33  2  0
 33 34  1  0
 34 35  2  0
 35 36  1  0
 35 37  1  0
 33 38  1  0
 38 39  2  0
 38 40  1  0
 25 41  1  0
  9  4  1  0
 37 31  2  0
 40 17  1  0
 41 19  2  0
M  END
$$$$
