
     RDKit          3D

 41 44  0  0  0  0  0  0  0  0999 V2000
  -13.2826  -35.3833  -11.7313 C   0  0  0  0  0  0  0  0  0  0  0  0
  -13.8598  -36.7662  -11.6121 C   0  0  0  0  0  0  0  0  0  0  0  0
  -13.5882  -37.5111  -12.9275 C   0  0  0  0  0  0  0  0  0  0  0  0
  -15.3549  -36.6737  -11.5016 C   0  0  0  0  0  0  0  0  0  0  0  0
  -16.0618  -36.0789  -12.5187 C   0  0  0  0  0  0  0  0  0  0  0  0
  -17.4490  -35.9830  -12.4151 C   0  0  0  0  0  0  0  0  0  0  0  0
  -18.1040  -36.4781  -11.3017 C   0  0  0  0  0  0  0  0  0  0  0  0
  -17.4046  -37.0712  -10.2827 C   0  0  0  0  0  0  0  0  0  0  0  0
  -16.0342  -37.1551  -10.4097 C   0  0  0  0  0  0  0  0  0  0  0  0
  -18.0189  -37.6229   -9.0407 C   0  0  0  0  0  0  0  0  0  0  0  0
  -19.5260  -37.5694   -9.3169 C   0  0  0  0  0  0  0  0  0  0  0  0
  -17.6270  -36.7142   -7.9038 C   0  0  0  0  0  0  0  0  0  0  0  0
  -17.6190  -38.9743   -8.7787 N   0  0  0  0  0  0  0  0  0  0  0  0
  -17.3587  -39.0908   -7.3311 C   0  0  0  0  0  0  0  0  0  0  0  0
  -16.8286  -40.4891   -7.1347 C   0  0  1  0  0  0  0  0  0  0  0  0
  -17.1140  -40.8029   -5.7861 O   0  0  0  0  0  0  0  0  0  0  0  0
  -17.3973  -41.5317   -8.0552 C   0  0  2  0  0  0  0  0  0  0  0  0
  -16.4152  -42.5527   -8.5354 C   0  0  0  0  0  0  0  0  0  0  0  0
  -16.8717  -43.9707   -8.5479 C   0  0  0  0  0  0  0  0  0  0  0  0
  -17.0122  -44.4386   -9.8628 C   0  0  0  0  0  0  0  0  0  0  0  0
  -17.4459  -45.7003  -10.1912 C   0  0  0  0  0  0  0  0  0  0  0  0
  -17.6000  -46.2403  -11.8427 Cl  0  0  0  0  0  0  0  0  0  0  0  0
  -17.7405  -46.4912   -9.1162 C   0  0  0  0  0  0  0  0  0  0  0  0
  -18.1882  -47.7960   -9.4351 O   0  0  0  0  0  0  0  0  0  0  0  0
  -17.6164  -46.0665   -7.7650 C   0  0  0  0  0  0  0  0  0  0  0  0
  -18.0330  -47.1949   -6.8966 C   0  0  0  0  0  0  0  0  0  0  0  0
  -18.7516  -46.9991   -5.6400 C   0  0  0  0  0  0  0  0  0  0  0  0
  -19.8280  -45.9553   -5.6742 C   0  0  0  0  0  0  0  0  0  0  0  0
  -21.0431  -46.3647   -6.4672 C   0  0  0  0  0  0  0  0  0  0  0  0
  -21.6207  -45.4127   -7.2527 O   0  0  0  0  0  0  0  0  0  0  0  0
  -21.4681  -44.0527   -7.4783 C   0  0  0  0  0  0  0  0  0  0  0  0
  -20.4986  -43.4042   -8.2318 C   0  0  0  0  0  0  0  0  0  0  0  0
  -20.5467  -42.0387   -8.3105 C   0  0  0  0  0  0  0  0  0  0  0  0
  -21.5929  -41.3801   -7.6143 C   0  0  0  0  0  0  0  0  0  0  0  0
  -22.5549  -42.0135   -6.8687 C   0  0  0  0  0  0  0  0  0  0  0  0
  -23.6336  -41.2698   -6.1592 C   0  0  0  0  0  0  0  0  0  0  0  0
  -22.4386  -43.3347   -6.8413 N   0  0  0  0  0  0  0  0  0  0  0  0
  -19.6992  -41.0508   -8.9799 C   0  0  0  0  0  0  0  0  0  0  0  0
  -20.2460  -40.0639   -9.6389 O   0  0  0  0  0  0  0  0  0  0  0  0
  -18.2659  -40.9562   -9.0482 N   0  0  0  0  0  0  0  0  0  0  0  0
  -17.1774  -44.7983   -7.4724 C   0  0  0  0  0  0  0  0  0  0  0  0
  1  2  1  0
  2  3  1  0
  2  4  1  0
  4  5  2  0
  5  6  1  0
  6  7  2  0
  7  8  1  0
  8  9  2  0
  8 10  1  0
 10 11  1  0
 10 12  1  0
 10 13  1  0
 13 14  1  0
 14 15  1  0
 15 16  1  1
 15 17  1  0
 17 18  1  6
 18 19  1  0
 19 20  1  0
 20 21  2  0
 21 22  1  0
 21 23  1  0
 23 24  1  0
 23 25  2  0
 25 26  1  0
 26 27  1  0
 27 28  1  0
 28 29  1  0
 29 30  1  0
 30 31  1  0
 31 32  1  0
 32 33  2  0
 33 34  1  0
 34 35  2  0
 35 36  1  0
 35 37  1  0
 33 38  1  0
 38 39  2  0
 38 40  1  0
 25 41  1  0
  9  4  1  0
 37 31  2  0
 40 17  1  0
 41 19  2  0
M  END
$$$$
