
     RDKit          3D

 41 44  0  0  0  0  0  0  0  0999 V2000
  -22.2360  -43.5955   -8.7529 C   0  0  0  0  0  0  0  0  0  0  0  0
  -22.9562  -42.4011   -8.1920 C   0  0  0  0  0  0  0  0  0  0  0  0
  -22.8944  -41.2746   -9.2341 C   0  0  0  0  0  0  0  0  0  0  0  0
  -22.2089  -41.8859   -6.9954 C   0  0  0  0  0  0  0  0  0  0  0  0
  -22.4666  -42.4355   -5.7626 C   0  0  0  0  0  0  0  0  0  0  0  0
  -21.7814  -41.9532   -4.6481 C   0  0  0  0  0  0  0  0  0  0  0  0
  -20.8564  -40.9332   -4.7820 C   0  0  0  0  0  0  0  0  0  0  0  0
  -20.5959  -40.3794   -6.0086 C   0  0  0  0  0  0  0  0  0  0  0  0
  -21.2853  -40.8748   -7.0952 C   0  0  0  0  0  0  0  0  0  0  0  0
  -19.6275  -39.2714   -6.2509 C   0  0  0  0  0  0  0  0  0  0  0  0
  -19.3118  -38.7410   -4.8475 C   0  0  0  0  0  0  0  0  0  0  0  0
  -20.3295  -38.2376   -7.0937 C   0  0  0  0  0  0  0  0  0  0  0  0
  -18.4224  -39.7185   -6.8855 N   0  0  0  0  0  0  0  0  0  0  0  0
  -17.3116  -39.5018   -5.9389 C   0  0  0  0  0  0  0  0  0  0  0  0
  -16.2983  -38.6818   -6.6975 C   0  0  1  0  0  0  0  0  0  0  0  0
  -15.0429  -39.2149   -6.3249 O   0  0  0  0  0  0  0  0  0  0  0  0
  -16.4538  -38.6824   -8.1920 C   0  0  2  0  0  0  0  0  0  0  0  0
  -16.9712  -37.4049   -8.7731 C   0  0  0  0  0  0  0  0  0  0  0  0
  -16.3078  -36.9131  -10.0129 C   0  0  0  0  0  0  0  0  0  0  0  0
  -17.1742  -37.0037  -11.1125 C   0  0  0  0  0  0  0  0  0  0  0  0
  -16.8327  -36.6507  -12.3956 C   0  0  0  0  0  0  0  0  0  0  0  0
  -17.9467  -36.7758  -13.7322 Cl  0  0  0  0  0  0  0  0  0  0  0  0
  -15.5523  -36.1921  -12.5309 C   0  0  0  0  0  0  0  0  0  0  0  0
  -15.1825  -35.8222  -13.8466 O   0  0  0  0  0  0  0  0  0  0  0  0
  -14.6345  -36.0811  -11.4508 C   0  0  0  0  0  0  0  0  0  0  0  0
  -13.3579  -35.5563  -11.9948 C   0  0  0  0  0  0  0  0  0  0  0  0
  -12.0533  -35.9811  -11.4933 C   0  0  0  0  0  0  0  0  0  0  0  0
  -11.9237  -37.4479  -11.2086 C   0  0  0  0  0  0  0  0  0  0  0  0
  -11.8816  -38.3037  -12.4491 C   0  0  0  0  0  0  0  0  0  0  0  0
  -12.5721  -39.4780  -12.4162 O   0  0  0  0  0  0  0  0  0  0  0  0
  -13.2722  -40.2183  -11.4751 C   0  0  0  0  0  0  0  0  0  0  0  0
  -14.5535  -40.0039  -10.9845 C   0  0  0  0  0  0  0  0  0  0  0  0
  -15.0413  -40.8741  -10.0475 C   0  0  0  0  0  0  0  0  0  0  0  0
  -14.1981  -41.9415   -9.6448 C   0  0  0  0  0  0  0  0  0  0  0  0
  -12.9317  -42.1607  -10.1251 C   0  0  0  0  0  0  0  0  0  0  0  0
  -12.0901  -43.3017   -9.6670 C   0  0  0  0  0  0  0  0  0  0  0  0
  -12.5321  -41.2744  -11.0278 N   0  0  0  0  0  0  0  0  0  0  0  0
  -16.3075  -40.9408   -9.3163 C   0  0  0  0  0  0  0  0  0  0  0  0
  -16.9195  -42.0867   -9.1776 O   0  0  0  0  0  0  0  0  0  0  0  0
  -17.0580  -39.8986   -8.6693 N   0  0  0  0  0  0  0  0  0  0  0  0
  -15.0100  -36.4410  -10.1796 C   0  0  0  0  0  0  0  0  0  0  0  0
  1  2  1  0
  2  3  1  0
  2  4  1  0
  4  5  2  0
  5  6  1  0
  6  7  2  0
  7  8  1  0
  8  9  2  0
  8 10  1  0
 10 11  1  0
 10 12  1  0
 10 13  1  0
 13 14  1  0
 14 15  1  0
 15 16  1  6
 15 17  1  0
 17 18  1  1
 18 19  1  0
 19 20  1  0
 20 21  2  0
 21 22  1  0
 21 23  1  0
 23 24  1  0
 23 25  2  0
 25 26  1  0
 26 27  1  0
 27 28  1  0
 28 29  1  0
 29 30  1  0
 30 31  1  0
 31 32  1  0
 32 33  2  0
 33 34  1  0
 34 35  2  0
 35 36  1  0
 35 37  1  0
 33 38  1  0
 38 39  2  0
 38 40  1  0
 25 41  1  0
  9  4  1  0
 37 31  2  0
 40 17  1  0
 41 19  2  0
M  END
$$$$
