
     RDKit          3D

 41 44  0  0  0  0  0  0  0  0999 V2000
  -11.3137  -34.8586  -13.2232 C   0  0  0  0  0  0  0  0  0  0  0  0
  -12.5863  -35.0374  -12.4431 C   0  0  0  0  0  0  0  0  0  0  0  0
  -12.3961  -34.3864  -11.0651 C   0  0  0  0  0  0  0  0  0  0  0  0
  -12.8034  -36.4988  -12.1729 C   0  0  0  0  0  0  0  0  0  0  0  0
  -11.9914  -37.4179  -12.7927 C   0  0  0  0  0  0  0  0  0  0  0  0
  -12.1961  -38.7759  -12.5514 C   0  0  0  0  0  0  0  0  0  0  0  0
  -13.2051  -39.1917  -11.7011 C   0  0  0  0  0  0  0  0  0  0  0  0
  -14.0197  -38.2802  -11.0810 C   0  0  0  0  0  0  0  0  0  0  0  0
  -13.7959  -36.9435  -11.3348 C   0  0  0  0  0  0  0  0  0  0  0  0
  -15.1383  -38.6311  -10.1591 C   0  0  0  0  0  0  0  0  0  0  0  0
  -15.8496  -39.7921  -10.8639 C   0  0  0  0  0  0  0  0  0  0  0  0
  -16.0258  -37.4178  -10.0476 C   0  0  0  0  0  0  0  0  0  0  0  0
  -14.6800  -39.0520   -8.8678 N   0  0  0  0  0  0  0  0  0  0  0  0
  -15.5976  -38.4851   -7.8610 C   0  0  0  0  0  0  0  0  0  0  0  0
  -16.3076  -39.6716   -7.2587 C   0  0  1  0  0  0  0  0  0  0  0  0
  -17.0696  -39.1402   -6.1930 O   0  0  0  0  0  0  0  0  0  0  0  0
  -17.1817  -40.4493   -8.2013 C   0  0  2  0  0  0  0  0  0  0  0  0
  -16.5858  -41.7246   -8.7075 C   0  0  0  0  0  0  0  0  0  0  0  0
  -17.4815  -42.9142   -8.7514 C   0  0  0  0  0  0  0  0  0  0  0  0
  -17.7608  -43.2805  -10.0764 C   0  0  0  0  0  0  0  0  0  0  0  0
  -18.5821  -44.3227  -10.4325 C   0  0  0  0  0  0  0  0  0  0  0  0
  -18.8962  -44.7450  -12.0956 Cl  0  0  0  0  0  0  0  0  0  0  0  0
  -19.1250  -44.9975   -9.3752 C   0  0  0  0  0  0  0  0  0  0  0  0
  -19.9737  -46.0761   -9.7229 O   0  0  0  0  0  0  0  0  0  0  0  0
  -18.8755  -44.6675   -8.0150 C   0  0  0  0  0  0  0  0  0  0  0  0
  -19.6431  -45.6166   -7.1717 C   0  0  0  0  0  0  0  0  0  0  0  0
  -20.2643  -45.2246   -5.9090 C   0  0  0  0  0  0  0  0  0  0  0  0
  -20.9393  -43.8853   -5.9164 C   0  0  0  0  0  0  0  0  0  0  0  0
  -22.2174  -43.8561   -6.7155 C   0  0  0  0  0  0  0  0  0  0  0  0
  -22.4474  -42.7499   -7.4774 O   0  0  0  0  0  0  0  0  0  0  0  0
  -21.8566  -41.5102   -7.6720 C   0  0  0  0  0  0  0  0  0  0  0  0
  -20.7243  -41.1982   -8.4130 C   0  0  0  0  0  0  0  0  0  0  0  0
  -20.3222  -39.8909   -8.4601 C   0  0  0  0  0  0  0  0  0  0  0  0
  -21.0985  -38.9418   -7.7463 C   0  0  0  0  0  0  0  0  0  0  0  0
  -22.2186  -39.2418   -7.0129 C   0  0  0  0  0  0  0  0  0  0  0  0
  -22.9979  -38.2020   -6.2837 C   0  0  0  0  0  0  0  0  0  0  0  0
  -22.5416  -40.5285   -7.0162 N   0  0  0  0  0  0  0  0  0  0  0  0
  -19.1945  -39.2202   -9.1088 C   0  0  0  0  0  0  0  0  0  0  0  0
  -19.3844  -38.0941   -9.7435 O   0  0  0  0  0  0  0  0  0  0  0  0
  -17.8089  -39.5988   -9.1787 N   0  0  0  0  0  0  0  0  0  0  0  0
  -18.0468  -43.6201   -7.6945 C   0  0  0  0  0  0  0  0  0  0  0  0
  1  2  1  0
  2  3  1  0
  2  4  1  0
  4  5  2  0
  5  6  1  0
  6  7  2  0
  7  8  1  0
  8  9  2  0
  8 10  1  0
 10 11  1  0
 10 12  1  0
 10 13  1  0
 13 14  1  0
 14 15  1  0
 15 16  1  1
 15 17  1  0
 17 18  1  6
 18 19  1  0
 19 20  1  0
 20 21  2  0
 21 22  1  0
 21 23  1  0
 23 24  1  0
 23 25  2  0
 25 26  1  0
 26 27  1  0
 27 28  1  0
 28 29  1  0
 29 30  1  0
 30 31  1  0
 31 32  1  0
 32 33  2  0
 33 34  1  0
 34 35  2  0
 35 36  1  0
 35 37  1  0
 33 38  1  0
 38 39  2  0
 38 40  1  0
 25 41  1  0
  9  4  1  0
 37 31  2  0
 40 17  1  0
 41 19  2  0
M  END
$$$$
