
     RDKit          3D

 41 44  0  0  0  0  0  0  0  0999 V2000
  -23.2243  -40.6900   -2.6132 C   0  0  0  0  0  0  0  0  0  0  0  0
  -22.9993  -39.9304   -3.8908 C   0  0  0  0  0  0  0  0  0  0  0  0
  -24.1586  -40.2502   -4.8460 C   0  0  0  0  0  0  0  0  0  0  0  0
  -21.7632  -40.4499   -4.5676 C   0  0  0  0  0  0  0  0  0  0  0  0
  -21.4960  -41.7970   -4.5223 C   0  0  0  0  0  0  0  0  0  0  0  0
  -20.3445  -42.2816   -5.1416 C   0  0  0  0  0  0  0  0  0  0  0  0
  -19.4817  -41.4166   -5.7908 C   0  0  0  0  0  0  0  0  0  0  0  0
  -19.7415  -40.0715   -5.8382 C   0  0  0  0  0  0  0  0  0  0  0  0
  -20.8871  -39.6176   -5.2196 C   0  0  0  0  0  0  0  0  0  0  0  0
  -18.8678  -39.0616   -6.5022 C   0  0  0  0  0  0  0  0  0  0  0  0
  -19.5736  -37.7271   -6.2346 C   0  0  0  0  0  0  0  0  0  0  0  0
  -18.8368  -39.3917   -7.9726 C   0  0  0  0  0  0  0  0  0  0  0  0
  -17.5431  -39.0307   -5.9553 N   0  0  0  0  0  0  0  0  0  0  0  0
  -16.7365  -40.0311   -6.6804 C   0  0  0  0  0  0  0  0  0  0  0  0
  -15.5705  -39.2628   -7.2503 C   0  0  1  0  0  0  0  0  0  0  0  0
  -14.4292  -40.0261   -6.9132 O   0  0  0  0  0  0  0  0  0  0  0  0
  -15.6233  -39.0108   -8.7306 C   0  0  2  0  0  0  0  0  0  0  0  0
  -15.8057  -37.5782   -9.1206 C   0  0  0  0  0  0  0  0  0  0  0  0
  -14.9696  -37.0765  -10.2469 C   0  0  0  0  0  0  0  0  0  0  0  0
  -15.7601  -36.8059  -11.3737 C   0  0  0  0  0  0  0  0  0  0  0  0
  -15.2650  -36.3578  -12.5745 C   0  0  0  0  0  0  0  0  0  0  0  0
  -16.2884  -36.0292  -13.9484 Cl  0  0  0  0  0  0  0  0  0  0  0  0
  -13.9088  -36.1896  -12.5961 C   0  0  0  0  0  0  0  0  0  0  0  0
  -13.3804  -35.7270  -13.8255 O   0  0  0  0  0  0  0  0  0  0  0  0
  -13.0625  -36.4496  -11.4837 C   0  0  0  0  0  0  0  0  0  0  0  0
  -11.6684  -36.1574  -11.8985 C   0  0  0  0  0  0  0  0  0  0  0  0
  -10.5261  -36.9376  -11.4290 C   0  0  0  0  0  0  0  0  0  0  0  0
  -10.7434  -38.4205  -11.3733 C   0  0  0  0  0  0  0  0  0  0  0  0
  -10.8099  -39.0738  -12.7304 C   0  0  0  0  0  0  0  0  0  0  0  0
  -11.7438  -40.0510  -12.9033 O   0  0  0  0  0  0  0  0  0  0  0  0
  -12.6509  -40.7401  -12.1120 C   0  0  0  0  0  0  0  0  0  0  0  0
  -13.8825  -40.3119  -11.6344 C   0  0  0  0  0  0  0  0  0  0  0  0
  -14.6115  -41.1740  -10.8609 C   0  0  0  0  0  0  0  0  0  0  0  0
  -14.0538  -42.4529  -10.6038 C   0  0  0  0  0  0  0  0  0  0  0  0
  -12.8384  -42.8838  -11.0725 C   0  0  0  0  0  0  0  0  0  0  0  0
  -12.3023  -44.2412  -10.7724 C   0  0  0  0  0  0  0  0  0  0  0  0
  -12.1940  -41.9910  -11.8124 N   0  0  0  0  0  0  0  0  0  0  0  0
  -15.9065  -41.0548  -10.1892 C   0  0  0  0  0  0  0  0  0  0  0  0
  -16.7647  -42.0380  -10.2507 O   0  0  0  0  0  0  0  0  0  0  0  0
  -16.4488  -39.9738   -9.4110 N   0  0  0  0  0  0  0  0  0  0  0  0
  -13.5914  -36.8948  -10.2968 C   0  0  0  0  0  0  0  0  0  0  0  0
  1  2  1  0
  2  3  1  0
  2  4  1  0
  4  5  2  0
  5  6  1  0
  6  7  2  0
  7  8  1  0
  8  9  2  0
  8 10  1  0
 10 11  1  0
 10 12  1  0
 10 13  1  0
 13 14  1  0
 14 15  1  0
 15 16  1  6
 15 17  1  0
 17 18  1  1
 18 19  1  0
 19 20  1  0
 20 21  2  0
 21 22  1  0
 21 23  1  0
 23 24  1  0
 23 25  2  0
 25 26  1  0
 26 27  1  0
 27 28  1  0
 28 29  1  0
 29 30  1  0
 30 31  1  0
 31 32  1  0
 32 33  2  0
 33 34  1  0
 34 35  2  0
 35 36  1  0
 35 37  1  0
 33 38  1  0
 38 39  2  0
 38 40  1  0
 25 41  1  0
  9  4  1  0
 37 31  2  0
 40 17  1  0
 41 19  2  0
M  END
$$$$
