
     RDKit          3D

 35 36  0  0  0  0  0  0  0  0999 V2000
  -15.3736  -37.0037  -11.3670 C   0  0  0  0  0  0  0  0  0  0  0  0
  -15.0296  -36.2114  -10.1270 C   0  0  2  0  0  0  0  0  0  0  0  0
  -13.6131  -35.8833   -9.9391 C   0  0  0  0  0  0  0  0  0  0  0  0
  -12.6315  -36.5115  -10.8774 C   0  0  0  0  0  0  0  0  0  0  0  0
  -12.5042  -35.7744  -12.2085 C   0  0  0  0  0  0  0  0  0  0  0  0
  -11.9401  -36.7034  -13.2750 C   0  0  0  0  0  0  0  0  0  0  0  0
  -12.9711  -37.3671  -14.1192 C   0  0  0  0  0  0  0  0  0  0  0  0
  -13.0529  -38.8671  -13.8525 C   0  0  0  0  0  0  0  0  0  0  0  0
  -14.4383  -39.3616  -14.0978 C   0  0  0  0  0  0  0  0  0  0  0  0
  -14.7733  -40.6679  -13.4089 C   0  0  0  0  0  0  0  0  0  0  0  0
  -15.9222  -40.4584  -12.4988 C   0  0  0  0  0  0  0  0  0  0  0  0
  -16.7587  -39.5765  -12.9439 O   0  0  0  0  0  0  0  0  0  0  0  0
  -16.2241  -41.0566  -11.2730 N   0  0  0  0  0  0  0  0  0  0  0  0
  -17.5632  -41.7133  -11.1932 C   0  0  0  0  0  0  0  0  0  0  0  0
  -15.4304  -41.1177  -10.0694 C   0  0  1  0  0  0  0  0  0  0  0  0
  -14.5493  -42.4011  -10.1293 C   0  0  0  0  0  0  0  0  0  0  0  0
  -14.5239  -39.9986   -9.8309 C   0  0  0  0  0  0  0  0  0  0  0  0
  -13.4167  -40.1485  -10.5220 O   0  0  0  0  0  0  0  0  0  0  0  0
  -14.5537  -38.8545   -9.0701 N   0  0  0  0  0  0  0  0  0  0  0  0
  -15.5034  -38.0597   -8.3987 C   0  0  1  0  0  0  0  0  0  0  0  0
  -15.8252  -36.7399   -9.0003 C   0  0  0  0  0  0  0  0  0  0  0  0
  -16.7925  -38.7605   -8.1034 C   0  0  2  0  0  0  0  0  0  0  0  0
  -17.7594  -37.8205   -7.6726 O   0  0  0  0  0  0  0  0  0  0  0  0
  -16.7304  -39.8185   -7.0485 C   0  0  0  0  0  0  0  0  0  0  0  0
  -17.8922  -40.2038   -6.3753 N   0  0  0  0  0  0  0  0  0  0  0  0
  -18.9646  -40.8426   -6.9918 C   0  0  0  0  0  0  0  0  0  0  0  0
  -18.6939  -42.2318   -7.4489 C   0  0  0  0  0  0  0  0  0  0  0  0
  -19.5369  -40.0654   -8.1805 C   0  0  0  0  0  0  0  0  0  0  0  0
  -20.1195  -40.8999   -6.0150 C   0  0  0  0  0  0  0  0  0  0  0  0
  -20.8682  -42.0508   -6.0199 C   0  0  0  0  0  0  0  0  0  0  0  0
  -21.9279  -42.1378   -5.1334 C   0  0  0  0  0  0  0  0  0  0  0  0
  -22.2234  -41.0928   -4.2670 C   0  0  0  0  0  0  0  0  0  0  0  0
  -21.4522  -39.9567   -4.2909 C   0  0  0  0  0  0  0  0  0  0  0  0
  -21.8232  -38.4983   -3.1175 Br  0  0  0  0  0  0  0  0  0  0  0  0
  -20.3959  -39.8673   -5.1730 C   0  0  0  0  0  0  0  0  0  0  0  0
  2  1  1  6
  2  3  1  0
  3  4  1  0
  4  5  1  0
  5  6  1  0
  6  7  1  0
  7  8  1  0
  8  9  1  0
  9 10  1  0
 10 11  1  0
 11 12  2  0
 11 13  1  0
 13 14  1  0
 13 15  1  0
 15 16  1  6
 15 17  1  0
 17 18  2  0
 17 19  1  0
 19 20  1  0
 20 21  1  6
 20 22  1  0
 22 23  1  1
 22 24  1  0
 24 25  1  0
 25 26  1  0
 26 27  1  0
 26 28  1  0
 26 29  1  0
 29 30  2  0
 30 31  1  0
 31 32  2  0
 32 33  1  0
 33 34  1  0
 33 35  2  0
 21  2  1  0
 35 29  1  0
M  END
$$$$
