
     RDKit          3D

 35 36  0  0  0  0  0  0  0  0999 V2000
  -19.5063  -40.5089   -5.7525 C   0  0  0  0  0  0  0  0  0  0  0  0
  -19.2728  -39.0217   -5.6212 C   0  0  2  0  0  0  0  0  0  0  0  0
  -20.3713  -38.1520   -6.0529 C   0  0  0  0  0  0  0  0  0  0  0  0
  -21.5288  -38.7990   -6.7457 C   0  0  0  0  0  0  0  0  0  0  0  0
  -22.5472  -39.4115   -5.7870 C   0  0  0  0  0  0  0  0  0  0  0  0
  -23.3737  -40.4723   -6.5014 C   0  0  0  0  0  0  0  0  0  0  0  0
  -22.8698  -41.8625   -6.3294 C   0  0  0  0  0  0  0  0  0  0  0  0
  -22.3034  -42.4325   -7.6264 C   0  0  0  0  0  0  0  0  0  0  0  0
  -21.2227  -43.4166   -7.3308 C   0  0  0  0  0  0  0  0  0  0  0  0
  -20.2644  -43.6648   -8.4768 C   0  0  0  0  0  0  0  0  0  0  0  0
  -18.8912  -43.3135   -8.0489 C   0  0  0  0  0  0  0  0  0  0  0  0
  -18.6819  -43.5520   -6.7939 O   0  0  0  0  0  0  0  0  0  0  0  0
  -17.8255  -42.7827   -8.7796 N   0  0  0  0  0  0  0  0  0  0  0  0
  -16.5617  -43.5778   -8.7387 C   0  0  0  0  0  0  0  0  0  0  0  0
  -17.7695  -41.5682   -9.5570 C   0  0  1  0  0  0  0  0  0  0  0  0
  -18.2023  -41.9012  -11.0160 C   0  0  0  0  0  0  0  0  0  0  0  0
  -18.6200  -40.4697   -9.1087 C   0  0  0  0  0  0  0  0  0  0  0  0
  -19.8515  -40.6388   -9.5337 O   0  0  0  0  0  0  0  0  0  0  0  0
  -18.4397  -39.3265   -8.3675 N   0  0  0  0  0  0  0  0  0  0  0  0
  -17.4958  -38.7905   -7.4696 C   0  0  1  0  0  0  0  0  0  0  0  0
  -17.8861  -38.7287   -6.0374 C   0  0  0  0  0  0  0  0  0  0  0  0
  -16.1411  -39.4211   -7.5534 C   0  0  2  0  0  0  0  0  0  0  0  0
  -15.2197  -38.6784   -6.7764 O   0  0  0  0  0  0  0  0  0  0  0  0
  -15.5545  -39.5216   -8.9252 C   0  0  0  0  0  0  0  0  0  0  0  0
  -14.2040  -39.2306   -9.1313 N   0  0  0  0  0  0  0  0  0  0  0  0
  -13.6541  -38.9682  -10.3831 C   0  0  0  0  0  0  0  0  0  0  0  0
  -12.1771  -38.7939  -10.3999 C   0  0  0  0  0  0  0  0  0  0  0  0
  -14.2734  -37.7534  -11.0797 C   0  0  0  0  0  0  0  0  0  0  0  0
  -13.9890  -40.1181  -11.3089 C   0  0  0  0  0  0  0  0  0  0  0  0
  -13.4866  -41.3481  -10.9628 C   0  0  0  0  0  0  0  0  0  0  0  0
  -13.7804  -42.4223  -11.7852 C   0  0  0  0  0  0  0  0  0  0  0  0
  -14.5589  -42.2593  -12.9242 C   0  0  0  0  0  0  0  0  0  0  0  0
  -15.0439  -41.0135  -13.2386 C   0  0  0  0  0  0  0  0  0  0  0  0
  -16.1174  -40.7458  -14.7933 Br  0  0  0  0  0  0  0  0  0  0  0  0
  -14.7528  -39.9415  -12.4211 C   0  0  0  0  0  0  0  0  0  0  0  0
  2  1  1  6
  2  3  1  0
  3  4  1  0
  4  5  1  0
  5  6  1  0
  6  7  1  0
  7  8  1  0
  8  9  1  0
  9 10  1  0
 10 11  1  0
 11 12  2  0
 11 13  1  0
 13 14  1  0
 13 15  1  0
 15 16  1  6
 15 17  1  0
 17 18  2  0
 17 19  1  0
 19 20  1  0
 20 21  1  1
 20 22  1  0
 22 23  1  1
 22 24  1  0
 24 25  1  0
 25 26  1  0
 26 27  1  0
 26 28  1  0
 26 29  1  0
 29 30  2  0
 30 31  1  0
 31 32  2  0
 32 33  1  0
 33 34  1  0
 33 35  2  0
 21  2  1  0
 35 29  1  0
M  END
$$$$
