
     RDKit          3D

 35 36  0  0  0  0  0  0  0  0999 V2000
  -19.4319  -40.0267   -5.7192 C   0  0  0  0  0  0  0  0  0  0  0  0
  -19.5200  -38.6022   -6.2157 C   0  0  2  0  0  0  0  0  0  0  0  0
  -20.8325  -38.1642   -6.7004 C   0  0  0  0  0  0  0  0  0  0  0  0
  -21.8994  -39.2049   -6.8314 C   0  0  0  0  0  0  0  0  0  0  0  0
  -22.6170  -39.5096   -5.5186 C   0  0  0  0  0  0  0  0  0  0  0  0
  -23.2751  -40.8814   -5.5823 C   0  0  0  0  0  0  0  0  0  0  0  0
  -22.4558  -41.9830   -5.0068 C   0  0  0  0  0  0  0  0  0  0  0  0
  -21.9568  -42.9476   -6.0785 C   0  0  0  0  0  0  0  0  0  0  0  0
  -20.6543  -43.5474   -5.6691 C   0  0  0  0  0  0  0  0  0  0  0  0
  -19.8283  -44.1020   -6.8107 C   0  0  0  0  0  0  0  0  0  0  0  0
  -18.5230  -43.4043   -6.8519 C   0  0  0  0  0  0  0  0  0  0  0  0
  -18.0986  -43.0673   -5.6763 O   0  0  0  0  0  0  0  0  0  0  0  0
  -17.7108  -43.0714   -7.9385 N   0  0  0  0  0  0  0  0  0  0  0  0
  -16.3079  -43.5797   -7.8692 C   0  0  0  0  0  0  0  0  0  0  0  0
  -18.0319  -42.2948   -9.1116 C   0  0  1  0  0  0  0  0  0  0  0  0
  -18.5723  -43.2628  -10.2061 C   0  0  0  0  0  0  0  0  0  0  0  0
  -19.0373  -41.2497   -8.9440 C   0  0  0  0  0  0  0  0  0  0  0  0
  -20.2460  -41.7614   -8.9996 O   0  0  0  0  0  0  0  0  0  0  0  0
  -19.0179  -39.8893   -8.7496 N   0  0  0  0  0  0  0  0  0  0  0  0
  -18.1050  -38.8952   -8.3464 C   0  0  1  0  0  0  0  0  0  0  0  0
  -18.3025  -38.3046   -6.9975 C   0  0  0  0  0  0  0  0  0  0  0  0
  -16.6678  -39.2939   -8.4712 C   0  0  2  0  0  0  0  0  0  0  0  0
  -15.8424  -38.2837   -7.9212 O   0  0  0  0  0  0  0  0  0  0  0  0
  -16.1773  -39.5304   -9.8638 C   0  0  0  0  0  0  0  0  0  0  0  0
  -15.1060  -38.7864  -10.3638 N   0  0  0  0  0  0  0  0  0  0  0  0
  -15.1266  -38.1363  -11.5947 C   0  0  0  0  0  0  0  0  0  0  0  0
  -16.2294  -37.1541  -11.7715 C   0  0  0  0  0  0  0  0  0  0  0  0
  -15.1599  -39.0928  -12.7899 C   0  0  0  0  0  0  0  0  0  0  0  0
  -13.8199  -37.3927  -11.7705 C   0  0  0  0  0  0  0  0  0  0  0  0
  -13.8246  -36.0607  -11.4373 C   0  0  0  0  0  0  0  0  0  0  0  0
  -12.6432  -35.3532  -11.5802 C   0  0  0  0  0  0  0  0  0  0  0  0
  -11.4904  -35.9727  -12.0462 C   0  0  0  0  0  0  0  0  0  0  0  0
  -11.5238  -37.3069  -12.3698 C   0  0  0  0  0  0  0  0  0  0  0  0
   -9.9630  -38.1966  -13.0129 Br  0  0  0  0  0  0  0  0  0  0  0  0
  -12.6994  -38.0142  -12.2285 C   0  0  0  0  0  0  0  0  0  0  0  0
  2  1  1  6
  2  3  1  0
  3  4  1  0
  4  5  1  0
  5  6  1  0
  6  7  1  0
  7  8  1  0
  8  9  1  0
  9 10  1  0
 10 11  1  0
 11 12  2  0
 11 13  1  0
 13 14  1  0
 13 15  1  0
 15 16  1  6
 15 17  1  0
 17 18  2  0
 17 19  1  0
 19 20  1  0
 20 21  1  1
 20 22  1  0
 22 23  1  6
 22 24  1  0
 24 25  1  0
 25 26  1  0
 26 27  1  0
 26 28  1  0
 26 29  1  0
 29 30  2  0
 30 31  1  0
 31 32  2  0
 32 33  1  0
 33 34  1  0
 33 35  2  0
 21  2  1  0
 35 29  1  0
M  END
$$$$
