
     RDKit          3D

 35 36  0  0  0  0  0  0  0  0999 V2000
  -19.4069  -39.5389   -6.2486 C   0  0  0  0  0  0  0  0  0  0  0  0
  -19.2958  -38.0599   -6.5381 C   0  0  2  0  0  0  0  0  0  0  0  0
  -20.4701  -37.4281   -7.1473 C   0  0  0  0  0  0  0  0  0  0  0  0
  -21.5816  -38.3262   -7.5906 C   0  0  0  0  0  0  0  0  0  0  0  0
  -22.5288  -38.7256   -6.4615 C   0  0  0  0  0  0  0  0  0  0  0  0
  -23.2764  -40.0012   -6.8255 C   0  0  0  0  0  0  0  0  0  0  0  0
  -22.6557  -41.2481   -6.3000 C   0  0  0  0  0  0  0  0  0  0  0  0
  -22.0663  -42.1093   -7.4132 C   0  0  0  0  0  0  0  0  0  0  0  0
  -20.9025  -42.8895   -6.9028 C   0  0  0  0  0  0  0  0  0  0  0  0
  -19.9469  -43.3712   -7.9742 C   0  0  0  0  0  0  0  0  0  0  0  0
  -18.6005  -42.8132   -7.7133 C   0  0  0  0  0  0  0  0  0  0  0  0
  -18.3504  -42.6801   -6.4502 O   0  0  0  0  0  0  0  0  0  0  0  0
  -17.5955  -42.4259   -8.6028 N   0  0  0  0  0  0  0  0  0  0  0  0
  -16.2694  -43.0814   -8.3961 C   0  0  0  0  0  0  0  0  0  0  0  0
  -17.6542  -41.4721   -9.6842 C   0  0  1  0  0  0  0  0  0  0  0  0
  -18.0830  -42.2259  -10.9783 C   0  0  0  0  0  0  0  0  0  0  0  0
  -18.5852  -40.3598   -9.5200 C   0  0  0  0  0  0  0  0  0  0  0  0
  -19.8057  -40.7316   -9.8335 O   0  0  0  0  0  0  0  0  0  0  0  0
  -18.4879  -39.0464   -9.1273 N   0  0  0  0  0  0  0  0  0  0  0  0
  -17.5765  -38.2141   -8.4481 C   0  0  1  0  0  0  0  0  0  0  0  0
  -17.9457  -37.7895   -7.0731 C   0  0  0  0  0  0  0  0  0  0  0  0
  -16.1757  -38.7396   -8.4098 C   0  0  2  0  0  0  0  0  0  0  0  0
  -15.4425  -38.0720   -7.3995 O   0  0  0  0  0  0  0  0  0  0  0  0
  -15.3901  -38.5890   -9.6733 C   0  0  0  0  0  0  0  0  0  0  0  0
  -13.9995  -38.7192   -9.6518 N   0  0  0  0  0  0  0  0  0  0  0  0
  -13.1565  -38.1440  -10.5988 C   0  0  0  0  0  0  0  0  0  0  0  0
  -11.7485  -38.6220  -10.5638 C   0  0  0  0  0  0  0  0  0  0  0  0
  -13.1295  -36.6141  -10.5432 C   0  0  0  0  0  0  0  0  0  0  0  0
  -13.7055  -38.4402  -11.9780 C   0  0  0  0  0  0  0  0  0  0  0  0
  -14.0751  -37.3560  -12.7349 C   0  0  0  0  0  0  0  0  0  0  0  0
  -14.5748  -37.5924  -14.0042 C   0  0  0  0  0  0  0  0  0  0  0  0
  -14.6979  -38.8862  -14.4949 C   0  0  0  0  0  0  0  0  0  0  0  0
  -14.3180  -39.9462  -13.7086 C   0  0  0  0  0  0  0  0  0  0  0  0
  -14.4700  -41.7390  -14.3442 Br  0  0  0  0  0  0  0  0  0  0  0  0
  -13.8199  -39.7136  -12.4438 C   0  0  0  0  0  0  0  0  0  0  0  0
  2  1  1  6
  2  3  1  0
  3  4  1  0
  4  5  1  0
  5  6  1  0
  6  7  1  0
  7  8  1  0
  8  9  1  0
  9 10  1  0
 10 11  1  0
 11 12  2  0
 11 13  1  0
 13 14  1  0
 13 15  1  0
 15 16  1  6
 15 17  1  0
 17 18  2  0
 17 19  1  0
 19 20  1  0
 20 21  1  1
 20 22  1  0
 22 23  1  1
 22 24  1  0
 24 25  1  0
 25 26  1  0
 26 27  1  0
 26 28  1  0
 26 29  1  0
 29 30  2  0
 30 31  1  0
 31 32  2  0
 32 33  1  0
 33 34  1  0
 33 35  2  0
 21  2  1  0
 35 29  1  0
M  END
$$$$
