
     RDKit          3D

 35 36  0  0  0  0  0  0  0  0999 V2000
  -18.8072  -40.3432   -7.2577 C   0  0  0  0  0  0  0  0  0  0  0  0
  -18.7795  -39.0155   -6.5366 C   0  0  2  0  0  0  0  0  0  0  0  0
  -20.0522  -38.2915   -6.4615 C   0  0  0  0  0  0  0  0  0  0  0  0
  -21.1998  -38.8345   -7.2530 C   0  0  0  0  0  0  0  0  0  0  0  0
  -21.9400  -39.9707   -6.5511 C   0  0  0  0  0  0  0  0  0  0  0  0
  -22.7070  -40.8078   -7.5658 C   0  0  0  0  0  0  0  0  0  0  0  0
  -21.9796  -42.0173   -8.0395 C   0  0  0  0  0  0  0  0  0  0  0  0
  -21.5602  -41.8990   -9.5018 C   0  0  0  0  0  0  0  0  0  0  0  0
  -20.3106  -42.6754   -9.7461 C   0  0  0  0  0  0  0  0  0  0  0  0
  -19.5320  -42.2482  -10.9727 C   0  0  0  0  0  0  0  0  0  0  0  0
  -18.1745  -41.8210  -10.5641 C   0  0  0  0  0  0  0  0  0  0  0  0
  -17.7245  -42.4876   -9.5498 O   0  0  0  0  0  0  0  0  0  0  0  0
  -17.3378  -40.8385  -11.0988 N   0  0  0  0  0  0  0  0  0  0  0  0
  -15.9808  -41.3074  -11.5106 C   0  0  0  0  0  0  0  0  0  0  0  0
  -17.5948  -39.4323  -11.2966 C   0  0  1  0  0  0  0  0  0  0  0  0
  -18.2116  -39.2428  -12.7146 C   0  0  0  0  0  0  0  0  0  0  0  0
  -18.5123  -38.8003  -10.3534 C   0  0  0  0  0  0  0  0  0  0  0  0
  -19.7585  -39.0364  -10.6958 O   0  0  0  0  0  0  0  0  0  0  0  0
  -18.3829  -38.0324   -9.2209 N   0  0  0  0  0  0  0  0  0  0  0  0
  -17.3925  -37.7136   -8.2712 C   0  0  1  0  0  0  0  0  0  0  0  0
  -17.5418  -38.3042   -6.9162 C   0  0  0  0  0  0  0  0  0  0  0  0
  -15.9923  -37.9673   -8.7350 C   0  0  2  0  0  0  0  0  0  0  0  0
  -15.9826  -38.1701  -10.1360 O   0  0  0  0  0  0  0  0  0  0  0  0
  -15.3120  -39.1537   -8.1302 C   0  0  0  0  0  0  0  0  0  0  0  0
  -15.5596  -40.4332   -8.6328 N   0  0  0  0  0  0  0  0  0  0  0  0
  -14.6693  -41.1272   -9.4477 C   0  0  0  0  0  0  0  0  0  0  0  0
  -13.8857  -40.2831  -10.3889 C   0  0  0  0  0  0  0  0  0  0  0  0
  -15.3297  -42.2423  -10.2630 C   0  0  0  0  0  0  0  0  0  0  0  0
  -13.6838  -41.8658   -8.5676 C   0  0  0  0  0  0  0  0  0  0  0  0
  -12.3640  -41.8031   -8.9410 C   0  0  0  0  0  0  0  0  0  0  0  0
  -11.4360  -42.4627   -8.1532 C   0  0  0  0  0  0  0  0  0  0  0  0
  -11.8294  -43.1653   -7.0212 C   0  0  0  0  0  0  0  0  0  0  0  0
  -13.1588  -43.2060   -6.6791 C   0  0  0  0  0  0  0  0  0  0  0  0
  -13.7416  -44.1592   -5.1321 Br  0  0  0  0  0  0  0  0  0  0  0  0
  -14.0854  -42.5499   -7.4620 C   0  0  0  0  0  0  0  0  0  0  0  0
  2  1  1  6
  2  3  1  0
  3  4  1  0
  4  5  1  0
  5  6  1  0
  6  7  1  0
  7  8  1  0
  8  9  1  0
  9 10  1  0
 10 11  1  0
 11 12  2  0
 11 13  1  0
 13 14  1  0
 13 15  1  0
 15 16  1  6
 15 17  1  0
 17 18  2  0
 17 19  1  0
 19 20  1  0
 20 21  1  1
 20 22  1  0
 22 23  1  6
 22 24  1  0
 24 25  1  0
 25 26  1  0
 26 27  1  0
 26 28  1  0
 26 29  1  0
 29 30  2  0
 30 31  1  0
 31 32  2  0
 32 33  1  0
 33 34  1  0
 33 35  2  0
 21  2  1  0
 35 29  1  0
M  END
$$$$
