
     RDKit          3D

 35 36  0  0  0  0  0  0  0  0999 V2000
  -15.4064  -37.8673  -10.8262 C   0  0  0  0  0  0  0  0  0  0  0  0
  -14.7702  -36.7797   -9.9921 C   0  0  2  0  0  0  0  0  0  0  0  0
  -13.3309  -36.5748  -10.1819 C   0  0  0  0  0  0  0  0  0  0  0  0
  -12.6012  -37.5675  -11.0306 C   0  0  0  0  0  0  0  0  0  0  0  0
  -12.7183  -37.2913  -12.5277 C   0  0  0  0  0  0  0  0  0  0  0  0
  -12.4384  -38.5597  -13.3224 C   0  0  0  0  0  0  0  0  0  0  0  0
  -13.6560  -39.3262  -13.7048 C   0  0  0  0  0  0  0  0  0  0  0  0
  -13.7564  -40.6536  -12.9592 C   0  0  0  0  0  0  0  0  0  0  0  0
  -15.1858  -41.0368  -12.7749 C   0  0  0  0  0  0  0  0  0  0  0  0
  -15.4350  -42.0232  -11.6532 C   0  0  0  0  0  0  0  0  0  0  0  0
  -16.3554  -41.4156  -10.6653 C   0  0  0  0  0  0  0  0  0  0  0  0
  -17.2206  -40.6216  -11.2099 O   0  0  0  0  0  0  0  0  0  0  0  0
  -16.4237  -41.5726   -9.2789 N   0  0  0  0  0  0  0  0  0  0  0  0
  -17.7481  -42.0154   -8.7488 C   0  0  0  0  0  0  0  0  0  0  0  0
  -15.3995  -41.3544   -8.2860 C   0  0  1  0  0  0  0  0  0  0  0  0
  -14.6171  -42.6872   -8.0895 C   0  0  0  0  0  0  0  0  0  0  0  0
  -14.4074  -40.3278   -8.5903 C   0  0  0  0  0  0  0  0  0  0  0  0
  -13.4788  -40.8074   -9.3863 O   0  0  0  0  0  0  0  0  0  0  0  0
  -14.2186  -39.0107   -8.2463 N   0  0  0  0  0  0  0  0  0  0  0  0
  -14.9647  -37.9454   -7.7050 C   0  0  1  0  0  0  0  0  0  0  0  0
  -15.3378  -36.8443   -8.6299 C   0  0  0  0  0  0  0  0  0  0  0  0
  -16.1972  -38.3699   -6.9696 C   0  0  2  0  0  0  0  0  0  0  0  0
  -15.8346  -39.0443   -5.7789 O   0  0  0  0  0  0  0  0  0  0  0  0
  -17.1146  -39.2870   -7.7136 C   0  0  0  0  0  0  0  0  0  0  0  0
  -18.3293  -38.8090   -8.2106 N   0  0  0  0  0  0  0  0  0  0  0  0
  -19.5686  -39.3328   -7.8526 C   0  0  0  0  0  0  0  0  0  0  0  0
  -20.1876  -38.7218   -6.6461 C   0  0  0  0  0  0  0  0  0  0  0  0
  -19.5544  -40.8504   -7.6497 C   0  0  0  0  0  0  0  0  0  0  0  0
  -20.5278  -39.1372   -9.0071 C   0  0  0  0  0  0  0  0  0  0  0  0
  -20.2375  -38.1154   -9.8771 C   0  0  0  0  0  0  0  0  0  0  0  0
  -21.0917  -37.9142  -10.9479 C   0  0  0  0  0  0  0  0  0  0  0  0
  -22.2068  -38.7214  -11.1348 C   0  0  0  0  0  0  0  0  0  0  0  0
  -22.4653  -39.7338  -10.2435 C   0  0  0  0  0  0  0  0  0  0  0  0
  -23.9856  -40.8658  -10.4636 Br  0  0  0  0  0  0  0  0  0  0  0  0
  -21.6161  -39.9365   -9.1759 C   0  0  0  0  0  0  0  0  0  0  0  0
  2  1  1  1
  2  3  1  0
  3  4  1  0
  4  5  1  0
  5  6  1  0
  6  7  1  0
  7  8  1  0
  8  9  1  0
  9 10  1  0
 10 11  1  0
 11 12  2  0
 11 13  1  0
 13 14  1  0
 13 15  1  0
 15 16  1  6
 15 17  1  0
 17 18  2  0
 17 19  1  0
 19 20  1  0
 20 21  1  6
 20 22  1  0
 22 23  1  1
 22 24  1  0
 24 25  1  0
 25 26  1  0
 26 27  1  0
 26 28  1  0
 26 29  1  0
 29 30  2  0
 30 31  1  0
 31 32  2  0
 32 33  1  0
 33 34  1  0
 33 35  2  0
 21  2  1  0
 35 29  1  0
M  END
$$$$
