
     RDKit          3D

 35 36  0  0  0  0  0  0  0  0999 V2000
  -19.5904  -39.7938   -5.8936 C   0  0  0  0  0  0  0  0  0  0  0  0
  -19.5356  -38.3286   -6.2593 C   0  0  2  0  0  0  0  0  0  0  0  0
  -20.8019  -37.7149   -6.6707 C   0  0  0  0  0  0  0  0  0  0  0  0
  -21.9743  -38.6233   -6.8673 C   0  0  0  0  0  0  0  0  0  0  0  0
  -22.7000  -38.9703   -5.5695 C   0  0  0  0  0  0  0  0  0  0  0  0
  -23.4997  -40.2550   -5.7386 C   0  0  0  0  0  0  0  0  0  0  0  0
  -22.7923  -41.4833   -5.2836 C   0  0  0  0  0  0  0  0  0  0  0  0
  -22.4140  -42.3929   -6.4488 C   0  0  0  0  0  0  0  0  0  0  0  0
  -21.1758  -43.1590   -6.1264 C   0  0  0  0  0  0  0  0  0  0  0  0
  -20.4302  -43.6899   -7.3328 C   0  0  0  0  0  0  0  0  0  0  0  0
  -19.0595  -43.1303   -7.3439 C   0  0  0  0  0  0  0  0  0  0  0  0
  -18.5842  -42.9473   -6.1538 O   0  0  0  0  0  0  0  0  0  0  0  0
  -18.2333  -42.7859   -8.4164 N   0  0  0  0  0  0  0  0  0  0  0  0
  -16.8909  -43.4408   -8.4270 C   0  0  0  0  0  0  0  0  0  0  0  0
  -18.4887  -41.8767   -9.5075 C   0  0  1  0  0  0  0  0  0  0  0  0
  -19.1446  -42.6800  -10.6701 C   0  0  0  0  0  0  0  0  0  0  0  0
  -19.3758  -40.7528   -9.2231 C   0  0  0  0  0  0  0  0  0  0  0  0
  -20.6324  -41.1294   -9.2942 O   0  0  0  0  0  0  0  0  0  0  0  0
  -19.2104  -39.4250   -8.9091 N   0  0  0  0  0  0  0  0  0  0  0  0
  -18.1918  -38.5715   -8.4417 C   0  0  1  0  0  0  0  0  0  0  0  0
  -18.3056  -38.0888   -7.0413 C   0  0  0  0  0  0  0  0  0  0  0  0
  -16.8066  -39.1038   -8.6368 C   0  0  2  0  0  0  0  0  0  0  0  0
  -15.8754  -38.2646   -7.9789 O   0  0  0  0  0  0  0  0  0  0  0  0
  -16.3473  -39.2165  -10.0554 C   0  0  0  0  0  0  0  0  0  0  0  0
  -14.9913  -39.0850  -10.3639 N   0  0  0  0  0  0  0  0  0  0  0  0
  -14.4865  -39.1416  -11.6601 C   0  0  0  0  0  0  0  0  0  0  0  0
  -15.3984  -38.6257  -12.7158 C   0  0  0  0  0  0  0  0  0  0  0  0
  -14.0361  -40.5437  -12.0793 C   0  0  0  0  0  0  0  0  0  0  0  0
  -13.2123  -38.3264  -11.7186 C   0  0  0  0  0  0  0  0  0  0  0  0
  -12.9605  -37.6690  -12.8975 C   0  0  0  0  0  0  0  0  0  0  0  0
  -11.8064  -36.9089  -12.9813 C   0  0  0  0  0  0  0  0  0  0  0  0
  -10.9318  -36.8154  -11.9061 C   0  0  0  0  0  0  0  0  0  0  0  0
  -11.2168  -37.4874  -10.7428 C   0  0  0  0  0  0  0  0  0  0  0  0
  -10.0427  -37.3855   -9.2419 Br  0  0  0  0  0  0  0  0  0  0  0  0
  -12.3658  -38.2453  -10.6564 C   0  0  0  0  0  0  0  0  0  0  0  0
  2  1  1  6
  2  3  1  0
  3  4  1  0
  4  5  1  0
  5  6  1  0
  6  7  1  0
  7  8  1  0
  8  9  1  0
  9 10  1  0
 10 11  1  0
 11 12  2  0
 11 13  1  0
 13 14  1  0
 13 15  1  0
 15 16  1  6
 15 17  1  0
 17 18  2  0
 17 19  1  0
 19 20  1  0
 20 21  1  1
 20 22  1  0
 22 23  1  1
 22 24  1  0
 24 25  1  0
 25 26  1  0
 26 27  1  0
 26 28  1  0
 26 29  1  0
 29 30  2  0
 30 31  1  0
 31 32  2  0
 32 33  1  0
 33 34  1  0
 33 35  2  0
 21  2  1  0
 35 29  1  0
M  END
$$$$
