
     RDKit          3D

 35 36  0  0  0  0  0  0  0  0999 V2000
  -19.4899  -39.8266   -6.4079 C   0  0  0  0  0  0  0  0  0  0  0  0
  -19.0680  -38.4099   -6.7216 C   0  0  2  0  0  0  0  0  0  0  0  0
  -19.9739  -37.6378   -7.5775 C   0  0  0  0  0  0  0  0  0  0  0  0
  -21.1187  -38.3697   -8.2037 C   0  0  0  0  0  0  0  0  0  0  0  0
  -22.3207  -38.5282   -7.2756 C   0  0  0  0  0  0  0  0  0  0  0  0
  -23.1955  -39.6859   -7.7373 C   0  0  0  0  0  0  0  0  0  0  0  0
  -22.9157  -40.9781   -7.0532 C   0  0  0  0  0  0  0  0  0  0  0  0
  -22.2827  -42.0000   -7.9929 C   0  0  0  0  0  0  0  0  0  0  0  0
  -21.3939  -42.9233   -7.2305 C   0  0  0  0  0  0  0  0  0  0  0  0
  -20.3489  -43.6291   -8.0691 C   0  0  0  0  0  0  0  0  0  0  0  0
  -19.0017  -43.2831   -7.5617 C   0  0  0  0  0  0  0  0  0  0  0  0
  -18.9804  -43.1051   -6.2797 O   0  0  0  0  0  0  0  0  0  0  0  0
  -17.7921  -43.1292   -8.2433 N   0  0  0  0  0  0  0  0  0  0  0  0
  -16.6662  -43.9778   -7.7498 C   0  0  0  0  0  0  0  0  0  0  0  0
  -17.4734  -42.2566   -9.3475 C   0  0  1  0  0  0  0  0  0  0  0  0
  -17.7698  -43.0182  -10.6739 C   0  0  0  0  0  0  0  0  0  0  0  0
  -18.2094  -40.9977   -9.4145 C   0  0  0  0  0  0  0  0  0  0  0  0
  -19.3923  -41.1849   -9.9545 O   0  0  0  0  0  0  0  0  0  0  0  0
  -17.9614  -39.6940   -9.0574 N   0  0  0  0  0  0  0  0  0  0  0  0
  -17.0667  -38.9775   -8.2383 C   0  0  1  0  0  0  0  0  0  0  0  0
  -17.6141  -38.4031   -6.9823 C   0  0  0  0  0  0  0  0  0  0  0  0
  -15.8135  -39.7221   -7.8993 C   0  0  2  0  0  0  0  0  0  0  0  0
  -15.3496  -39.3204   -6.6235 O   0  0  0  0  0  0  0  0  0  0  0  0
  -14.6700  -39.5347   -8.8445 C   0  0  0  0  0  0  0  0  0  0  0  0
  -14.3935  -38.2684   -9.3652 N   0  0  0  0  0  0  0  0  0  0  0  0
  -13.4851  -38.0397  -10.3950 C   0  0  0  0  0  0  0  0  0  0  0  0
  -12.3060  -38.9462  -10.4096 C   0  0  0  0  0  0  0  0  0  0  0  0
  -12.9652  -36.6002  -10.4423 C   0  0  0  0  0  0  0  0  0  0  0  0
  -14.2028  -38.2022  -11.7178 C   0  0  0  0  0  0  0  0  0  0  0  0
  -14.4173  -37.0558  -12.4422 C   0  0  0  0  0  0  0  0  0  0  0  0
  -15.0653  -37.1710  -13.6601 C   0  0  0  0  0  0  0  0  0  0  0  0
  -15.4849  -38.4081  -14.1329 C   0  0  0  0  0  0  0  0  0  0  0  0
  -15.2531  -39.5332  -13.3802 C   0  0  0  0  0  0  0  0  0  0  0  0
  -15.8124  -41.2517  -13.9927 Br  0  0  0  0  0  0  0  0  0  0  0  0
  -14.6077  -39.4214  -12.1666 C   0  0  0  0  0  0  0  0  0  0  0  0
  2  1  1  6
  2  3  1  0
  3  4  1  0
  4  5  1  0
  5  6  1  0
  6  7  1  0
  7  8  1  0
  8  9  1  0
  9 10  1  0
 10 11  1  0
 11 12  2  0
 11 13  1  0
 13 14  1  0
 13 15  1  0
 15 16  1  6
 15 17  1  0
 17 18  2  0
 17 19  1  0
 19 20  1  0
 20 21  1  1
 20 22  1  0
 22 23  1  1
 22 24  1  0
 24 25  1  0
 25 26  1  0
 26 27  1  0
 26 28  1  0
 26 29  1  0
 29 30  2  0
 30 31  1  0
 31 32  2  0
 32 33  1  0
 33 34  1  0
 33 35  2  0
 21  2  1  0
 35 29  1  0
M  END
$$$$
