
     RDKit          3D

 35 36  0  0  0  0  0  0  0  0999 V2000
  -19.4718  -40.4637   -5.4487 C   0  0  0  0  0  0  0  0  0  0  0  0
  -19.1268  -38.9939   -5.5115 C   0  0  2  0  0  0  0  0  0  0  0  0
  -20.1895  -38.0974   -5.9766 C   0  0  0  0  0  0  0  0  0  0  0  0
  -21.4348  -38.7284   -6.5146 C   0  0  0  0  0  0  0  0  0  0  0  0
  -22.4239  -39.1456   -5.4287 C   0  0  0  0  0  0  0  0  0  0  0  0
  -23.3702  -40.2145   -5.9585 C   0  0  0  0  0  0  0  0  0  0  0  0
  -22.9536  -41.6104   -5.6518 C   0  0  0  0  0  0  0  0  0  0  0  0
  -22.5202  -42.3683   -6.9031 C   0  0  0  0  0  0  0  0  0  0  0  0
  -21.4926  -43.3924   -6.5580 C   0  0  0  0  0  0  0  0  0  0  0  0
  -20.6364  -43.8446   -7.7224 C   0  0  0  0  0  0  0  0  0  0  0  0
  -19.2155  -43.5536   -7.4245 C   0  0  0  0  0  0  0  0  0  0  0  0
  -18.9362  -43.6612   -6.1652 O   0  0  0  0  0  0  0  0  0  0  0  0
  -18.1692  -43.1947   -8.2776 N   0  0  0  0  0  0  0  0  0  0  0  0
  -16.9641  -44.0752   -8.2188 C   0  0  0  0  0  0  0  0  0  0  0  0
  -18.0832  -42.0860   -9.1973 C   0  0  1  0  0  0  0  0  0  0  0  0
  -18.6390  -42.5506  -10.5765 C   0  0  0  0  0  0  0  0  0  0  0  0
  -18.8217  -40.8806   -8.8331 C   0  0  0  0  0  0  0  0  0  0  0  0
  -20.0887  -41.0018   -9.1585 O   0  0  0  0  0  0  0  0  0  0  0  0
  -18.5109  -39.6770   -8.2471 N   0  0  0  0  0  0  0  0  0  0  0  0
  -17.4715  -39.1156   -7.4796 C   0  0  1  0  0  0  0  0  0  0  0  0
  -17.7555  -38.8590   -6.0440 C   0  0  0  0  0  0  0  0  0  0  0  0
  -16.1732  -39.8546   -7.5697 C   0  0  2  0  0  0  0  0  0  0  0  0
  -15.2737  -39.3607   -6.5944 O   0  0  0  0  0  0  0  0  0  0  0  0
  -15.4645  -39.7660   -8.8834 C   0  0  0  0  0  0  0  0  0  0  0  0
  -14.0772  -39.9189   -8.9413 N   0  0  0  0  0  0  0  0  0  0  0  0
  -13.3252  -39.7040  -10.0931 C   0  0  0  0  0  0  0  0  0  0  0  0
  -11.8585  -39.5862   -9.8765 C   0  0  0  0  0  0  0  0  0  0  0  0
  -13.7760  -38.4816  -10.8974 C   0  0  0  0  0  0  0  0  0  0  0  0
  -13.5554  -40.8597  -11.0433 C   0  0  0  0  0  0  0  0  0  0  0  0
  -13.8071  -40.5337  -12.3531 C   0  0  0  0  0  0  0  0  0  0  0  0
  -14.0152  -41.5681  -13.2494 C   0  0  0  0  0  0  0  0  0  0  0  0
  -13.9707  -42.8933  -12.8351 C   0  0  0  0  0  0  0  0  0  0  0  0
  -13.7164  -43.1810  -11.5165 C   0  0  0  0  0  0  0  0  0  0  0  0
  -13.6460  -44.9874  -10.9058 Br  0  0  0  0  0  0  0  0  0  0  0  0
  -13.5086  -42.1525  -10.6215 C   0  0  0  0  0  0  0  0  0  0  0  0
  2  1  1  6
  2  3  1  0
  3  4  1  0
  4  5  1  0
  5  6  1  0
  6  7  1  0
  7  8  1  0
  8  9  1  0
  9 10  1  0
 10 11  1  0
 11 12  2  0
 11 13  1  0
 13 14  1  0
 13 15  1  0
 15 16  1  6
 15 17  1  0
 17 18  2  0
 17 19  1  0
 19 20  1  0
 20 21  1  1
 20 22  1  0
 22 23  1  1
 22 24  1  0
 24 25  1  0
 25 26  1  0
 26 27  1  0
 26 28  1  0
 26 29  1  0
 29 30  2  0
 30 31  1  0
 31 32  2  0
 32 33  1  0
 33 34  1  0
 33 35  2  0
 21  2  1  0
 35 29  1  0
M  END
$$$$
