
     RDKit          3D

 35 36  0  0  0  0  0  0  0  0999 V2000
  -19.2843  -39.2271   -6.4559 C   0  0  0  0  0  0  0  0  0  0  0  0
  -18.8771  -37.9572   -7.1665 C   0  0  2  0  0  0  0  0  0  0  0  0
  -19.8944  -37.3373   -8.0210 C   0  0  0  0  0  0  0  0  0  0  0  0
  -21.1570  -38.1051   -8.2545 C   0  0  0  0  0  0  0  0  0  0  0  0
  -22.1786  -37.9536   -7.1298 C   0  0  0  0  0  0  0  0  0  0  0  0
  -23.1609  -39.1170   -7.1482 C   0  0  0  0  0  0  0  0  0  0  0  0
  -22.8077  -40.2337   -6.2293 C   0  0  0  0  0  0  0  0  0  0  0  0
  -22.3881  -41.4899   -6.9871 C   0  0  0  0  0  0  0  0  0  0  0  0
  -21.4095  -42.2768   -6.1828 C   0  0  0  0  0  0  0  0  0  0  0  0
  -20.5559  -43.2341   -6.9880 C   0  0  0  0  0  0  0  0  0  0  0  0
  -19.1287  -42.8834   -6.8088 C   0  0  0  0  0  0  0  0  0  0  0  0
  -18.8726  -42.4164   -5.6290 O   0  0  0  0  0  0  0  0  0  0  0  0
  -18.0558  -42.9830   -7.6978 N   0  0  0  0  0  0  0  0  0  0  0  0
  -16.8896  -43.7774   -7.2080 C   0  0  0  0  0  0  0  0  0  0  0  0
  -17.9099  -42.4156   -9.0166 C   0  0  1  0  0  0  0  0  0  0  0  0
  -18.4643  -43.4381  -10.0529 C   0  0  0  0  0  0  0  0  0  0  0  0
  -18.6025  -41.1542   -9.2617 C   0  0  0  0  0  0  0  0  0  0  0  0
  -19.8686  -41.3708   -9.5375 O   0  0  0  0  0  0  0  0  0  0  0  0
  -18.2502  -39.8258   -9.2747 N   0  0  0  0  0  0  0  0  0  0  0  0
  -17.1997  -39.0094   -8.8117 C   0  0  1  0  0  0  0  0  0  0  0  0
  -17.4938  -38.1208   -7.6580 C   0  0  0  0  0  0  0  0  0  0  0  0
  -15.9322  -39.7483   -8.5156 C   0  0  2  0  0  0  0  0  0  0  0  0
  -15.7341  -39.8149   -7.1155 O   0  0  0  0  0  0  0  0  0  0  0  0
  -14.6855  -39.1576   -9.0925 C   0  0  0  0  0  0  0  0  0  0  0  0
  -14.0756  -39.7546  -10.1984 N   0  0  0  0  0  0  0  0  0  0  0  0
  -12.8893  -39.2967  -10.7652 C   0  0  0  0  0  0  0  0  0  0  0  0
  -11.7370  -40.2310  -10.6585 C   0  0  0  0  0  0  0  0  0  0  0  0
  -12.4378  -37.9380  -10.2226 C   0  0  0  0  0  0  0  0  0  0  0  0
  -13.1274  -39.0310  -12.2363 C   0  0  0  0  0  0  0  0  0  0  0  0
  -13.1397  -40.1281  -13.0617 C   0  0  0  0  0  0  0  0  0  0  0  0
  -13.3617  -39.9199  -14.4123 C   0  0  0  0  0  0  0  0  0  0  0  0
  -13.5654  -38.6409  -14.9148 C   0  0  0  0  0  0  0  0  0  0  0  0
  -13.5460  -37.5673  -14.0585 C   0  0  0  0  0  0  0  0  0  0  0  0
  -13.8217  -35.7941  -14.7072 Br  0  0  0  0  0  0  0  0  0  0  0  0
  -13.3250  -37.7718  -12.7127 C   0  0  0  0  0  0  0  0  0  0  0  0
  2  1  1  6
  2  3  1  0
  3  4  1  0
  4  5  1  0
  5  6  1  0
  6  7  1  0
  7  8  1  0
  8  9  1  0
  9 10  1  0
 10 11  1  0
 11 12  2  0
 11 13  1  0
 13 14  1  0
 13 15  1  0
 15 16  1  6
 15 17  1  0
 17 18  2  0
 17 19  1  0
 19 20  1  0
 20 21  1  1
 20 22  1  0
 22 23  1  1
 22 24  1  0
 24 25  1  0
 25 26  1  0
 26 27  1  0
 26 28  1  0
 26 29  1  0
 29 30  2  0
 30 31  1  0
 31 32  2  0
 32 33  1  0
 33 34  1  0
 33 35  2  0
 21  2  1  0
 35 29  1  0
M  END
$$$$
