
     RDKit          3D

 35 36  0  0  0  0  0  0  0  0999 V2000
  -19.6743  -40.0519   -6.0049 C   0  0  0  0  0  0  0  0  0  0  0  0
  -19.3077  -38.6423   -6.4074 C   0  0  2  0  0  0  0  0  0  0  0  0
  -20.3402  -37.8811   -7.1173 C   0  0  0  0  0  0  0  0  0  0  0  0
  -21.5727  -38.6189   -7.5357 C   0  0  0  0  0  0  0  0  0  0  0  0
  -22.6074  -38.7571   -6.4213 C   0  0  0  0  0  0  0  0  0  0  0  0
  -23.5471  -39.9189   -6.7141 C   0  0  0  0  0  0  0  0  0  0  0  0
  -23.1608  -41.2006   -6.0627 C   0  0  0  0  0  0  0  0  0  0  0  0
  -22.6909  -42.2405   -7.0755 C   0  0  0  0  0  0  0  0  0  0  0  0
  -21.6906  -43.1544   -6.4526 C   0  0  0  0  0  0  0  0  0  0  0  0
  -20.7973  -43.8782   -7.4382 C   0  0  0  0  0  0  0  0  0  0  0  0
  -19.3849  -43.5291   -7.1634 C   0  0  0  0  0  0  0  0  0  0  0  0
  -19.1546  -43.3298   -5.9053 O   0  0  0  0  0  0  0  0  0  0  0  0
  -18.3026  -43.3914   -8.0357 N   0  0  0  0  0  0  0  0  0  0  0  0
  -17.1123  -44.2360   -7.7180 C   0  0  0  0  0  0  0  0  0  0  0  0
  -18.1674  -42.5386   -9.1919 C   0  0  1  0  0  0  0  0  0  0  0  0
  -18.6771  -43.3211  -10.4389 C   0  0  0  0  0  0  0  0  0  0  0  0
  -18.9030  -41.2782   -9.1596 C   0  0  0  0  0  0  0  0  0  0  0  0
  -20.1584  -41.4697   -9.4961 O   0  0  0  0  0  0  0  0  0  0  0  0
  -18.5985  -39.9696   -8.8701 N   0  0  0  0  0  0  0  0  0  0  0  0
  -17.5814  -39.2430   -8.2204 C   0  0  1  0  0  0  0  0  0  0  0  0
  -17.9158  -38.6455   -6.9019 C   0  0  0  0  0  0  0  0  0  0  0  0
  -16.2905  -39.9868   -8.0776 C   0  0  2  0  0  0  0  0  0  0  0  0
  -15.5007  -39.3835   -7.0694 O   0  0  0  0  0  0  0  0  0  0  0  0
  -15.4372  -40.0493   -9.3039 C   0  0  0  0  0  0  0  0  0  0  0  0
  -14.0457  -40.0834   -9.1866 N   0  0  0  0  0  0  0  0  0  0  0  0
  -13.1783  -40.0142  -10.2734 C   0  0  0  0  0  0  0  0  0  0  0  0
  -13.2106  -41.1908  -11.1827 C   0  0  0  0  0  0  0  0  0  0  0  0
  -11.7193  -39.7738   -9.8759 C   0  0  0  0  0  0  0  0  0  0  0  0
  -13.5292  -38.7921  -11.0949 C   0  0  0  0  0  0  0  0  0  0  0  0
  -14.3781  -38.9913  -12.1555 C   0  0  0  0  0  0  0  0  0  0  0  0
  -14.7243  -37.8924  -12.9231 C   0  0  0  0  0  0  0  0  0  0  0  0
  -14.2276  -36.6289  -12.6284 C   0  0  0  0  0  0  0  0  0  0  0  0
  -13.3804  -36.4683  -11.5594 C   0  0  0  0  0  0  0  0  0  0  0  0
  -12.6760  -34.7502  -11.1196 Br  0  0  0  0  0  0  0  0  0  0  0  0
  -13.0339  -37.5612  -10.7930 C   0  0  0  0  0  0  0  0  0  0  0  0
  2  1  1  6
  2  3  1  0
  3  4  1  0
  4  5  1  0
  5  6  1  0
  6  7  1  0
  7  8  1  0
  8  9  1  0
  9 10  1  0
 10 11  1  0
 11 12  2  0
 11 13  1  0
 13 14  1  0
 13 15  1  0
 15 16  1  6
 15 17  1  0
 17 18  2  0
 17 19  1  0
 19 20  1  0
 20 21  1  1
 20 22  1  0
 22 23  1  1
 22 24  1  0
 24 25  1  0
 25 26  1  0
 26 27  1  0
 26 28  1  0
 26 29  1  0
 29 30  2  0
 30 31  1  0
 31 32  2  0
 32 33  1  0
 33 34  1  0
 33 35  2  0
 21  2  1  0
 35 29  1  0
M  END
$$$$
