
     RDKit          3D

 35 36  0  0  0  0  0  0  0  0999 V2000
  -18.8113  -39.0937   -6.1251 C   0  0  0  0  0  0  0  0  0  0  0  0
  -18.4282  -37.8625   -6.9130 C   0  0  2  0  0  0  0  0  0  0  0  0
  -19.4818  -37.2690   -7.7419 C   0  0  0  0  0  0  0  0  0  0  0  0
  -20.7627  -38.0305   -7.8751 C   0  0  0  0  0  0  0  0  0  0  0  0
  -21.7232  -37.8153   -6.7078 C   0  0  0  0  0  0  0  0  0  0  0  0
  -22.7172  -38.9657   -6.6226 C   0  0  0  0  0  0  0  0  0  0  0  0
  -22.3285  -40.0442   -5.6728 C   0  0  0  0  0  0  0  0  0  0  0  0
  -21.9618  -41.3385   -6.3927 C   0  0  0  0  0  0  0  0  0  0  0  0
  -20.9511  -42.1007   -5.6043 C   0  0  0  0  0  0  0  0  0  0  0  0
  -20.1503  -43.1042   -6.4073 C   0  0  0  0  0  0  0  0  0  0  0  0
  -18.7121  -42.7639   -6.3176 C   0  0  0  0  0  0  0  0  0  0  0  0
  -18.3906  -42.2473   -5.1751 O   0  0  0  0  0  0  0  0  0  0  0  0
  -17.6877  -42.9173   -7.2548 N   0  0  0  0  0  0  0  0  0  0  0  0
  -16.5060  -43.7035   -6.7893 C   0  0  0  0  0  0  0  0  0  0  0  0
  -17.6042  -42.4119   -8.6039 C   0  0  1  0  0  0  0  0  0  0  0  0
  -18.2220  -43.4731   -9.5626 C   0  0  0  0  0  0  0  0  0  0  0  0
  -18.2954  -41.1542   -8.8708 C   0  0  0  0  0  0  0  0  0  0  0  0
  -19.5762  -41.3670   -9.0713 O   0  0  0  0  0  0  0  0  0  0  0  0
  -17.9305  -39.8324   -8.9627 N   0  0  0  0  0  0  0  0  0  0  0  0
  -16.8490  -39.0094   -8.5919 C   0  0  1  0  0  0  0  0  0  0  0  0
  -17.0739  -38.0658   -7.4666 C   0  0  0  0  0  0  0  0  0  0  0  0
  -15.5757  -39.7502   -8.3274 C   0  0  2  0  0  0  0  0  0  0  0  0
  -15.5609  -40.2119   -6.9893 O   0  0  0  0  0  0  0  0  0  0  0  0
  -14.3162  -38.9673   -8.5197 C   0  0  0  0  0  0  0  0  0  0  0  0
  -14.0268  -38.4028   -9.7642 N   0  0  0  0  0  0  0  0  0  0  0  0
  -12.7426  -38.3262  -10.2962 C   0  0  0  0  0  0  0  0  0  0  0  0
  -11.8916  -39.5243  -10.0666 C   0  0  0  0  0  0  0  0  0  0  0  0
  -11.9572  -37.1004   -9.8219 C   0  0  0  0  0  0  0  0  0  0  0  0
  -12.8505  -38.1224  -11.7923 C   0  0  0  0  0  0  0  0  0  0  0  0
  -11.7935  -37.4925  -12.4015 C   0  0  0  0  0  0  0  0  0  0  0  0
  -11.8580  -37.2967  -13.7705 C   0  0  0  0  0  0  0  0  0  0  0  0
  -12.9580  -37.7246  -14.5032 C   0  0  0  0  0  0  0  0  0  0  0  0
  -13.9968  -38.3509  -13.8592 C   0  0  0  0  0  0  0  0  0  0  0  0
  -15.5260  -38.9546  -14.8278 Br  0  0  0  0  0  0  0  0  0  0  0  0
  -13.9352  -38.5473  -12.4955 C   0  0  0  0  0  0  0  0  0  0  0  0
  2  1  1  6
  2  3  1  0
  3  4  1  0
  4  5  1  0
  5  6  1  0
  6  7  1  0
  7  8  1  0
  8  9  1  0
  9 10  1  0
 10 11  1  0
 11 12  2  0
 11 13  1  0
 13 14  1  0
 13 15  1  0
 15 16  1  6
 15 17  1  0
 17 18  2  0
 17 19  1  0
 19 20  1  0
 20 21  1  1
 20 22  1  0
 22 23  1  1
 22 24  1  0
 24 25  1  0
 25 26  1  0
 26 27  1  0
 26 28  1  0
 26 29  1  0
 29 30  2  0
 30 31  1  0
 31 32  2  0
 32 33  1  0
 33 34  1  0
 33 35  2  0
 21  2  1  0
 35 29  1  0
M  END
$$$$
