
     RDKit          3D

 35 36  0  0  0  0  0  0  0  0999 V2000
  -19.3731  -39.7614   -6.1548 C   0  0  0  0  0  0  0  0  0  0  0  0
  -19.1666  -38.3047   -6.4993 C   0  0  2  0  0  0  0  0  0  0  0  0
  -20.3239  -37.6001   -7.0592 C   0  0  0  0  0  0  0  0  0  0  0  0
  -21.5262  -38.4202   -7.4063 C   0  0  0  0  0  0  0  0  0  0  0  0
  -22.4304  -38.7114   -6.2109 C   0  0  0  0  0  0  0  0  0  0  0  0
  -23.2947  -39.9341   -6.4876 C   0  0  0  0  0  0  0  0  0  0  0  0
  -22.7406  -41.2105   -5.9584 C   0  0  0  0  0  0  0  0  0  0  0  0
  -22.2884  -42.1468   -7.0750 C   0  0  0  0  0  0  0  0  0  0  0  0
  -21.1589  -43.0013   -6.6082 C   0  0  0  0  0  0  0  0  0  0  0  0
  -20.3105  -43.5871   -7.7173 C   0  0  0  0  0  0  0  0  0  0  0  0
  -18.9118  -43.1296   -7.5546 C   0  0  0  0  0  0  0  0  0  0  0  0
  -18.5754  -42.9806   -6.3135 O   0  0  0  0  0  0  0  0  0  0  0  0
  -17.9363  -42.8481   -8.5140 N   0  0  0  0  0  0  0  0  0  0  0  0
  -16.6543  -43.5999   -8.3639 C   0  0  0  0  0  0  0  0  0  0  0  0
  -17.9875  -41.9240   -9.6211 C   0  0  1  0  0  0  0  0  0  0  0  0
  -18.5513  -42.6784  -10.8621 C   0  0  0  0  0  0  0  0  0  0  0  0
  -18.8185  -40.7376   -9.4397 C   0  0  0  0  0  0  0  0  0  0  0  0
  -20.0808  -41.0211   -9.6684 O   0  0  0  0  0  0  0  0  0  0  0  0
  -18.5967  -39.4253   -9.0972 N   0  0  0  0  0  0  0  0  0  0  0  0
  -17.5843  -38.6483   -8.5008 C   0  0  1  0  0  0  0  0  0  0  0  0
  -17.8350  -38.1568   -7.1214 C   0  0  0  0  0  0  0  0  0  0  0  0
  -16.2282  -39.2811   -8.5274 C   0  0  2  0  0  0  0  0  0  0  0  0
  -15.3865  -38.6468   -7.5822 O   0  0  0  0  0  0  0  0  0  0  0  0
  -15.5107  -39.2259   -9.8382 C   0  0  0  0  0  0  0  0  0  0  0  0
  -14.1931  -39.6799   -9.9338 N   0  0  0  0  0  0  0  0  0  0  0  0
  -13.4416  -39.6247  -11.1045 C   0  0  0  0  0  0  0  0  0  0  0  0
  -13.9866  -40.4125  -12.2422 C   0  0  0  0  0  0  0  0  0  0  0  0
  -11.9797  -40.0369  -10.9116 C   0  0  0  0  0  0  0  0  0  0  0  0
  -13.3482  -38.1814  -11.5514 C   0  0  0  0  0  0  0  0  0  0  0  0
  -13.4832  -37.2281  -10.5725 C   0  0  0  0  0  0  0  0  0  0  0  0
  -13.3959  -35.8982  -10.9472 C   0  0  0  0  0  0  0  0  0  0  0  0
  -13.1788  -35.5412  -12.2721 C   0  0  0  0  0  0  0  0  0  0  0  0
  -13.0490  -36.5227  -13.2239 C   0  0  0  0  0  0  0  0  0  0  0  0
  -12.7495  -36.0759  -15.0547 Br  0  0  0  0  0  0  0  0  0  0  0  0
  -13.1355  -37.8483  -12.8534 C   0  0  0  0  0  0  0  0  0  0  0  0
  2  1  1  6
  2  3  1  0
  3  4  1  0
  4  5  1  0
  5  6  1  0
  6  7  1  0
  7  8  1  0
  8  9  1  0
  9 10  1  0
 10 11  1  0
 11 12  2  0
 11 13  1  0
 13 14  1  0
 13 15  1  0
 15 16  1  6
 15 17  1  0
 17 18  2  0
 17 19  1  0
 19 20  1  0
 20 21  1  1
 20 22  1  0
 22 23  1  1
 22 24  1  0
 24 25  1  0
 25 26  1  0
 26 27  1  0
 26 28  1  0
 26 29  1  0
 29 30  2  0
 30 31  1  0
 31 32  2  0
 32 33  1  0
 33 34  1  0
 33 35  2  0
 21  2  1  0
 35 29  1  0
M  END
$$$$
