
     RDKit          3D

 35 36  0  0  0  0  0  0  0  0999 V2000
  -19.0601  -40.3332   -5.7596 C   0  0  0  0  0  0  0  0  0  0  0  0
  -18.9324  -38.8576   -6.0592 C   0  0  2  0  0  0  0  0  0  0  0  0
  -20.1738  -38.1541   -6.3956 C   0  0  0  0  0  0  0  0  0  0  0  0
  -21.4031  -38.9842   -6.5911 C   0  0  0  0  0  0  0  0  0  0  0  0
  -22.1038  -39.3516   -5.2851 C   0  0  0  0  0  0  0  0  0  0  0  0
  -22.9822  -40.5794   -5.4841 C   0  0  0  0  0  0  0  0  0  0  0  0
  -22.3327  -41.8662   -5.1121 C   0  0  0  0  0  0  0  0  0  0  0  0
  -22.0474  -42.7386   -6.3309 C   0  0  0  0  0  0  0  0  0  0  0  0
  -20.8458  -43.5882   -6.0894 C   0  0  0  0  0  0  0  0  0  0  0  0
  -20.1734  -44.1019   -7.3452 C   0  0  0  0  0  0  0  0  0  0  0  0
  -18.7735  -43.6208   -7.3804 C   0  0  0  0  0  0  0  0  0  0  0  0
  -18.2486  -43.5224   -6.2012 O   0  0  0  0  0  0  0  0  0  0  0  0
  -17.9653  -43.2726   -8.4651 N   0  0  0  0  0  0  0  0  0  0  0  0
  -16.6644  -44.0011   -8.5547 C   0  0  0  0  0  0  0  0  0  0  0  0
  -18.2038  -42.2990   -9.5033 C   0  0  1  0  0  0  0  0  0  0  0  0
  -18.9441  -43.0071  -10.6770 C   0  0  0  0  0  0  0  0  0  0  0  0
  -19.0138  -41.1417   -9.1353 C   0  0  0  0  0  0  0  0  0  0  0  0
  -20.2919  -41.4427   -9.1779 O   0  0  0  0  0  0  0  0  0  0  0  0
  -18.7609  -39.8420   -8.7668 N   0  0  0  0  0  0  0  0  0  0  0  0
  -17.6791  -39.0710   -8.2979 C   0  0  1  0  0  0  0  0  0  0  0  0
  -17.7174  -38.6505   -6.8735 C   0  0  0  0  0  0  0  0  0  0  0  0
  -16.3347  -39.6708   -8.5675 C   0  0  2  0  0  0  0  0  0  0  0  0
  -15.3340  -38.9150   -7.9105 O   0  0  0  0  0  0  0  0  0  0  0  0
  -15.9331  -39.7462  -10.0059 C   0  0  0  0  0  0  0  0  0  0  0  0
  -14.5805  -39.7533  -10.3548 N   0  0  0  0  0  0  0  0  0  0  0  0
  -14.1215  -39.6425  -11.6645 C   0  0  0  0  0  0  0  0  0  0  0  0
  -15.1745  -39.3843  -12.6827 C   0  0  0  0  0  0  0  0  0  0  0  0
  -13.3102  -40.8540  -12.1318 C   0  0  0  0  0  0  0  0  0  0  0  0
  -13.1292  -38.5015  -11.7341 C   0  0  0  0  0  0  0  0  0  0  0  0
  -11.8555  -38.8223  -12.1339 C   0  0  0  0  0  0  0  0  0  0  0  0
  -10.9253  -37.8001  -12.2146 C   0  0  0  0  0  0  0  0  0  0  0  0
  -11.2711  -36.4918  -11.9005 C   0  0  0  0  0  0  0  0  0  0  0  0
  -12.5552  -36.2089  -11.5039 C   0  0  0  0  0  0  0  0  0  0  0  0
  -13.0723  -34.4256  -11.0639 Br  0  0  0  0  0  0  0  0  0  0  0  0
  -13.4840  -37.2253  -11.4227 C   0  0  0  0  0  0  0  0  0  0  0  0
  2  1  1  6
  2  3  1  0
  3  4  1  0
  4  5  1  0
  5  6  1  0
  6  7  1  0
  7  8  1  0
  8  9  1  0
  9 10  1  0
 10 11  1  0
 11 12  2  0
 11 13  1  0
 13 14  1  0
 13 15  1  0
 15 16  1  6
 15 17  1  0
 17 18  2  0
 17 19  1  0
 19 20  1  0
 20 21  1  1
 20 22  1  0
 22 23  1  1
 22 24  1  0
 24 25  1  0
 25 26  1  0
 26 27  1  0
 26 28  1  0
 26 29  1  0
 29 30  2  0
 30 31  1  0
 31 32  2  0
 32 33  1  0
 33 34  1  0
 33 35  2  0
 21  2  1  0
 35 29  1  0
M  END
$$$$
