
     RDKit          3D

 35 36  0  0  0  0  0  0  0  0999 V2000
  -19.3642  -39.0952   -6.6872 C   0  0  0  0  0  0  0  0  0  0  0  0
  -19.0342  -37.7786   -7.3513 C   0  0  2  0  0  0  0  0  0  0  0  0
  -20.0252  -37.2653   -8.3020 C   0  0  0  0  0  0  0  0  0  0  0  0
  -21.1640  -38.1665   -8.6618 C   0  0  0  0  0  0  0  0  0  0  0  0
  -22.3024  -38.1448   -7.6445 C   0  0  0  0  0  0  0  0  0  0  0  0
  -23.1408  -39.4104   -7.7629 C   0  0  0  0  0  0  0  0  0  0  0  0
  -22.7568  -40.4925   -6.8154 C   0  0  0  0  0  0  0  0  0  0  0  0
  -22.1255  -41.6838   -7.5297 C   0  0  0  0  0  0  0  0  0  0  0  0
  -21.1490  -42.3668   -6.6332 C   0  0  0  0  0  0  0  0  0  0  0  0
  -20.1176  -43.2120   -7.3508 C   0  0  0  0  0  0  0  0  0  0  0  0
  -18.7637  -42.7062   -7.0293 C   0  0  0  0  0  0  0  0  0  0  0  0
  -18.6800  -42.2289   -5.8290 O   0  0  0  0  0  0  0  0  0  0  0  0
  -17.6037  -42.6736   -7.8069 N   0  0  0  0  0  0  0  0  0  0  0  0
  -16.4097  -43.3389   -7.2045 C   0  0  0  0  0  0  0  0  0  0  0  0
  -17.3927  -42.0763   -9.1035 C   0  0  1  0  0  0  0  0  0  0  0  0
  -17.7232  -43.1409  -10.1919 C   0  0  0  0  0  0  0  0  0  0  0  0
  -18.1953  -40.8972   -9.4144 C   0  0  0  0  0  0  0  0  0  0  0  0
  -19.3953  -41.2506   -9.8155 O   0  0  0  0  0  0  0  0  0  0  0  0
  -17.9953  -39.5377   -9.3898 N   0  0  0  0  0  0  0  0  0  0  0  0
  -17.0944  -38.6151   -8.8227 C   0  0  1  0  0  0  0  0  0  0  0  0
  -17.5994  -37.7800   -7.7025 C   0  0  0  0  0  0  0  0  0  0  0  0
  -15.7874  -39.2113   -8.4028 C   0  0  2  0  0  0  0  0  0  0  0  0
  -15.7364  -39.3044   -6.9911 O   0  0  0  0  0  0  0  0  0  0  0  0
  -14.5650  -38.4591   -8.8225 C   0  0  0  0  0  0  0  0  0  0  0  0
  -13.8267  -38.8860   -9.9288 N   0  0  0  0  0  0  0  0  0  0  0  0
  -13.0792  -38.0305  -10.7336 C   0  0  0  0  0  0  0  0  0  0  0  0
  -11.6911  -37.7749  -10.2646 C   0  0  0  0  0  0  0  0  0  0  0  0
  -13.7479  -36.6731  -10.9681 C   0  0  0  0  0  0  0  0  0  0  0  0
  -12.9899  -38.6276  -12.1217 C   0  0  0  0  0  0  0  0  0  0  0  0
  -13.0082  -37.7420  -13.1707 C   0  0  0  0  0  0  0  0  0  0  0  0
  -12.9212  -38.2556  -14.4534 C   0  0  0  0  0  0  0  0  0  0  0  0
  -12.8189  -39.6239  -14.6706 C   0  0  0  0  0  0  0  0  0  0  0  0
  -12.8040  -40.4794  -13.5963 C   0  0  0  0  0  0  0  0  0  0  0  0
  -12.6642  -42.3655  -13.8502 Br  0  0  0  0  0  0  0  0  0  0  0  0
  -12.8904  -39.9705  -12.3174 C   0  0  0  0  0  0  0  0  0  0  0  0
  2  1  1  6
  2  3  1  0
  3  4  1  0
  4  5  1  0
  5  6  1  0
  6  7  1  0
  7  8  1  0
  8  9  1  0
  9 10  1  0
 10 11  1  0
 11 12  2  0
 11 13  1  0
 13 14  1  0
 13 15  1  0
 15 16  1  6
 15 17  1  0
 17 18  2  0
 17 19  1  0
 19 20  1  0
 20 21  1  1
 20 22  1  0
 22 23  1  1
 22 24  1  0
 24 25  1  0
 25 26  1  0
 26 27  1  0
 26 28  1  0
 26 29  1  0
 29 30  2  0
 30 31  1  0
 31 32  2  0
 32 33  1  0
 33 34  1  0
 33 35  2  0
 21  2  1  0
 35 29  1  0
M  END
$$$$
