
     RDKit          3D

 35 36  0  0  0  0  0  0  0  0999 V2000
  -19.4489  -39.5530   -6.4158 C   0  0  0  0  0  0  0  0  0  0  0  0
  -19.1827  -38.1208   -6.8176 C   0  0  2  0  0  0  0  0  0  0  0  0
  -20.2876  -37.4152   -7.4738 C   0  0  0  0  0  0  0  0  0  0  0  0
  -21.4921  -38.2202   -7.8474 C   0  0  0  0  0  0  0  0  0  0  0  0
  -22.4676  -38.4286   -6.6914 C   0  0  0  0  0  0  0  0  0  0  0  0
  -23.3500  -39.6409   -6.9569 C   0  0  0  0  0  0  0  0  0  0  0  0
  -22.8619  -40.9035   -6.3373 C   0  0  0  0  0  0  0  0  0  0  0  0
  -22.3767  -41.9050   -7.3811 C   0  0  0  0  0  0  0  0  0  0  0  0
  -21.2989  -42.7643   -6.8120 C   0  0  0  0  0  0  0  0  0  0  0  0
  -20.4087  -43.4257   -7.8432 C   0  0  0  0  0  0  0  0  0  0  0  0
  -19.0084  -42.9969   -7.6252 C   0  0  0  0  0  0  0  0  0  0  0  0
  -18.7356  -42.7956   -6.3759 O   0  0  0  0  0  0  0  0  0  0  0  0
  -17.9748  -42.7883   -8.5414 N   0  0  0  0  0  0  0  0  0  0  0  0
  -16.7247  -43.5644   -8.2847 C   0  0  0  0  0  0  0  0  0  0  0  0
  -17.9398  -41.9188   -9.6926 C   0  0  1  0  0  0  0  0  0  0  0  0
  -18.4568  -42.7187  -10.9255 C   0  0  0  0  0  0  0  0  0  0  0  0
  -18.7454  -40.7040   -9.6144 C   0  0  0  0  0  0  0  0  0  0  0  0
  -20.0009  -40.9657   -9.8990 O   0  0  0  0  0  0  0  0  0  0  0  0
  -18.5052  -39.3824   -9.3234 N   0  0  0  0  0  0  0  0  0  0  0  0
  -17.5048  -38.6033   -8.7096 C   0  0  1  0  0  0  0  0  0  0  0  0
  -17.8158  -38.0381   -7.3713 C   0  0  0  0  0  0  0  0  0  0  0  0
  -16.1679  -39.2714   -8.6308 C   0  0  2  0  0  0  0  0  0  0  0  0
  -15.3407  -38.5779   -7.7147 O   0  0  0  0  0  0  0  0  0  0  0  0
  -15.4046  -39.3518   -9.9141 C   0  0  0  0  0  0  0  0  0  0  0  0
  -14.2220  -40.0924   -9.9792 N   0  0  0  0  0  0  0  0  0  0  0  0
  -13.3962  -40.1295  -11.0993 C   0  0  0  0  0  0  0  0  0  0  0  0
  -14.0649  -40.5386  -12.3633 C   0  0  0  0  0  0  0  0  0  0  0  0
  -12.1614  -41.0168  -10.9185 C   0  0  0  0  0  0  0  0  0  0  0  0
  -12.8137  -38.7494  -11.3165 C   0  0  0  0  0  0  0  0  0  0  0  0
  -11.5538  -38.5315  -10.8161 C   0  0  0  0  0  0  0  0  0  0  0  0
  -10.9896  -37.2813  -11.0040 C   0  0  0  0  0  0  0  0  0  0  0  0
  -11.6777  -36.2800  -11.6776 C   0  0  0  0  0  0  0  0  0  0  0  0
  -12.9365  -36.5346  -12.1640 C   0  0  0  0  0  0  0  0  0  0  0  0
  -13.9159  -35.1876  -13.0954 Br  0  0  0  0  0  0  0  0  0  0  0  0
  -13.5010  -37.7792  -11.9783 C   0  0  0  0  0  0  0  0  0  0  0  0
  2  1  1  6
  2  3  1  0
  3  4  1  0
  4  5  1  0
  5  6  1  0
  6  7  1  0
  7  8  1  0
  8  9  1  0
  9 10  1  0
 10 11  1  0
 11 12  2  0
 11 13  1  0
 13 14  1  0
 13 15  1  0
 15 16  1  6
 15 17  1  0
 17 18  2  0
 17 19  1  0
 19 20  1  0
 20 21  1  1
 20 22  1  0
 22 23  1  1
 22 24  1  0
 24 25  1  0
 25 26  1  0
 26 27  1  0
 26 28  1  0
 26 29  1  0
 29 30  2  0
 30 31  1  0
 31 32  2  0
 32 33  1  0
 33 34  1  0
 33 35  2  0
 21  2  1  0
 35 29  1  0
M  END
$$$$
