
     RDKit          3D

 35 36  0  0  0  0  0  0  0  0999 V2000
  -20.0247  -39.8350   -5.9612 C   0  0  0  0  0  0  0  0  0  0  0  0
  -19.9508  -38.3907   -6.3993 C   0  0  2  0  0  0  0  0  0  0  0  0
  -21.1701  -37.8281   -6.9876 C   0  0  0  0  0  0  0  0  0  0  0  0
  -22.2972  -38.7715   -7.2670 C   0  0  0  0  0  0  0  0  0  0  0  0
  -23.1634  -39.0644   -6.0442 C   0  0  0  0  0  0  0  0  0  0  0  0
  -23.9177  -40.3737   -6.2325 C   0  0  0  0  0  0  0  0  0  0  0  0
  -23.2487  -41.5599   -5.6310 C   0  0  0  0  0  0  0  0  0  0  0  0
  -22.7231  -42.5220   -6.6922 C   0  0  0  0  0  0  0  0  0  0  0  0
  -21.5189  -43.2421   -6.1870 C   0  0  0  0  0  0  0  0  0  0  0  0
  -20.6297  -43.8204   -7.2678 C   0  0  0  0  0  0  0  0  0  0  0  0
  -19.2760  -43.2319   -7.1520 C   0  0  0  0  0  0  0  0  0  0  0  0
  -18.9454  -42.9749   -5.9271 O   0  0  0  0  0  0  0  0  0  0  0  0
  -18.3363  -42.9273   -8.1396 N   0  0  0  0  0  0  0  0  0  0  0  0
  -16.9915  -43.5519   -7.9588 C   0  0  0  0  0  0  0  0  0  0  0  0
  -18.4772  -42.0838   -9.3019 C   0  0  1  0  0  0  0  0  0  0  0  0
  -18.9806  -42.9626  -10.4857 C   0  0  0  0  0  0  0  0  0  0  0  0
  -19.4090  -40.9662   -9.1849 C   0  0  0  0  0  0  0  0  0  0  0  0
  -20.6427  -41.3738   -9.3792 O   0  0  0  0  0  0  0  0  0  0  0  0
  -19.3022  -39.6202   -8.9286 N   0  0  0  0  0  0  0  0  0  0  0  0
  -18.3585  -38.7205   -8.3952 C   0  0  1  0  0  0  0  0  0  0  0  0
  -18.6420  -38.1660   -7.0464 C   0  0  0  0  0  0  0  0  0  0  0  0
  -16.9518  -39.2317   -8.3993 C   0  0  2  0  0  0  0  0  0  0  0  0
  -16.4056  -39.1372   -7.0966 O   0  0  0  0  0  0  0  0  0  0  0  0
  -16.0035  -38.5184   -9.3093 C   0  0  0  0  0  0  0  0  0  0  0  0
  -14.8918  -39.1886   -9.8252 N   0  0  0  0  0  0  0  0  0  0  0  0
  -14.5730  -39.2238  -11.1799 C   0  0  0  0  0  0  0  0  0  0  0  0
  -15.3311  -38.2692  -12.0319 C   0  0  0  0  0  0  0  0  0  0  0  0
  -14.7118  -40.6152  -11.8039 C   0  0  0  0  0  0  0  0  0  0  0  0
  -13.1010  -38.9082  -11.3384 C   0  0  0  0  0  0  0  0  0  0  0  0
  -12.4017  -39.6840  -12.2296 C   0  0  0  0  0  0  0  0  0  0  0  0
  -11.0545  -39.4165  -12.4030 C   0  0  0  0  0  0  0  0  0  0  0  0
  -10.4313  -38.3952  -11.6968 C   0  0  0  0  0  0  0  0  0  0  0  0
  -11.1633  -37.6401  -10.8136 C   0  0  0  0  0  0  0  0  0  0  0  0
  -10.3466  -36.2277   -9.8239 Br  0  0  0  0  0  0  0  0  0  0  0  0
  -12.5055  -37.9044  -10.6389 C   0  0  0  0  0  0  0  0  0  0  0  0
  2  1  1  6
  2  3  1  0
  3  4  1  0
  4  5  1  0
  5  6  1  0
  6  7  1  0
  7  8  1  0
  8  9  1  0
  9 10  1  0
 10 11  1  0
 11 12  2  0
 11 13  1  0
 13 14  1  0
 13 15  1  0
 15 16  1  6
 15 17  1  0
 17 18  2  0
 17 19  1  0
 19 20  1  0
 20 21  1  1
 20 22  1  0
 22 23  1  1
 22 24  1  0
 24 25  1  0
 25 26  1  0
 26 27  1  0
 26 28  1  0
 26 29  1  0
 29 30  2  0
 30 31  1  0
 31 32  2  0
 32 33  1  0
 33 34  1  0
 33 35  2  0
 21  2  1  0
 35 29  1  0
M  END
$$$$
