
     RDKit          3D

 35 36  0  0  0  0  0  0  0  0999 V2000
  -19.6223  -40.0332   -5.4072 C   0  0  0  0  0  0  0  0  0  0  0  0
  -19.4111  -38.6093   -5.8670 C   0  0  2  0  0  0  0  0  0  0  0  0
  -20.5800  -37.9311   -6.4355 C   0  0  0  0  0  0  0  0  0  0  0  0
  -21.8042  -38.7568   -6.6763 C   0  0  0  0  0  0  0  0  0  0  0  0
  -22.6665  -38.9448   -5.4303 C   0  0  0  0  0  0  0  0  0  0  0  0
  -23.5553  -40.1718   -5.5832 C   0  0  0  0  0  0  0  0  0  0  0  0
  -22.9974  -41.4134   -4.9805 C   0  0  0  0  0  0  0  0  0  0  0  0
  -22.5986  -42.4367   -6.0396 C   0  0  0  0  0  0  0  0  0  0  0  0
  -21.4629  -43.2709   -5.5516 C   0  0  0  0  0  0  0  0  0  0  0  0
  -20.6637  -43.9500   -6.6440 C   0  0  0  0  0  0  0  0  0  0  0  0
  -19.2545  -43.5026   -6.5670 C   0  0  0  0  0  0  0  0  0  0  0  0
  -18.8701  -43.2668   -5.3536 O   0  0  0  0  0  0  0  0  0  0  0  0
  -18.3122  -43.3077   -7.5797 N   0  0  0  0  0  0  0  0  0  0  0  0
  -17.0347  -44.0652   -7.4205 C   0  0  0  0  0  0  0  0  0  0  0  0
  -18.3937  -42.4677   -8.7502 C   0  0  1  0  0  0  0  0  0  0  0  0
  -19.0126  -43.3038   -9.9099 C   0  0  0  0  0  0  0  0  0  0  0  0
  -19.2029  -41.2589   -8.6279 C   0  0  0  0  0  0  0  0  0  0  0  0
  -20.4761  -41.5398   -8.7886 O   0  0  0  0  0  0  0  0  0  0  0  0
  -18.9525  -39.9282   -8.3929 N   0  0  0  0  0  0  0  0  0  0  0  0
  -17.9091  -39.1242   -7.8935 C   0  0  1  0  0  0  0  0  0  0  0  0
  -18.1021  -38.5279   -6.5465 C   0  0  0  0  0  0  0  0  0  0  0  0
  -16.5627  -39.7773   -7.9221 C   0  0  2  0  0  0  0  0  0  0  0  0
  -15.7393  -39.2183   -6.9153 O   0  0  0  0  0  0  0  0  0  0  0  0
  -15.8066  -39.6522   -9.2061 C   0  0  0  0  0  0  0  0  0  0  0  0
  -15.5559  -38.3902   -9.7499 N   0  0  0  0  0  0  0  0  0  0  0  0
  -15.0794  -38.1883  -11.0423 C   0  0  0  0  0  0  0  0  0  0  0  0
  -15.3232  -36.8313  -11.6002 C   0  0  0  0  0  0  0  0  0  0  0  0
  -15.6078  -39.2088  -12.0542 C   0  0  0  0  0  0  0  0  0  0  0  0
  -13.5840  -38.4230  -11.0483 C   0  0  0  0  0  0  0  0  0  0  0  0
  -13.1469  -39.5668  -11.6695 C   0  0  0  0  0  0  0  0  0  0  0  0
  -11.7839  -39.8075  -11.6985 C   0  0  0  0  0  0  0  0  0  0  0  0
  -10.8881  -38.9191  -11.1169 C   0  0  0  0  0  0  0  0  0  0  0  0
  -11.3624  -37.7853  -10.5041 C   0  0  0  0  0  0  0  0  0  0  0  0
  -10.1665  -36.5387   -9.6935 Br  0  0  0  0  0  0  0  0  0  0  0  0
  -12.7197  -37.5429  -10.4738 C   0  0  0  0  0  0  0  0  0  0  0  0
  2  1  1  6
  2  3  1  0
  3  4  1  0
  4  5  1  0
  5  6  1  0
  6  7  1  0
  7  8  1  0
  8  9  1  0
  9 10  1  0
 10 11  1  0
 11 12  2  0
 11 13  1  0
 13 14  1  0
 13 15  1  0
 15 16  1  6
 15 17  1  0
 17 18  2  0
 17 19  1  0
 19 20  1  0
 20 21  1  1
 20 22  1  0
 22 23  1  1
 22 24  1  0
 24 25  1  0
 25 26  1  0
 26 27  1  0
 26 28  1  0
 26 29  1  0
 29 30  2  0
 30 31  1  0
 31 32  2  0
 32 33  1  0
 33 34  1  0
 33 35  2  0
 21  2  1  0
 35 29  1  0
M  END
$$$$
