
     RDKit          3D

 36 37  0  0  0  0  0  0  0  0999 V2000
  -20.2578  -37.4166   -6.4157 C   0  0  0  0  0  0  0  0  0  0  0  0
  -19.5863  -38.2390   -7.4938 C   0  0  2  0  0  0  0  0  0  0  0  0
  -20.5403  -39.2656   -7.9952 C   0  0  0  0  0  0  0  0  0  0  0  0
  -21.9286  -38.6474   -8.1315 C   0  0  0  0  0  0  0  0  0  0  0  0
  -22.8246  -39.5081   -8.9895 C   0  0  0  0  0  0  0  0  0  0  0  0
  -23.8762  -40.2566   -8.1993 C   0  0  0  0  0  0  0  0  0  0  0  0
  -23.7069  -41.7397   -8.4403 C   0  0  0  0  0  0  0  0  0  0  0  0
  -23.1722  -42.3816   -7.1926 C   0  0  0  0  0  0  0  0  0  0  0  0
  -22.7465  -43.7968   -7.3227 C   0  0  0  0  0  0  0  0  0  0  0  0
  -21.9294  -44.1447   -8.5175 C   0  0  0  0  0  0  0  0  0  0  0  0
  -20.7152  -44.9603   -8.2129 C   0  0  0  0  0  0  0  0  0  0  0  0
  -20.7237  -46.1918   -8.6072 O   0  0  0  0  0  0  0  0  0  0  0  0
  -19.5674  -44.5279   -7.5428 N   0  0  0  0  0  0  0  0  0  0  0  0
  -19.0901  -45.3516   -6.4152 C   0  0  0  0  0  0  0  0  0  0  0  0
  -18.7588  -43.3425   -7.8288 C   0  0  1  0  0  0  0  0  0  0  0  0
  -19.0677  -42.7315   -9.1474 C   0  0  0  0  0  0  0  0  0  0  0  0
  -18.9645  -42.3650   -6.7659 C   0  0  0  0  0  0  0  0  0  0  0  0
  -19.8924  -42.6027   -5.9157 O   0  0  0  0  0  0  0  0  0  0  0  0
  -18.2475  -41.1954   -6.5841 N   0  0  0  0  0  0  0  0  0  0  0  0
  -17.9148  -40.1423   -7.4907 C   0  0  1  0  0  0  0  0  0  0  0  0
  -18.3090  -38.7899   -6.9375 C   0  0  0  0  0  0  0  0  0  0  0  0
  -16.4010  -40.1497   -7.6616 C   0  0  2  0  0  0  0  0  0  0  0  0
  -15.8503  -39.0843   -6.9627 O   0  0  0  0  0  0  0  0  0  0  0  0
  -15.9699  -40.1169   -9.0735 C   0  0  0  0  0  0  0  0  0  0  0  0
  -14.8142  -40.9292   -9.2872 N   0  0  0  0  0  0  0  0  0  0  0  0
  -14.2338  -40.9251  -10.5848 C   0  0  0  0  0  0  0  0  0  0  0  0
  -13.5153  -39.6120  -10.7574 C   0  0  0  0  0  0  0  0  0  0  0  0
  -13.8997  -38.5899  -11.5892 C   0  0  0  0  0  0  0  0  0  0  0  0
  -12.9594  -37.5833  -11.4360 C   0  0  0  0  0  0  0  0  0  0  0  0
  -12.9373  -36.2558  -12.1328 C   0  0  0  0  0  0  0  0  0  0  0  0
  -11.5214  -35.7385  -12.2752 C   0  0  0  0  0  0  0  0  0  0  0  0
  -10.6455  -36.6852  -13.0537 C   0  0  0  0  0  0  0  0  0  0  0  0
  -10.9828  -35.4880  -10.8827 C   0  0  0  0  0  0  0  0  0  0  0  0
  -11.6147  -34.4323  -13.0453 C   0  0  0  0  0  0  0  0  0  0  0  0
  -12.0980  -38.0133  -10.5699 O   0  0  0  0  0  0  0  0  0  0  0  0
  -12.3937  -39.2083  -10.1464 N   0  0  0  0  0  0  0  0  0  0  0  0
  2  1  1  1
  2  3  1  0
  3  4  1  0
  4  5  1  0
  5  6  1  0
  6  7  1  0
  7  8  1  0
  8  9  1  0
  9 10  1  0
 10 11  1  0
 11 12  2  0
 11 13  1  0
 13 14  1  0
 13 15  1  0
 15 16  1  6
 15 17  1  0
 17 18  2  0
 17 19  1  0
 19 20  1  0
 20 21  1  1
 20 22  1  0
 22 23  1  1
 22 24  1  0
 24 25  1  0
 25 26  1  0
 26 27  1  0
 27 28  1  0
 28 29  2  0
 29 30  1  0
 30 31  1  0
 31 32  1  0
 31 33  1  0
 31 34  1  0
 29 35  1  0
 35 36  1  0
 21  2  1  0
 36 27  2  0
M  END
$$$$
