
     RDKit          3D

 36 37  0  0  0  0  0  0  0  0999 V2000
  -19.9152  -36.9301  -10.0428 C   0  0  0  0  0  0  0  0  0  0  0  0
  -19.9048  -38.4048  -10.3812 C   0  0  2  0  0  0  0  0  0  0  0  0
  -20.8867  -39.1147   -9.5167 C   0  0  0  0  0  0  0  0  0  0  0  0
  -22.1546  -38.2755   -9.3907 C   0  0  0  0  0  0  0  0  0  0  0  0
  -23.3040  -39.1029   -8.8670 C   0  0  0  0  0  0  0  0  0  0  0  0
  -23.6596  -38.7965   -7.4283 C   0  0  0  0  0  0  0  0  0  0  0  0
  -23.5344  -40.0632   -6.6121 C   0  0  0  0  0  0  0  0  0  0  0  0
  -22.3377  -39.9506   -5.7120 C   0  0  0  0  0  0  0  0  0  0  0  0
  -21.9451  -41.1899   -4.9974 C   0  0  0  0  0  0  0  0  0  0  0  0
  -21.9201  -42.4460   -5.7961 C   0  0  0  0  0  0  0  0  0  0  0  0
  -20.6838  -43.2645   -5.6121 C   0  0  0  0  0  0  0  0  0  0  0  0
  -20.8119  -44.3826   -4.9754 O   0  0  0  0  0  0  0  0  0  0  0  0
  -19.3985  -42.9446   -6.0584 N   0  0  0  0  0  0  0  0  0  0  0  0
  -18.3019  -43.0153   -5.0734 C   0  0  0  0  0  0  0  0  0  0  0  0
  -18.9937  -42.5485   -7.4075 C   0  0  1  0  0  0  0  0  0  0  0  0
  -20.0424  -42.8041   -8.4284 C   0  0  0  0  0  0  0  0  0  0  0  0
  -18.6430  -41.1326   -7.3968 C   0  0  0  0  0  0  0  0  0  0  0  0
  -18.9053  -40.4667   -6.3346 O   0  0  0  0  0  0  0  0  0  0  0  0
  -18.0479  -40.4324   -8.4315 N   0  0  0  0  0  0  0  0  0  0  0  0
  -18.3736  -40.3431   -9.8199 C   0  0  1  0  0  0  0  0  0  0  0  0
  -18.4964  -38.9029  -10.2686 C   0  0  0  0  0  0  0  0  0  0  0  0
  -17.2264  -40.9747  -10.5982 C   0  0  2  0  0  0  0  0  0  0  0  0
  -17.3018  -42.3570  -10.4951 O   0  0  0  0  0  0  0  0  0  0  0  0
  -15.8955  -40.4987  -10.1711 C   0  0  0  0  0  0  0  0  0  0  0  0
  -15.1357  -41.5444   -9.5626 N   0  0  0  0  0  0  0  0  0  0  0  0
  -13.7240  -41.3879   -9.5037 C   0  0  0  0  0  0  0  0  0  0  0  0
  -13.4410  -39.9661   -9.0931 C   0  0  0  0  0  0  0  0  0  0  0  0
  -13.1634  -38.9250   -9.9437 C   0  0  0  0  0  0  0  0  0  0  0  0
  -12.9681  -37.8077   -9.1473 C   0  0  0  0  0  0  0  0  0  0  0  0
  -12.6377  -36.4191   -9.6066 C   0  0  0  0  0  0  0  0  0  0  0  0
  -13.8901  -35.6593   -9.9898 C   0  0  0  0  0  0  0  0  0  0  0  0
  -14.7680  -35.3726   -8.7995 C   0  0  0  0  0  0  0  0  0  0  0  0
  -14.6146  -36.4711  -11.0423 C   0  0  0  0  0  0  0  0  0  0  0  0
  -13.4295  -34.3344  -10.5730 C   0  0  0  0  0  0  0  0  0  0  0  0
  -13.1265  -38.1968   -7.9224 O   0  0  0  0  0  0  0  0  0  0  0  0
  -13.4073  -39.4661   -7.8509 N   0  0  0  0  0  0  0  0  0  0  0  0
  2  1  1  1
  2  3  1  0
  3  4  1  0
  4  5  1  0
  5  6  1  0
  6  7  1  0
  7  8  1  0
  8  9  1  0
  9 10  1  0
 10 11  1  0
 11 12  2  0
 11 13  1  0
 13 14  1  0
 13 15  1  0
 15 16  1  6
 15 17  1  0
 17 18  2  0
 17 19  1  0
 19 20  1  0
 20 21  1  6
 20 22  1  0
 22 23  1  1
 22 24  1  0
 24 25  1  0
 25 26  1  0
 26 27  1  0
 27 28  1  0
 28 29  2  0
 29 30  1  0
 30 31  1  0
 31 32  1  0
 31 33  1  0
 31 34  1  0
 29 35  1  0
 35 36  1  0
 21  2  1  0
 36 27  2  0
M  END
$$$$
