
     RDKit          3D

 36 37  0  0  0  0  0  0  0  0999 V2000
  -19.2394  -36.2763   -8.3478 C   0  0  0  0  0  0  0  0  0  0  0  0
  -19.4040  -37.5672   -9.1198 C   0  0  2  0  0  0  0  0  0  0  0  0
  -20.4223  -38.4175   -8.4450 C   0  0  0  0  0  0  0  0  0  0  0  0
  -21.5847  -37.5465   -7.9780 C   0  0  0  0  0  0  0  0  0  0  0  0
  -22.7958  -38.3867   -7.6506 C   0  0  0  0  0  0  0  0  0  0  0  0
  -23.0578  -38.5116   -6.1653 C   0  0  0  0  0  0  0  0  0  0  0  0
  -23.0394  -39.9751   -5.7857 C   0  0  0  0  0  0  0  0  0  0  0  0
  -21.8025  -40.2582   -4.9828 C   0  0  0  0  0  0  0  0  0  0  0  0
  -21.5195  -41.6888   -4.7106 C   0  0  0  0  0  0  0  0  0  0  0  0
  -21.6641  -42.6310   -5.8541 C   0  0  0  0  0  0  0  0  0  0  0  0
  -20.5185  -43.5758   -6.0180 C   0  0  0  0  0  0  0  0  0  0  0  0
  -20.7425  -44.8198   -5.7454 O   0  0  0  0  0  0  0  0  0  0  0  0
  -19.2248  -43.2523   -6.4367 N   0  0  0  0  0  0  0  0  0  0  0  0
  -18.1040  -43.7260   -5.6018 C   0  0  0  0  0  0  0  0  0  0  0  0
  -18.8335  -42.4952   -7.6260 C   0  0  1  0  0  0  0  0  0  0  0  0
  -19.9439  -42.3235   -8.5980 C   0  0  0  0  0  0  0  0  0  0  0  0
  -18.3298  -41.1913   -7.2090 C   0  0  0  0  0  0  0  0  0  0  0  0
  -18.4748  -40.8676   -5.9783 O   0  0  0  0  0  0  0  0  0  0  0  0
  -17.7036  -40.2617   -8.0206 N   0  0  0  0  0  0  0  0  0  0  0  0
  -18.0728  -39.7157   -9.2884 C   0  0  1  0  0  0  0  0  0  0  0  0
  -18.0552  -38.2025   -9.2661 C   0  0  0  0  0  0  0  0  0  0  0  0
  -17.0338  -40.1764  -10.3027 C   0  0  2  0  0  0  0  0  0  0  0  0
  -17.5820  -40.1392  -11.5775 O   0  0  0  0  0  0  0  0  0  0  0  0
  -16.4887  -41.5184  -10.0159 C   0  0  0  0  0  0  0  0  0  0  0  0
  -15.1467  -41.4459   -9.5311 N   0  0  0  0  0  0  0  0  0  0  0  0
  -14.0989  -41.7749  -10.4337 C   0  0  0  0  0  0  0  0  0  0  0  0
  -13.2080  -40.5660  -10.5563 C   0  0  0  0  0  0  0  0  0  0  0  0
  -13.6016  -39.2600  -10.4026 C   0  0  0  0  0  0  0  0  0  0  0  0
  -12.4714  -38.4827  -10.6009 C   0  0  0  0  0  0  0  0  0  0  0  0
  -12.3831  -36.9871  -10.5400 C   0  0  0  0  0  0  0  0  0  0  0  0
  -11.9870  -36.4093  -11.8824 C   0  0  0  0  0  0  0  0  0  0  0  0
  -11.8843  -34.9067  -11.8469 C   0  0  0  0  0  0  0  0  0  0  0  0
  -13.0019  -36.8811  -12.9018 C   0  0  0  0  0  0  0  0  0  0  0  0
  -10.6146  -36.9738  -12.2072 C   0  0  0  0  0  0  0  0  0  0  0  0
  -11.5005  -39.3023  -10.8509 O   0  0  0  0  0  0  0  0  0  0  0  0
  -11.8976  -40.5420  -10.8328 N   0  0  0  0  0  0  0  0  0  0  0  0
  2  1  1  1
  2  3  1  0
  3  4  1  0
  4  5  1  0
  5  6  1  0
  6  7  1  0
  7  8  1  0
  8  9  1  0
  9 10  1  0
 10 11  1  0
 11 12  2  0
 11 13  1  0
 13 14  1  0
 13 15  1  0
 15 16  1  6
 15 17  1  0
 17 18  2  0
 17 19  1  0
 19 20  1  0
 20 21  1  1
 20 22  1  0
 22 23  1  6
 22 24  1  0
 24 25  1  0
 25 26  1  0
 26 27  1  0
 27 28  1  0
 28 29  2  0
 29 30  1  0
 30 31  1  0
 31 32  1  0
 31 33  1  0
 31 34  1  0
 29 35  1  0
 35 36  1  0
 21  2  1  0
 36 27  2  0
M  END
$$$$
