
     RDKit          3D

 36 37  0  0  0  0  0  0  0  0999 V2000
  -20.5954  -36.8803   -6.4985 C   0  0  0  0  0  0  0  0  0  0  0  0
  -20.2609  -37.7329   -7.7029 C   0  0  2  0  0  0  0  0  0  0  0  0
  -21.0754  -38.9781   -7.6655 C   0  0  0  0  0  0  0  0  0  0  0  0
  -22.4968  -38.6440   -7.2228 C   0  0  0  0  0  0  0  0  0  0  0  0
  -23.4451  -39.7747   -7.5418 C   0  0  0  0  0  0  0  0  0  0  0  0
  -23.8760  -40.5609   -6.3225 C   0  0  0  0  0  0  0  0  0  0  0  0
  -23.4883  -42.0102   -6.5116 C   0  0  0  0  0  0  0  0  0  0  0  0
  -22.3556  -42.3403   -5.5829 C   0  0  0  0  0  0  0  0  0  0  0  0
  -21.7116  -43.6607   -5.7894 C   0  0  0  0  0  0  0  0  0  0  0  0
  -21.4049  -44.0455   -7.1944 C   0  0  0  0  0  0  0  0  0  0  0  0
  -20.0226  -44.5752   -7.3967 C   0  0  0  0  0  0  0  0  0  0  0  0
  -19.9123  -45.8358   -7.6628 O   0  0  0  0  0  0  0  0  0  0  0  0
  -18.8323  -43.8460   -7.3271 N   0  0  0  0  0  0  0  0  0  0  0  0
  -17.7583  -44.3820   -6.4686 C   0  0  0  0  0  0  0  0  0  0  0  0
  -18.5071  -42.5978   -8.0179 C   0  0  1  0  0  0  0  0  0  0  0  0
  -19.4630  -42.2692   -9.1068 C   0  0  0  0  0  0  0  0  0  0  0  0
  -18.4725  -41.5149   -7.0413 C   0  0  0  0  0  0  0  0  0  0  0  0
  -18.8858  -41.7735   -5.8569 O   0  0  0  0  0  0  0  0  0  0  0  0
  -18.0314  -40.2235   -7.2713 N   0  0  0  0  0  0  0  0  0  0  0  0
  -18.3520  -39.2867   -8.3016 C   0  0  1  0  0  0  0  0  0  0  0  0
  -18.7794  -37.9542   -7.7251 C   0  0  0  0  0  0  0  0  0  0  0  0
  -17.0859  -39.0546   -9.1162 C   0  0  2  0  0  0  0  0  0  0  0  0
  -17.4170  -38.4716  -10.3317 O   0  0  0  0  0  0  0  0  0  0  0  0
  -16.2944  -40.2822   -9.3328 C   0  0  0  0  0  0  0  0  0  0  0  0
  -14.9519  -40.1283   -8.8690 N   0  0  0  0  0  0  0  0  0  0  0  0
  -13.9070  -40.6365   -9.6881 C   0  0  0  0  0  0  0  0  0  0  0  0
  -13.4559  -39.5204  -10.5942 C   0  0  0  0  0  0  0  0  0  0  0  0
  -13.8453  -38.2071  -10.5052 C   0  0  0  0  0  0  0  0  0  0  0  0
  -13.1960  -37.5341  -11.5280 C   0  0  0  0  0  0  0  0  0  0  0  0
  -13.2943  -36.0733  -11.8516 C   0  0  0  0  0  0  0  0  0  0  0  0
  -11.9803  -35.3676  -11.5907 C   0  0  0  0  0  0  0  0  0  0  0  0
  -11.5109  -35.5464  -10.1704 C   0  0  0  0  0  0  0  0  0  0  0  0
  -12.1666  -33.9072  -11.9432 C   0  0  0  0  0  0  0  0  0  0  0  0
  -10.9572  -36.0050  -12.5152 C   0  0  0  0  0  0  0  0  0  0  0  0
  -12.4840  -38.4158  -12.1546 O   0  0  0  0  0  0  0  0  0  0  0  0
  -12.6118  -39.6010  -11.6311 N   0  0  0  0  0  0  0  0  0  0  0  0
  2  1  1  1
  2  3  1  0
  3  4  1  0
  4  5  1  0
  5  6  1  0
  6  7  1  0
  7  8  1  0
  8  9  1  0
  9 10  1  0
 10 11  1  0
 11 12  2  0
 11 13  1  0
 13 14  1  0
 13 15  1  0
 15 16  1  6
 15 17  1  0
 17 18  2  0
 17 19  1  0
 19 20  1  0
 20 21  1  1
 20 22  1  0
 22 23  1  6
 22 24  1  0
 24 25  1  0
 25 26  1  0
 26 27  1  0
 27 28  1  0
 28 29  2  0
 29 30  1  0
 30 31  1  0
 31 32  1  0
 31 33  1  0
 31 34  1  0
 29 35  1  0
 35 36  1  0
 21  2  1  0
 36 27  2  0
M  END
$$$$
