
     RDKit          3D

 36 37  0  0  0  0  0  0  0  0999 V2000
  -20.0124  -36.6926   -6.9914 C   0  0  0  0  0  0  0  0  0  0  0  0
  -19.9368  -37.8212   -7.9963 C   0  0  2  0  0  0  0  0  0  0  0  0
  -20.8584  -38.9133   -7.5798 C   0  0  0  0  0  0  0  0  0  0  0  0
  -22.1632  -38.3109   -7.0674 C   0  0  0  0  0  0  0  0  0  0  0  0
  -23.2551  -39.3519   -7.0065 C   0  0  0  0  0  0  0  0  0  0  0  0
  -23.5875  -39.7937   -5.5976 C   0  0  0  0  0  0  0  0  0  0  0  0
  -23.3770  -41.2872   -5.4898 C   0  0  0  0  0  0  0  0  0  0  0  0
  -22.1641  -41.5520   -4.6451 C   0  0  0  0  0  0  0  0  0  0  0  0
  -21.6908  -42.9576   -4.6130 C   0  0  0  0  0  0  0  0  0  0  0  0
  -21.6237  -43.6732   -5.9167 C   0  0  0  0  0  0  0  0  0  0  0  0
  -20.3433  -44.4078   -6.1472 C   0  0  0  0  0  0  0  0  0  0  0  0
  -20.3980  -45.6996   -6.1257 O   0  0  0  0  0  0  0  0  0  0  0  0
  -19.0881  -43.8406   -6.3840 N   0  0  0  0  0  0  0  0  0  0  0  0
  -17.9636  -44.3123   -5.5528 C   0  0  0  0  0  0  0  0  0  0  0  0
  -18.7396  -42.8238   -7.3767 C   0  0  1  0  0  0  0  0  0  0  0  0
  -19.8008  -42.6179   -8.3960 C   0  0  0  0  0  0  0  0  0  0  0  0
  -18.4605  -41.5691   -6.6871 C   0  0  0  0  0  0  0  0  0  0  0  0
  -18.7277  -41.5101   -5.4359 O   0  0  0  0  0  0  0  0  0  0  0  0
  -17.9291  -40.4259   -7.2579 N   0  0  0  0  0  0  0  0  0  0  0  0
  -18.2955  -39.7006   -8.4332 C   0  0  1  0  0  0  0  0  0  0  0  0
  -18.5026  -38.2313   -8.1353 C   0  0  0  0  0  0  0  0  0  0  0  0
  -17.1391  -39.8153   -9.4182 C   0  0  2  0  0  0  0  0  0  0  0  0
  -17.6323  -39.8033  -10.7158 O   0  0  0  0  0  0  0  0  0  0  0  0
  -16.2976  -41.0086   -9.1985 C   0  0  0  0  0  0  0  0  0  0  0  0
  -14.9562  -40.6489   -8.8630 N   0  0  0  0  0  0  0  0  0  0  0  0
  -13.9027  -41.3013   -9.5597 C   0  0  0  0  0  0  0  0  0  0  0  0
  -13.4937  -40.4099  -10.7036 C   0  0  0  0  0  0  0  0  0  0  0  0
  -12.3739  -39.6168  -10.7425 C   0  0  0  0  0  0  0  0  0  0  0  0
  -12.3906  -38.9726  -11.9694 C   0  0  0  0  0  0  0  0  0  0  0  0
  -11.3787  -37.9959  -12.4894 C   0  0  0  0  0  0  0  0  0  0  0  0
  -11.8692  -36.5712  -12.3400 C   0  0  0  0  0  0  0  0  0  0  0  0
  -13.2772  -36.3983  -12.8475 C   0  0  0  0  0  0  0  0  0  0  0  0
  -10.8931  -35.6717  -13.0679 C   0  0  0  0  0  0  0  0  0  0  0  0
  -11.8574  -36.2645  -10.8522 C   0  0  0  0  0  0  0  0  0  0  0  0
  -13.4557  -39.3790  -12.5838 O   0  0  0  0  0  0  0  0  0  0  0  0
  -14.1324  -40.2293  -11.8670 N   0  0  0  0  0  0  0  0  0  0  0  0
  2  1  1  1
  2  3  1  0
  3  4  1  0
  4  5  1  0
  5  6  1  0
  6  7  1  0
  7  8  1  0
  8  9  1  0
  9 10  1  0
 10 11  1  0
 11 12  2  0
 11 13  1  0
 13 14  1  0
 13 15  1  0
 15 16  1  6
 15 17  1  0
 17 18  2  0
 17 19  1  0
 19 20  1  0
 20 21  1  1
 20 22  1  0
 22 23  1  6
 22 24  1  0
 24 25  1  0
 25 26  1  0
 26 27  1  0
 27 28  1  0
 28 29  2  0
 29 30  1  0
 30 31  1  0
 31 32  1  0
 31 33  1  0
 31 34  1  0
 29 35  1  0
 35 36  1  0
 21  2  1  0
 36 27  2  0
M  END
$$$$
