
     RDKit          3D

 36 37  0  0  0  0  0  0  0  0999 V2000
  -20.0604  -38.0384   -5.7241 C   0  0  0  0  0  0  0  0  0  0  0  0
  -19.2388  -38.1107   -6.9926 C   0  0  2  0  0  0  0  0  0  0  0  0
  -19.9629  -38.9312   -8.0015 C   0  0  0  0  0  0  0  0  0  0  0  0
  -21.4494  -38.5894   -7.9641 C   0  0  0  0  0  0  0  0  0  0  0  0
  -22.1527  -39.0871   -9.2040 C   0  0  0  0  0  0  0  0  0  0  0  0
  -23.0237  -40.2997   -8.9561 C   0  0  0  0  0  0  0  0  0  0  0  0
  -22.5533  -41.4305   -9.8429 C   0  0  0  0  0  0  0  0  0  0  0  0
  -21.8918  -42.4773   -8.9936 C   0  0  0  0  0  0  0  0  0  0  0  0
  -21.1841  -43.5552   -9.7272 C   0  0  0  0  0  0  0  0  0  0  0  0
  -20.3184  -43.1371  -10.8637 C   0  0  0  0  0  0  0  0  0  0  0  0
  -18.9607  -43.7607  -10.8614 C   0  0  0  0  0  0  0  0  0  0  0  0
  -18.7168  -44.6347  -11.7827 O   0  0  0  0  0  0  0  0  0  0  0  0
  -17.9236  -43.4961   -9.9626 N   0  0  0  0  0  0  0  0  0  0  0  0
  -17.2815  -44.6529   -9.3090 C   0  0  0  0  0  0  0  0  0  0  0  0
  -17.3781  -42.1916   -9.5862 C   0  0  1  0  0  0  0  0  0  0  0  0
  -17.8126  -41.0962  -10.4911 C   0  0  0  0  0  0  0  0  0  0  0  0
  -17.7761  -41.8930   -8.2151 C   0  0  0  0  0  0  0  0  0  0  0  0
  -18.6311  -42.6719   -7.6648 O   0  0  0  0  0  0  0  0  0  0  0  0
  -17.3148  -40.8412   -7.4430 N   0  0  0  0  0  0  0  0  0  0  0  0
  -17.2107  -39.4431   -7.7192 C   0  0  1  0  0  0  0  0  0  0  0  0
  -17.8728  -38.6145   -6.6397 C   0  0  0  0  0  0  0  0  0  0  0  0
  -15.7288  -39.0904   -7.7308 C   0  0  2  0  0  0  0  0  0  0  0  0
  -15.3563  -38.6119   -6.4820 O   0  0  0  0  0  0  0  0  0  0  0  0
  -15.3648  -38.1205   -8.7830 C   0  0  0  0  0  0  0  0  0  0  0  0
  -15.0528  -38.7755  -10.0138 N   0  0  0  0  0  0  0  0  0  0  0  0
  -13.7712  -39.3784  -10.1355 C   0  0  0  0  0  0  0  0  0  0  0  0
  -13.3978  -39.3619  -11.5952 C   0  0  0  0  0  0  0  0  0  0  0  0
  -13.5212  -38.2895  -12.4432 C   0  0  0  0  0  0  0  0  0  0  0  0
  -13.0660  -38.7131  -13.6818 C   0  0  0  0  0  0  0  0  0  0  0  0
  -12.9991  -37.9049  -14.9430 C   0  0  0  0  0  0  0  0  0  0  0  0
  -11.6252  -37.2959  -15.1278 C   0  0  0  0  0  0  0  0  0  0  0  0
  -11.1881  -36.5027  -13.9239 C   0  0  0  0  0  0  0  0  0  0  0  0
  -11.6658  -36.4449  -16.3792 C   0  0  0  0  0  0  0  0  0  0  0  0
  -10.6605  -38.4549  -15.3116 C   0  0  0  0  0  0  0  0  0  0  0  0
  -12.7079  -39.9494  -13.5390 O   0  0  0  0  0  0  0  0  0  0  0  0
  -12.8891  -40.3673  -12.3194 N   0  0  0  0  0  0  0  0  0  0  0  0
  2  1  1  1
  2  3  1  0
  3  4  1  0
  4  5  1  0
  5  6  1  0
  6  7  1  0
  7  8  1  0
  8  9  1  0
  9 10  1  0
 10 11  1  0
 11 12  2  0
 11 13  1  0
 13 14  1  0
 13 15  1  0
 15 16  1  6
 15 17  1  0
 17 18  2  0
 17 19  1  0
 19 20  1  0
 20 21  1  1
 20 22  1  0
 22 23  1  1
 22 24  1  0
 24 25  1  0
 25 26  1  0
 26 27  1  0
 27 28  1  0
 28 29  2  0
 29 30  1  0
 30 31  1  0
 31 32  1  0
 31 33  1  0
 31 34  1  0
 29 35  1  0
 35 36  1  0
 21  2  1  0
 36 27  2  0
M  END
$$$$
