
     RDKit          3D

 36 37  0  0  0  0  0  0  0  0999 V2000
  -19.6999  -36.8907   -6.5321 C   0  0  0  0  0  0  0  0  0  0  0  0
  -19.2396  -37.8613   -7.5977 C   0  0  2  0  0  0  0  0  0  0  0  0
  -20.2658  -38.9254   -7.7703 C   0  0  0  0  0  0  0  0  0  0  0  0
  -21.6580  -38.3027   -7.7249 C   0  0  0  0  0  0  0  0  0  0  0  0
  -22.6953  -39.2506   -8.2774 C   0  0  0  0  0  0  0  0  0  0  0  0
  -23.5753  -39.8672   -7.2118 C   0  0  0  0  0  0  0  0  0  0  0  0
  -23.4470  -41.3722   -7.2807 C   0  0  0  0  0  0  0  0  0  0  0  0
  -22.6835  -41.8550   -6.0812 C   0  0  0  0  0  0  0  0  0  0  0  0
  -22.2829  -43.2833   -6.0994 C   0  0  0  0  0  0  0  0  0  0  0  0
  -21.7038  -43.8019   -7.3691 C   0  0  0  0  0  0  0  0  0  0  0  0
  -20.4499  -44.5946   -7.1918 C   0  0  0  0  0  0  0  0  0  0  0  0
  -20.5263  -45.8668   -7.4101 O   0  0  0  0  0  0  0  0  0  0  0  0
  -19.1986  -44.1009   -6.8124 N   0  0  0  0  0  0  0  0  0  0  0  0
  -18.5132  -44.7785   -5.6948 C   0  0  0  0  0  0  0  0  0  0  0  0
  -18.4643  -42.9801   -7.4000 C   0  0  1  0  0  0  0  0  0  0  0  0
  -19.0193  -42.5418   -8.7066 C   0  0  0  0  0  0  0  0  0  0  0  0
  -18.4709  -41.8672   -6.4570 C   0  0  0  0  0  0  0  0  0  0  0  0
  -19.2208  -41.9722   -5.4240 O   0  0  0  0  0  0  0  0  0  0  0  0
  -17.7384  -40.6986   -6.5701 N   0  0  0  0  0  0  0  0  0  0  0  0
  -17.5878  -39.7809   -7.6550 C   0  0  1  0  0  0  0  0  0  0  0  0
  -17.8776  -38.3598   -7.2226 C   0  0  0  0  0  0  0  0  0  0  0  0
  -16.1334  -39.8413   -8.1040 C   0  0  2  0  0  0  0  0  0  0  0  0
  -15.3206  -39.3011   -7.1169 O   0  0  0  0  0  0  0  0  0  0  0  0
  -15.8900  -39.1690   -9.3960 C   0  0  0  0  0  0  0  0  0  0  0  0
  -15.7721  -40.1119  -10.4629 N   0  0  0  0  0  0  0  0  0  0  0  0
  -14.4846  -40.6534  -10.7274 C   0  0  0  0  0  0  0  0  0  0  0  0
  -13.6795  -39.5904  -11.4288 C   0  0  0  0  0  0  0  0  0  0  0  0
  -14.1689  -38.4051  -11.9185 C   0  0  0  0  0  0  0  0  0  0  0  0
  -13.0926  -37.7375  -12.4812 C   0  0  0  0  0  0  0  0  0  0  0  0
  -13.1128  -36.3955  -13.1497 C   0  0  0  0  0  0  0  0  0  0  0  0
  -12.2667  -35.3955  -12.3903 C   0  0  0  0  0  0  0  0  0  0  0  0
  -10.8047  -35.7585  -12.4069 C   0  0  0  0  0  0  0  0  0  0  0  0
  -12.8109  -35.3121  -10.9800 C   0  0  0  0  0  0  0  0  0  0  0  0
  -12.4353  -34.0620  -13.0982 C   0  0  0  0  0  0  0  0  0  0  0  0
  -12.0598  -38.5014  -12.3177 O   0  0  0  0  0  0  0  0  0  0  0  0
  -12.3677  -39.6049  -11.6994 N   0  0  0  0  0  0  0  0  0  0  0  0
  2  1  1  1
  2  3  1  0
  3  4  1  0
  4  5  1  0
  5  6  1  0
  6  7  1  0
  7  8  1  0
  8  9  1  0
  9 10  1  0
 10 11  1  0
 11 12  2  0
 11 13  1  0
 13 14  1  0
 13 15  1  0
 15 16  1  6
 15 17  1  0
 17 18  2  0
 17 19  1  0
 19 20  1  0
 20 21  1  1
 20 22  1  0
 22 23  1  1
 22 24  1  0
 24 25  1  0
 25 26  1  0
 26 27  1  0
 27 28  1  0
 28 29  2  0
 29 30  1  0
 30 31  1  0
 31 32  1  0
 31 33  1  0
 31 34  1  0
 29 35  1  0
 35 36  1  0
 21  2  1  0
 36 27  2  0
M  END
$$$$
