
     RDKit          3D

 36 37  0  0  0  0  0  0  0  0999 V2000
  -19.8536  -37.1684   -6.4556 C   0  0  0  0  0  0  0  0  0  0  0  0
  -19.4879  -38.0827   -7.6044 C   0  0  2  0  0  0  0  0  0  0  0  0
  -20.4463  -39.2206   -7.6518 C   0  0  0  0  0  0  0  0  0  0  0  0
  -21.8582  -38.7089   -7.3824 C   0  0  0  0  0  0  0  0  0  0  0  0
  -22.8933  -39.7255   -7.8004 C   0  0  0  0  0  0  0  0  0  0  0  0
  -23.5545  -40.4261   -6.6332 C   0  0  0  0  0  0  0  0  0  0  0  0
  -23.3262  -41.9152   -6.7622 C   0  0  0  0  0  0  0  0  0  0  0  0
  -22.3569  -42.3565   -5.7037 C   0  0  0  0  0  0  0  0  0  0  0  0
  -21.8583  -43.7488   -5.8210 C   0  0  0  0  0  0  0  0  0  0  0  0
  -21.4401  -44.2000   -7.1766 C   0  0  0  0  0  0  0  0  0  0  0  0
  -20.1182  -44.8955   -7.2100 C   0  0  0  0  0  0  0  0  0  0  0  0
  -20.1316  -46.1661   -7.4498 O   0  0  0  0  0  0  0  0  0  0  0  0
  -18.8643  -44.3122   -7.0076 N   0  0  0  0  0  0  0  0  0  0  0  0
  -17.9698  -44.9525   -6.0238 C   0  0  0  0  0  0  0  0  0  0  0  0
  -18.3124  -43.1282   -7.6666 C   0  0  1  0  0  0  0  0  0  0  0  0
  -19.0890  -42.7132   -8.8633 C   0  0  0  0  0  0  0  0  0  0  0  0
  -18.2599  -42.0347   -6.7026 C   0  0  0  0  0  0  0  0  0  0  0  0
  -18.8357  -42.2146   -5.5727 O   0  0  0  0  0  0  0  0  0  0  0  0
  -17.6419  -40.8109   -6.8909 N   0  0  0  0  0  0  0  0  0  0  0  0
  -17.7252  -39.8668   -7.9602 C   0  0  1  0  0  0  0  0  0  0  0  0
  -18.0516  -38.4797   -7.4502 C   0  0  0  0  0  0  0  0  0  0  0  0
  -16.3546  -39.8064   -8.6223 C   0  0  2  0  0  0  0  0  0  0  0  0
  -16.0311  -38.4851   -8.8991 O   0  0  0  0  0  0  0  0  0  0  0  0
  -16.2576  -40.6271   -9.8460 C   0  0  0  0  0  0  0  0  0  0  0  0
  -14.9470  -41.1721  -10.0085 N   0  0  0  0  0  0  0  0  0  0  0  0
  -14.5695  -41.6103  -11.3071 C   0  0  0  0  0  0  0  0  0  0  0  0
  -13.8249  -40.4804  -11.9698 C   0  0  0  0  0  0  0  0  0  0  0  0
  -13.0280  -39.5617  -11.3330 C   0  0  0  0  0  0  0  0  0  0  0  0
  -12.5477  -38.7099  -12.3152 C   0  0  0  0  0  0  0  0  0  0  0  0
  -11.6333  -37.5371  -12.1238 C   0  0  0  0  0  0  0  0  0  0  0  0
  -12.3554  -36.2335  -12.3917 C   0  0  0  0  0  0  0  0  0  0  0  0
  -11.5532  -35.0375  -11.9492 C   0  0  0  0  0  0  0  0  0  0  0  0
  -13.6975  -36.3014  -11.6946 C   0  0  0  0  0  0  0  0  0  0  0  0
  -12.5485  -36.1484  -13.8961 C   0  0  0  0  0  0  0  0  0  0  0  0
  -13.0444  -39.1247  -13.4369 O   0  0  0  0  0  0  0  0  0  0  0  0
  -13.8040  -40.1691  -13.2724 N   0  0  0  0  0  0  0  0  0  0  0  0
  2  1  1  1
  2  3  1  0
  3  4  1  0
  4  5  1  0
  5  6  1  0
  6  7  1  0
  7  8  1  0
  8  9  1  0
  9 10  1  0
 10 11  1  0
 11 12  2  0
 11 13  1  0
 13 14  1  0
 13 15  1  0
 15 16  1  6
 15 17  1  0
 17 18  2  0
 17 19  1  0
 19 20  1  0
 20 21  1  1
 20 22  1  0
 22 23  1  6
 22 24  1  0
 24 25  1  0
 25 26  1  0
 26 27  1  0
 27 28  1  0
 28 29  2  0
 29 30  1  0
 30 31  1  0
 31 32  1  0
 31 33  1  0
 31 34  1  0
 29 35  1  0
 35 36  1  0
 21  2  1  0
 36 27  2  0
M  END
$$$$
