
     RDKit          3D

 36 37  0  0  0  0  0  0  0  0999 V2000
  -16.0453  -35.4944  -10.6453 C   0  0  0  0  0  0  0  0  0  0  0  0
  -15.0973  -36.3662   -9.8511 C   0  0  2  0  0  0  0  0  0  0  0  0
  -13.9567  -36.7694  -10.7182 C   0  0  0  0  0  0  0  0  0  0  0  0
  -13.5167  -35.5802  -11.5668 C   0  0  0  0  0  0  0  0  0  0  0  0
  -12.1469  -35.8120  -12.1581 C   0  0  0  0  0  0  0  0  0  0  0  0
  -12.1745  -36.1122  -13.6412 C   0  0  0  0  0  0  0  0  0  0  0  0
  -11.5338  -37.4608  -13.8803 C   0  0  0  0  0  0  0  0  0  0  0  0
  -12.5971  -38.4468  -14.2704 C   0  0  0  0  0  0  0  0  0  0  0  0
  -12.1725  -39.8668  -14.3340 C   0  0  0  0  0  0  0  0  0  0  0  0
  -11.3388  -40.3692  -13.2075 C   0  0  0  0  0  0  0  0  0  0  0  0
  -11.7910  -41.6783  -12.6471 C   0  0  0  0  0  0  0  0  0  0  0  0
  -11.0349  -42.7031  -12.8712 O   0  0  0  0  0  0  0  0  0  0  0  0
  -12.9515  -41.9102  -11.9034 N   0  0  0  0  0  0  0  0  0  0  0  0
  -13.8282  -43.0133  -12.3418 C   0  0  0  0  0  0  0  0  0  0  0  0
  -13.4118  -41.1882  -10.7170 C   0  0  1  0  0  0  0  0  0  0  0  0
  -12.3634  -40.3209  -10.1203 C   0  0  0  0  0  0  0  0  0  0  0  0
  -14.5766  -40.3871  -11.0762 C   0  0  0  0  0  0  0  0  0  0  0  0
  -14.8747  -40.3014  -12.3189 O   0  0  0  0  0  0  0  0  0  0  0  0
  -15.3996  -39.7052  -10.1970 N   0  0  0  0  0  0  0  0  0  0  0  0
  -15.0993  -38.7963   -9.1362 C   0  0  1  0  0  0  0  0  0  0  0  0
  -15.8791  -37.5066   -9.2744 C   0  0  0  0  0  0  0  0  0  0  0  0
  -15.5277  -39.4595   -7.8334 C   0  0  2  0  0  0  0  0  0  0  0  0
  -14.4132  -39.6741   -7.0340 O   0  0  0  0  0  0  0  0  0  0  0  0
  -16.2683  -40.7212   -8.0332 C   0  0  0  0  0  0  0  0  0  0  0  0
  -17.6506  -40.5749   -7.7030 N   0  0  0  0  0  0  0  0  0  0  0  0
  -18.4977  -41.7012   -7.8894 C   0  0  0  0  0  0  0  0  0  0  0  0
  -19.9144  -41.2500   -7.6449 C   0  0  0  0  0  0  0  0  0  0  0  0
  -20.2989  -40.2264   -6.8150 C   0  0  0  0  0  0  0  0  0  0  0  0
  -21.6811  -40.1580   -6.8892 C   0  0  0  0  0  0  0  0  0  0  0  0
  -22.5772  -39.2000   -6.1629 C   0  0  0  0  0  0  0  0  0  0  0  0
  -23.5885  -39.9383   -5.3114 C   0  0  0  0  0  0  0  0  0  0  0  0
  -22.9326  -40.8983   -4.3534 C   0  0  0  0  0  0  0  0  0  0  0  0
  -24.5481  -40.6425   -6.2468 C   0  0  0  0  0  0  0  0  0  0  0  0
  -24.3230  -38.8834   -4.5018 C   0  0  0  0  0  0  0  0  0  0  0  0
  -22.0518  -41.0872   -7.7115 O   0  0  0  0  0  0  0  0  0  0  0  0
  -21.0353  -41.7530   -8.1786 N   0  0  0  0  0  0  0  0  0  0  0  0
  2  1  1  6
  2  3  1  0
  3  4  1  0
  4  5  1  0
  5  6  1  0
  6  7  1  0
  7  8  1  0
  8  9  1  0
  9 10  1  0
 10 11  1  0
 11 12  2  0
 11 13  1  0
 13 14  1  0
 13 15  1  0
 15 16  1  6
 15 17  1  0
 17 18  2  0
 17 19  1  0
 19 20  1  0
 20 21  1  6
 20 22  1  0
 22 23  1  1
 22 24  1  0
 24 25  1  0
 25 26  1  0
 26 27  1  0
 27 28  1  0
 28 29  2  0
 29 30  1  0
 30 31  1  0
 31 32  1  0
 31 33  1  0
 31 34  1  0
 29 35  1  0
 35 36  1  0
 21  2  1  0
 36 27  2  0
M  END
$$$$
