
     RDKit          3D

 36 37  0  0  0  0  0  0  0  0999 V2000
  -19.7182  -37.0908   -6.2893 C   0  0  0  0  0  0  0  0  0  0  0  0
  -19.5021  -37.9720   -7.5001 C   0  0  2  0  0  0  0  0  0  0  0  0
  -20.6030  -38.9702   -7.5848 C   0  0  0  0  0  0  0  0  0  0  0  0
  -21.9287  -38.2966   -7.2434 C   0  0  0  0  0  0  0  0  0  0  0  0
  -23.0980  -39.1418   -7.6885 C   0  0  0  0  0  0  0  0  0  0  0  0
  -23.8195  -39.8211   -6.5446 C   0  0  0  0  0  0  0  0  0  0  0  0
  -23.7926  -41.3164   -6.7672 C   0  0  0  0  0  0  0  0  0  0  0  0
  -22.8665  -41.9449   -5.7661 C   0  0  0  0  0  0  0  0  0  0  0  0
  -22.5587  -43.3803   -5.9795 C   0  0  0  0  0  0  0  0  0  0  0  0
  -22.2340  -43.7975   -7.3712 C   0  0  0  0  0  0  0  0  0  0  0  0
  -21.0165  -44.6559   -7.4852 C   0  0  0  0  0  0  0  0  0  0  0  0
  -21.2027  -45.8966   -7.7983 O   0  0  0  0  0  0  0  0  0  0  0  0
  -19.6924  -44.2546   -7.2871 N   0  0  0  0  0  0  0  0  0  0  0  0
  -18.8685  -45.0656   -6.3700 C   0  0  0  0  0  0  0  0  0  0  0  0
  -19.0041  -43.1141   -7.8923 C   0  0  1  0  0  0  0  0  0  0  0  0
  -19.7457  -42.5283   -9.0387 C   0  0  0  0  0  0  0  0  0  0  0  0
  -18.7863  -42.0985   -6.8682 C   0  0  0  0  0  0  0  0  0  0  0  0
  -19.3554  -42.2713   -5.7338 O   0  0  0  0  0  0  0  0  0  0  0  0
  -18.0166  -40.9564   -7.0034 N   0  0  0  0  0  0  0  0  0  0  0  0
  -17.9985  -39.9451   -8.0127 C   0  0  1  0  0  0  0  0  0  0  0  0
  -18.1277  -38.5616   -7.4129 C   0  0  0  0  0  0  0  0  0  0  0  0
  -16.6471  -40.0231   -8.7113 C   0  0  2  0  0  0  0  0  0  0  0  0
  -15.9865  -38.8093   -8.5798 O   0  0  0  0  0  0  0  0  0  0  0  0
  -16.7436  -40.4049  -10.1345 C   0  0  0  0  0  0  0  0  0  0  0  0
  -15.6853  -41.2868  -10.5130 N   0  0  0  0  0  0  0  0  0  0  0  0
  -14.3584  -40.9163  -10.1624 C   0  0  0  0  0  0  0  0  0  0  0  0
  -13.9119  -39.8531  -11.1321 C   0  0  0  0  0  0  0  0  0  0  0  0
  -13.9725  -38.4980  -10.9215 C   0  0  0  0  0  0  0  0  0  0  0  0
  -13.4637  -37.8993  -12.0632 C   0  0  0  0  0  0  0  0  0  0  0  0
  -13.3184  -36.4297  -12.3229 C   0  0  0  0  0  0  0  0  0  0  0  0
  -11.9005  -36.0853  -12.7275 C   0  0  0  0  0  0  0  0  0  0  0  0
  -11.7569  -34.6381  -13.1209 C   0  0  0  0  0  0  0  0  0  0  0  0
  -11.5059  -37.0173  -13.8532 C   0  0  0  0  0  0  0  0  0  0  0  0
  -11.0306  -36.3367  -11.5078 C   0  0  0  0  0  0  0  0  0  0  0  0
  -13.1365  -38.8599  -12.8676 O   0  0  0  0  0  0  0  0  0  0  0  0
  -13.3865  -40.0288  -12.3517 N   0  0  0  0  0  0  0  0  0  0  0  0
  2  1  1  1
  2  3  1  0
  3  4  1  0
  4  5  1  0
  5  6  1  0
  6  7  1  0
  7  8  1  0
  8  9  1  0
  9 10  1  0
 10 11  1  0
 11 12  2  0
 11 13  1  0
 13 14  1  0
 13 15  1  0
 15 16  1  6
 15 17  1  0
 17 18  2  0
 17 19  1  0
 19 20  1  0
 20 21  1  1
 20 22  1  0
 22 23  1  6
 22 24  1  0
 24 25  1  0
 25 26  1  0
 26 27  1  0
 27 28  1  0
 28 29  2  0
 29 30  1  0
 30 31  1  0
 31 32  1  0
 31 33  1  0
 31 34  1  0
 29 35  1  0
 35 36  1  0
 21  2  1  0
 36 27  2  0
M  END
$$$$
