
     RDKit          3D

 36 37  0  0  0  0  0  0  0  0999 V2000
  -20.4078  -37.1663   -6.2145 C   0  0  0  0  0  0  0  0  0  0  0  0
  -19.8329  -38.0602   -7.2914 C   0  0  2  0  0  0  0  0  0  0  0  0
  -20.8043  -39.1447   -7.6008 C   0  0  0  0  0  0  0  0  0  0  0  0
  -22.2172  -38.5695   -7.6313 C   0  0  0  0  0  0  0  0  0  0  0  0
  -23.1748  -39.5168   -8.3135 C   0  0  0  0  0  0  0  0  0  0  0  0
  -24.1112  -40.2199   -7.3548 C   0  0  0  0  0  0  0  0  0  0  0  0
  -23.9244  -41.7139   -7.4943 C   0  0  0  0  0  0  0  0  0  0  0  0
  -23.2381  -42.2393   -6.2664 C   0  0  0  0  0  0  0  0  0  0  0  0
  -22.7866  -43.6510   -6.3300 C   0  0  0  0  0  0  0  0  0  0  0  0
  -22.0940  -44.0787   -7.5764 C   0  0  0  0  0  0  0  0  0  0  0  0
  -20.8298  -44.8404   -7.3443 C   0  0  0  0  0  0  0  0  0  0  0  0
  -20.8438  -46.1001   -7.6360 O   0  0  0  0  0  0  0  0  0  0  0  0
  -19.6296  -44.3299   -6.8420 N   0  0  0  0  0  0  0  0  0  0  0  0
  -19.0079  -45.0476   -5.7122 C   0  0  0  0  0  0  0  0  0  0  0  0
  -18.8929  -43.1552   -7.3091 C   0  0  1  0  0  0  0  0  0  0  0  0
  -19.3617  -42.6617   -8.6298 C   0  0  0  0  0  0  0  0  0  0  0  0
  -19.0114  -42.0980   -6.3111 C   0  0  0  0  0  0  0  0  0  0  0  0
  -19.8338  -42.2846   -5.3471 O   0  0  0  0  0  0  0  0  0  0  0  0
  -18.3145  -40.9025   -6.3034 N   0  0  0  0  0  0  0  0  0  0  0  0
  -18.1142  -39.9208   -7.3222 C   0  0  1  0  0  0  0  0  0  0  0  0
  -18.4867  -38.5361   -6.8381 C   0  0  0  0  0  0  0  0  0  0  0  0
  -16.6285  -39.9101   -7.6586 C   0  0  2  0  0  0  0  0  0  0  0  0
  -16.0811  -38.6854   -7.3014 O   0  0  0  0  0  0  0  0  0  0  0  0
  -16.3461  -40.2059   -9.0774 C   0  0  0  0  0  0  0  0  0  0  0  0
  -15.0985  -39.6458   -9.4908 N   0  0  0  0  0  0  0  0  0  0  0  0
  -14.5406  -40.1053  -10.7149 C   0  0  0  0  0  0  0  0  0  0  0  0
  -13.3885  -39.1972  -11.0589 C   0  0  0  0  0  0  0  0  0  0  0  0
  -13.4216  -38.1666  -11.9651 C   0  0  0  0  0  0  0  0  0  0  0  0
  -12.1550  -37.6042  -11.9676 C   0  0  0  0  0  0  0  0  0  0  0  0
  -11.6844  -36.4447  -12.7936 C   0  0  0  0  0  0  0  0  0  0  0  0
  -10.9593  -36.9187  -14.0354 C   0  0  0  0  0  0  0  0  0  0  0  0
   -9.8689  -37.9077  -13.7148 C   0  0  0  0  0  0  0  0  0  0  0  0
  -10.4199  -35.6957  -14.7462 C   0  0  0  0  0  0  0  0  0  0  0  0
  -11.9956  -37.6151  -14.9009 C   0  0  0  0  0  0  0  0  0  0  0  0
  -11.4518  -38.2778  -11.1139 O   0  0  0  0  0  0  0  0  0  0  0  0
  -12.1471  -39.2270  -10.5568 N   0  0  0  0  0  0  0  0  0  0  0  0
  2  1  1  1
  2  3  1  0
  3  4  1  0
  4  5  1  0
  5  6  1  0
  6  7  1  0
  7  8  1  0
  8  9  1  0
  9 10  1  0
 10 11  1  0
 11 12  2  0
 11 13  1  0
 13 14  1  0
 13 15  1  0
 15 16  1  6
 15 17  1  0
 17 18  2  0
 17 19  1  0
 19 20  1  0
 20 21  1  1
 20 22  1  0
 22 23  1  6
 22 24  1  0
 24 25  1  0
 25 26  1  0
 26 27  1  0
 27 28  1  0
 28 29  2  0
 29 30  1  0
 30 31  1  0
 31 32  1  0
 31 33  1  0
 31 34  1  0
 29 35  1  0
 35 36  1  0
 21  2  1  0
 36 27  2  0
M  END
$$$$
