
     RDKit          3D

 36 37  0  0  0  0  0  0  0  0999 V2000
  -18.9443  -35.9498   -7.7677 C   0  0  0  0  0  0  0  0  0  0  0  0
  -18.6809  -37.1836   -8.6030 C   0  0  2  0  0  0  0  0  0  0  0  0
  -19.8429  -38.1076   -8.4955 C   0  0  0  0  0  0  0  0  0  0  0  0
  -21.1389  -37.3038   -8.5428 C   0  0  0  0  0  0  0  0  0  0  0  0
  -22.3218  -38.1968   -8.8311 C   0  0  0  0  0  0  0  0  0  0  0  0
  -23.2019  -38.4383   -7.6238 C   0  0  0  0  0  0  0  0  0  0  0  0
  -23.2702  -39.9249   -7.3567 C   0  0  0  0  0  0  0  0  0  0  0  0
  -22.4979  -40.2348   -6.1068 C   0  0  0  0  0  0  0  0  0  0  0  0
  -22.2837  -41.6740   -5.8171 C   0  0  0  0  0  0  0  0  0  0  0  0
  -21.8588  -42.5321   -6.9569 C   0  0  0  0  0  0  0  0  0  0  0  0
  -20.7067  -43.4324   -6.6497 C   0  0  0  0  0  0  0  0  0  0  0  0
  -20.9580  -44.6986   -6.5733 O   0  0  0  0  0  0  0  0  0  0  0  0
  -19.3809  -43.0456   -6.4352 N   0  0  0  0  0  0  0  0  0  0  0  0
  -18.7159  -43.5508   -5.2185 C   0  0  0  0  0  0  0  0  0  0  0  0
  -18.5501  -42.1925   -7.2854 C   0  0  1  0  0  0  0  0  0  0  0  0
  -19.1287  -41.9778   -8.6369 C   0  0  0  0  0  0  0  0  0  0  0  0
  -18.3543  -40.9106   -6.6175 C   0  0  0  0  0  0  0  0  0  0  0  0
  -19.0427  -40.6829   -5.5617 O   0  0  0  0  0  0  0  0  0  0  0  0
  -17.4883  -39.9076   -7.0162 N   0  0  0  0  0  0  0  0  0  0  0  0
  -17.2933  -39.2788   -8.2844 C   0  0  1  0  0  0  0  0  0  0  0  0
  -17.3717  -37.7714   -8.1731 C   0  0  0  0  0  0  0  0  0  0  0  0
  -15.8905  -39.6360   -8.7590 C   0  0  2  0  0  0  0  0  0  0  0  0
  -15.7275  -39.2249  -10.0749 O   0  0  0  0  0  0  0  0  0  0  0  0
  -15.5742  -41.0722   -8.6257 C   0  0  0  0  0  0  0  0  0  0  0  0
  -14.6875  -41.3137   -7.5318 N   0  0  0  0  0  0  0  0  0  0  0  0
  -13.3596  -40.8167   -7.6348 C   0  0  0  0  0  0  0  0  0  0  0  0
  -12.8089  -41.2631   -8.9643 C   0  0  0  0  0  0  0  0  0  0  0  0
  -12.3672  -40.4376   -9.9682 C   0  0  0  0  0  0  0  0  0  0  0  0
  -11.9517  -41.2624  -11.0015 C   0  0  0  0  0  0  0  0  0  0  0  0
  -11.3862  -40.8371  -12.3235 C   0  0  0  0  0  0  0  0  0  0  0  0
  -12.3185  -41.2043  -13.4587 C   0  0  0  0  0  0  0  0  0  0  0  0
  -11.7310  -42.2605  -14.3582 C   0  0  0  0  0  0  0  0  0  0  0  0
  -12.6405  -39.9340  -14.2165 C   0  0  0  0  0  0  0  0  0  0  0  0
  -13.5760  -41.7678  -12.8192 C   0  0  0  0  0  0  0  0  0  0  0  0
  -12.1477  -42.4787  -10.6028 O   0  0  0  0  0  0  0  0  0  0  0  0
  -12.6528  -42.5188   -9.4036 N   0  0  0  0  0  0  0  0  0  0  0  0
  2  1  1  1
  2  3  1  0
  3  4  1  0
  4  5  1  0
  5  6  1  0
  6  7  1  0
  7  8  1  0
  8  9  1  0
  9 10  1  0
 10 11  1  0
 11 12  2  0
 11 13  1  0
 13 14  1  0
 13 15  1  0
 15 16  1  6
 15 17  1  0
 17 18  2  0
 17 19  1  0
 19 20  1  0
 20 21  1  1
 20 22  1  0
 22 23  1  6
 22 24  1  0
 24 25  1  0
 25 26  1  0
 26 27  1  0
 27 28  1  0
 28 29  2  0
 29 30  1  0
 30 31  1  0
 31 32  1  0
 31 33  1  0
 31 34  1  0
 29 35  1  0
 35 36  1  0
 21  2  1  0
 36 27  2  0
M  END
$$$$
