
     RDKit          3D

 45 49  0  0  0  0  0  0  0  0999 V2000
  -17.7961  -43.7768   -1.6574 C   0  0  0  0  0  0  0  0  0  0  0  0
  -18.6209  -44.1432   -2.7081 O   0  0  0  0  0  0  0  0  0  0  0  0
  -19.7637  -43.3698   -2.7543 C   0  0  0  0  0  0  0  0  0  0  0  0
  -20.0496  -42.9824   -4.1537 C   0  0  0  0  0  0  0  0  0  0  0  0
  -21.0851  -43.5336   -4.8635 C   0  0  0  0  0  0  0  0  0  0  0  0
  -21.3857  -43.1707   -6.2008 C   0  0  0  0  0  0  0  0  0  0  0  0
  -20.6273  -42.2231   -6.8563 C   0  0  0  0  0  0  0  0  0  0  0  0
  -19.5785  -41.6482   -6.1722 C   0  0  0  0  0  0  0  0  0  0  0  0
  -19.3198  -42.0496   -4.8294 C   0  0  0  0  0  0  0  0  0  0  0  0
  -18.6079  -40.6131   -6.5753 C   0  0  0  0  0  0  0  0  0  0  0  0
  -18.1688  -39.7858   -5.6344 O   0  0  0  0  0  0  0  0  0  0  0  0
  -17.9919  -40.2681   -7.7997 N   0  0  0  0  0  0  0  0  0  0  0  0
  -18.6782  -40.0263   -9.0617 C   0  0  1  0  0  0  0  0  0  0  0  0
  -19.5284  -38.7769   -9.0580 C   0  0  0  0  0  0  0  0  0  0  0  0
  -20.8716  -38.9515   -8.4099 C   0  0  0  0  0  0  0  0  0  0  0  0
  -22.0013  -39.5662   -8.8828 C   0  0  0  0  0  0  0  0  0  0  0  0
  -23.1126  -39.6112   -8.0537 C   0  0  0  0  0  0  0  0  0  0  0  0
  -23.0636  -39.0319   -6.7657 C   0  0  0  0  0  0  0  0  0  0  0  0
  -21.9465  -38.4094   -6.2674 C   0  0  0  0  0  0  0  0  0  0  0  0
  -20.8715  -38.3879   -7.1140 C   0  0  0  0  0  0  0  0  0  0  0  0
  -24.3558  -40.1666   -8.2808 O   0  0  0  0  0  0  0  0  0  0  0  0
  -24.8795  -41.4057   -8.5874 C   0  0  0  0  0  0  0  0  0  0  0  0
  -24.3750  -42.5670   -7.8033 C   0  0  0  0  0  0  0  0  0  0  0  0
  -23.6998  -43.6119   -8.6621 C   0  0  0  0  0  0  0  0  0  0  0  0
  -22.8535  -44.5822   -7.8625 C   0  0  0  0  0  0  0  0  0  0  0  0
  -22.5246  -43.9317   -6.6180 N   0  0  0  0  0  0  0  0  0  0  0  0
  -17.6728  -39.9410  -10.1871 C   0  0  2  0  0  0  0  0  0  0  0  0
  -18.2877  -39.7527  -11.4144 O   0  0  0  0  0  0  0  0  0  0  0  0
  -16.8559  -41.1985  -10.2109 C   0  0  0  0  0  0  0  0  0  0  0  0
  -15.6289  -41.0600   -9.4380 N   0  0  0  0  0  0  0  0  0  0  0  0
  -15.5938  -39.6980   -8.9436 C   0  0  1  0  0  0  0  0  0  0  0  0
  -14.3338  -39.5220   -8.1196 C   0  0  0  0  0  0  0  0  0  0  0  0
  -13.0767  -39.8003   -8.8862 C   0  0  0  0  0  0  0  0  0  0  0  0
  -12.5769  -41.1964   -8.7213 C   0  0  0  0  0  0  0  0  0  0  0  0
  -12.0075  -38.8431   -8.3918 C   0  0  0  0  0  0  0  0  0  0  0  0
  -13.2413  -39.5011  -10.2833 O   0  0  0  0  0  0  0  0  0  0  0  0
  -14.2694  -38.6501  -10.7029 C   0  0  0  0  0  0  0  0  0  0  0  0
  -14.1295  -37.7521  -11.7246 C   0  0  0  0  0  0  0  0  0  0  0  0
  -15.1834  -36.9160  -12.1163 C   0  0  0  0  0  0  0  0  0  0  0  0
  -16.3909  -36.9918  -11.4653 C   0  0  0  0  0  0  0  0  0  0  0  0
  -16.5474  -37.8906  -10.4352 C   0  0  0  0  0  0  0  0  0  0  0  0
  -15.4851  -38.7148  -10.0593 C   0  0  0  0  0  0  0  0  0  0  0  0
  -17.5492  -36.1130  -11.8431 C   0  0  0  0  0  0  0  0  0  0  0  0
  -18.8434  -36.6698  -11.3315 C   0  0  0  0  0  0  0  0  0  0  0  0
  -17.6022  -35.9361  -13.3453 C   0  0  0  0  0  0  0  0  0  0  0  0
  1  2  1  0
  2  3  1  0
  3  4  1  0
  4  5  2  0
  5  6  1  0
  6  7  2  0
  7  8  1  0
  8  9  2  0
  8 10  1  0
 10 11  2  0
 10 12  1  0
 12 13  1  0
 13 14  1  1
 14 15  1  0
 15 16  2  0
 16 17  1  0
 17 18  2  0
 18 19  1  0
 19 20  2  0
 17 21  1  0
 21 22  1  0
 22 23  1  0
 23 24  1  0
 24 25  1  0
 25 26  1  0
 13 27  1  0
 27 28  1  6
 27 29  1  0
 29 30  1  0
 31 30  1  6
 31 32  1  0
 32 33  1  0
 33 34  1  0
 33 35  1  0
 33 36  1  0
 36 37  1  0
 37 38  2  0
 38 39  1  0
 39 40  2  0
 40 41  1  0
 41 42  2  0
 40 43  1  0
 43 44  1  0
 43 45  1  0
  9  4  1  0
 20 15  1  0
 26  6  1  0
 42 37  1  0
 42 31  1  0
M  END
$$$$
