
     RDKit          3D

 45 49  0  0  0  0  0  0  0  0999 V2000
  -17.6441  -43.7234  -14.2637 C   0  0  0  0  0  0  0  0  0  0  0  0
  -16.4552  -43.0145  -14.3160 O   0  0  0  0  0  0  0  0  0  0  0  0
  -15.6505  -43.2853  -13.2271 C   0  0  0  0  0  0  0  0  0  0  0  0
  -15.4864  -42.0625  -12.4098 C   0  0  0  0  0  0  0  0  0  0  0  0
  -14.4347  -41.2020  -12.5922 C   0  0  0  0  0  0  0  0  0  0  0  0
  -14.2621  -40.0190  -11.8297 C   0  0  0  0  0  0  0  0  0  0  0  0
  -15.1708  -39.6795  -10.8490 C   0  0  0  0  0  0  0  0  0  0  0  0
  -16.2406  -40.5222  -10.6391 C   0  0  0  0  0  0  0  0  0  0  0  0
  -16.3662  -41.6987  -11.4336 C   0  0  0  0  0  0  0  0  0  0  0  0
  -17.3736  -40.4365   -9.6985 C   0  0  0  0  0  0  0  0  0  0  0  0
  -18.5394  -40.9307  -10.0975 O   0  0  0  0  0  0  0  0  0  0  0  0
  -17.5273  -39.9237   -8.3904 N   0  0  0  0  0  0  0  0  0  0  0  0
  -17.1388  -38.5923   -7.9449 C   0  0  1  0  0  0  0  0  0  0  0  0
  -17.9700  -37.4853   -8.5509 C   0  0  0  0  0  0  0  0  0  0  0  0
  -17.5530  -37.0958   -9.9398 C   0  0  0  0  0  0  0  0  0  0  0  0
  -16.4829  -36.3491  -10.3583 C   0  0  0  0  0  0  0  0  0  0  0  0
  -16.3133  -36.1633  -11.7225 C   0  0  0  0  0  0  0  0  0  0  0  0
  -17.2287  -36.7309  -12.6374 C   0  0  0  0  0  0  0  0  0  0  0  0
  -18.3090  -37.4816  -12.2462 C   0  0  0  0  0  0  0  0  0  0  0  0
  -18.4401  -37.6437  -10.8936 C   0  0  0  0  0  0  0  0  0  0  0  0
  -15.3307  -35.4686  -12.3988 O   0  0  0  0  0  0  0  0  0  0  0  0
  -13.9560  -35.4960  -12.5129 C   0  0  0  0  0  0  0  0  0  0  0  0
  -13.3200  -36.8269  -12.7190 C   0  0  0  0  0  0  0  0  0  0  0  0
  -12.3596  -37.2010  -11.6132 C   0  0  0  0  0  0  0  0  0  0  0  0
  -12.0142  -38.6766  -11.5999 C   0  0  0  0  0  0  0  0  0  0  0  0
  -13.0747  -39.3664  -12.2925 N   0  0  0  0  0  0  0  0  0  0  0  0
  -17.2209  -38.5086   -6.4380 C   0  0  2  0  0  0  0  0  0  0  0  0
  -15.9662  -38.4157   -5.8577 O   0  0  0  0  0  0  0  0  0  0  0  0
  -17.9375  -39.7193   -5.9181 C   0  0  0  0  0  0  0  0  0  0  0  0
  -19.3125  -39.7793   -6.3954 N   0  0  0  0  0  0  0  0  0  0  0  0
  -19.9164  -40.9517   -5.7943 C   0  0  1  0  0  0  0  0  0  0  0  0
  -21.0722  -40.4996   -4.9240 C   0  0  0  0  0  0  0  0  0  0  0  0
  -22.1202  -39.7357   -5.6746 C   0  0  0  0  0  0  0  0  0  0  0  0
  -21.9401  -38.2561   -5.6065 C   0  0  0  0  0  0  0  0  0  0  0  0
  -23.4705  -40.0858   -5.0764 C   0  0  0  0  0  0  0  0  0  0  0  0
  -22.1893  -40.1577   -7.0478 O   0  0  0  0  0  0  0  0  0  0  0  0
  -21.6709  -41.4004   -7.4275 C   0  0  0  0  0  0  0  0  0  0  0  0
  -22.2547  -42.1999   -8.3708 C   0  0  0  0  0  0  0  0  0  0  0  0
  -21.7050  -43.4392   -8.7246 C   0  0  0  0  0  0  0  0  0  0  0  0
  -20.5517  -43.8713   -8.1158 C   0  0  0  0  0  0  0  0  0  0  0  0
  -19.9522  -43.0781   -7.1646 C   0  0  0  0  0  0  0  0  0  0  0  0
  -20.5157  -41.8466   -6.8253 C   0  0  0  0  0  0  0  0  0  0  0  0
  -19.9265  -45.1945   -8.4553 C   0  0  0  0  0  0  0  0  0  0  0  0
  -20.9705  -46.2331   -8.7352 C   0  0  0  0  0  0  0  0  0  0  0  0
  -19.0150  -45.6443   -7.3338 C   0  0  0  0  0  0  0  0  0  0  0  0
  1  2  1  0
  2  3  1  0
  3  4  1  0
  4  5  2  0
  5  6  1  0
  6  7  2  0
  7  8  1  0
  8  9  2  0
  8 10  1  0
 10 11  2  0
 10 12  1  0
 12 13  1  0
 13 14  1  6
 14 15  1  0
 15 16  2  0
 16 17  1  0
 17 18  2  0
 18 19  1  0
 19 20  2  0
 17 21  1  0
 21 22  1  0
 22 23  1  0
 23 24  1  0
 24 25  1  0
 25 26  1  0
 13 27  1  0
 27 28  1  1
 27 29  1  0
 29 30  1  0
 31 30  1  6
 31 32  1  0
 32 33  1  0
 33 34  1  0
 33 35  1  0
 33 36  1  0
 36 37  1  0
 37 38  2  0
 38 39  1  0
 39 40  2  0
 40 41  1  0
 41 42  2  0
 40 43  1  0
 43 44  1  0
 43 45  1  0
  9  4  1  0
 20 15  1  0
 26  6  1  0
 42 37  1  0
 42 31  1  0
M  END
$$$$
