
     RDKit          3D

 45 49  0  0  0  0  0  0  0  0999 V2000
  -22.5848  -38.4960  -13.3516 C   0  0  0  0  0  0  0  0  0  0  0  0
  -21.7085  -39.4482  -12.8577 O   0  0  0  0  0  0  0  0  0  0  0  0
  -22.3784  -40.5066  -12.2768 C   0  0  0  0  0  0  0  0  0  0  0  0
  -21.8594  -40.7380  -10.9103 C   0  0  0  0  0  0  0  0  0  0  0  0
  -22.6920  -40.9742   -9.8469 C   0  0  0  0  0  0  0  0  0  0  0  0
  -22.2184  -41.2097   -8.5312 C   0  0  0  0  0  0  0  0  0  0  0  0
  -20.8650  -41.2105   -8.2641 C   0  0  0  0  0  0  0  0  0  0  0  0
  -19.9994  -40.9767   -9.3103 C   0  0  0  0  0  0  0  0  0  0  0  0
  -20.5286  -40.7454  -10.6132 C   0  0  0  0  0  0  0  0  0  0  0  0
  -18.5259  -40.9297   -9.3588 C   0  0  0  0  0  0  0  0  0  0  0  0
  -17.9364  -41.3443  -10.4737 O   0  0  0  0  0  0  0  0  0  0  0  0
  -17.5258  -40.5224   -8.4468 N   0  0  0  0  0  0  0  0  0  0  0  0
  -17.4033  -40.9610   -7.0631 C   0  0  1  0  0  0  0  0  0  0  0  0
  -17.0355  -42.4199   -6.9215 C   0  0  0  0  0  0  0  0  0  0  0  0
  -18.1950  -43.3618   -7.0727 C   0  0  0  0  0  0  0  0  0  0  0  0
  -19.2031  -43.6615   -6.1943 C   0  0  0  0  0  0  0  0  0  0  0  0
  -20.1784  -44.5584   -6.6050 C   0  0  0  0  0  0  0  0  0  0  0  0
  -20.1154  -45.1382   -7.8921 C   0  0  0  0  0  0  0  0  0  0  0  0
  -19.1172  -44.8572   -8.7912 C   0  0  0  0  0  0  0  0  0  0  0  0
  -18.1763  -43.9670   -8.3496 C   0  0  0  0  0  0  0  0  0  0  0  0
  -21.2882  -45.0205   -5.9266 O   0  0  0  0  0  0  0  0  0  0  0  0
  -22.4171  -44.4911   -5.3359 C   0  0  0  0  0  0  0  0  0  0  0  0
  -23.1732  -43.4707   -6.1138 C   0  0  0  0  0  0  0  0  0  0  0  0
  -23.2473  -42.1313   -5.4169 C   0  0  0  0  0  0  0  0  0  0  0  0
  -23.6567  -41.0022   -6.3412 C   0  0  0  0  0  0  0  0  0  0  0  0
  -23.3543  -41.4250   -7.6865 N   0  0  0  0  0  0  0  0  0  0  0  0
  -16.3766  -40.1167   -6.3437 C   0  0  2  0  0  0  0  0  0  0  0  0
  -16.6253  -40.0514   -4.9823 O   0  0  0  0  0  0  0  0  0  0  0  0
  -16.3778  -38.7368   -6.9315 C   0  0  0  0  0  0  0  0  0  0  0  0
  -15.7303  -38.7051   -8.2360 N   0  0  0  0  0  0  0  0  0  0  0  0
  -15.7148  -37.3208   -8.6652 C   0  0  1  0  0  0  0  0  0  0  0  0
  -14.4062  -37.0590   -9.3840 C   0  0  0  0  0  0  0  0  0  0  0  0
  -14.1916  -37.9457  -10.5727 C   0  0  0  0  0  0  0  0  0  0  0  0
  -13.3835  -39.1624  -10.2683 C   0  0  0  0  0  0  0  0  0  0  0  0
  -13.4661  -37.1370  -11.6327 C   0  0  0  0  0  0  0  0  0  0  0  0
  -15.4425  -38.3261  -11.1717 O   0  0  0  0  0  0  0  0  0  0  0  0
  -16.5967  -37.5751  -10.9245 C   0  0  0  0  0  0  0  0  0  0  0  0
  -17.5531  -37.3361  -11.8721 C   0  0  0  0  0  0  0  0  0  0  0  0
  -18.6966  -36.5785  -11.5861 C   0  0  0  0  0  0  0  0  0  0  0  0
  -18.8715  -36.0588  -10.3264 C   0  0  0  0  0  0  0  0  0  0  0  0
  -17.9180  -36.2907   -9.3618 C   0  0  0  0  0  0  0  0  0  0  0  0
  -16.7852  -37.0476   -9.6665 C   0  0  0  0  0  0  0  0  0  0  0  0
  -20.0765  -35.2348   -9.9715 C   0  0  0  0  0  0  0  0  0  0  0  0
  -21.3149  -35.7754  -10.6204 C   0  0  0  0  0  0  0  0  0  0  0  0
  -19.8557  -33.7903  -10.3658 C   0  0  0  0  0  0  0  0  0  0  0  0
  1  2  1  0
  2  3  1  0
  3  4  1  0
  4  5  2  0
  5  6  1  0
  6  7  2  0
  7  8  1  0
  8  9  2  0
  8 10  1  0
 10 11  2  0
 10 12  1  0
 12 13  1  0
 13 14  1  6
 14 15  1  0
 15 16  2  0
 16 17  1  0
 17 18  2  0
 18 19  1  0
 19 20  2  0
 17 21  1  0
 21 22  1  0
 22 23  1  0
 23 24  1  0
 24 25  1  0
 25 26  1  0
 13 27  1  0
 27 28  1  1
 27 29  1  0
 29 30  1  0
 31 30  1  6
 31 32  1  0
 32 33  1  0
 33 34  1  0
 33 35  1  0
 33 36  1  0
 36 37  1  0
 37 38  2  0
 38 39  1  0
 39 40  2  0
 40 41  1  0
 41 42  2  0
 40 43  1  0
 43 44  1  0
 43 45  1  0
  9  4  1  0
 20 15  1  0
 26  6  1  0
 42 37  1  0
 42 31  1  0
M  END
$$$$
