
     RDKit          3D

 45 49  0  0  0  0  0  0  0  0999 V2000
  -19.1296  -47.6983  -10.9248 C   0  0  0  0  0  0  0  0  0  0  0  0
  -18.9351  -46.4554  -10.3452 O   0  0  0  0  0  0  0  0  0  0  0  0
  -19.8094  -46.2369   -9.2991 C   0  0  0  0  0  0  0  0  0  0  0  0
  -19.9789  -44.7826   -9.0839 C   0  0  0  0  0  0  0  0  0  0  0  0
  -21.0472  -44.0918   -9.5953 C   0  0  0  0  0  0  0  0  0  0  0  0
  -21.2372  -42.7012   -9.3933 C   0  0  0  0  0  0  0  0  0  0  0  0
  -20.3300  -41.9708   -8.6542 C   0  0  0  0  0  0  0  0  0  0  0  0
  -19.2442  -42.6338   -8.1251 C   0  0  0  0  0  0  0  0  0  0  0  0
  -19.1010  -44.0324   -8.3587 C   0  0  0  0  0  0  0  0  0  0  0  0
  -18.1263  -42.1541   -7.2909 C   0  0  0  0  0  0  0  0  0  0  0  0
  -17.6213  -42.9984   -6.3995 O   0  0  0  0  0  0  0  0  0  0  0  0
  -17.4163  -40.9348   -7.2070 N   0  0  0  0  0  0  0  0  0  0  0  0
  -18.0078  -39.6113   -7.0640 C   0  0  1  0  0  0  0  0  0  0  0  0
  -18.6811  -39.3909   -5.7291 C   0  0  0  0  0  0  0  0  0  0  0  0
  -20.0627  -39.9717   -5.6362 C   0  0  0  0  0  0  0  0  0  0  0  0
  -21.2432  -39.5179   -6.1636 C   0  0  0  0  0  0  0  0  0  0  0  0
  -22.3856  -40.2744   -5.9470 C   0  0  0  0  0  0  0  0  0  0  0  0
  -22.3154  -41.4715   -5.1993 C   0  0  0  0  0  0  0  0  0  0  0  0
  -21.1475  -41.9486   -4.6589 C   0  0  0  0  0  0  0  0  0  0  0  0
  -20.0433  -41.1757   -4.8965 C   0  0  0  0  0  0  0  0  0  0  0  0
  -23.6812  -40.0484   -6.3665 O   0  0  0  0  0  0  0  0  0  0  0  0
  -24.3533  -39.8822   -7.5599 C   0  0  0  0  0  0  0  0  0  0  0  0
  -24.0447  -40.8479   -8.6510 C   0  0  0  0  0  0  0  0  0  0  0  0
  -23.4797  -40.1841   -9.8859 C   0  0  0  0  0  0  0  0  0  0  0  0
  -22.8078  -41.1601  -10.8308 C   0  0  0  0  0  0  0  0  0  0  0  0
  -22.4489  -42.3219  -10.0552 N   0  0  0  0  0  0  0  0  0  0  0  0
  -16.9519  -38.5497   -7.2703 C   0  0  2  0  0  0  0  0  0  0  0  0
  -17.5118  -37.3022   -7.4937 O   0  0  0  0  0  0  0  0  0  0  0  0
  -16.0865  -38.9383   -8.4319 C   0  0  0  0  0  0  0  0  0  0  0  0
  -15.1553  -40.0017   -8.0795 N   0  0  0  0  0  0  0  0  0  0  0  0
  -13.8667  -39.6334   -8.6313 C   0  0  1  0  0  0  0  0  0  0  0  0
  -12.9963  -40.8734   -8.6792 C   0  0  0  0  0  0  0  0  0  0  0  0
  -13.5838  -41.9826   -9.4977 C   0  0  0  0  0  0  0  0  0  0  0  0
  -14.3536  -42.9734   -8.6904 C   0  0  0  0  0  0  0  0  0  0  0  0
  -12.4430  -42.7059  -10.1900 C   0  0  0  0  0  0  0  0  0  0  0  0
  -14.4089  -41.4676  -10.5572 O   0  0  0  0  0  0  0  0  0  0  0  0
  -14.2593  -40.1435  -10.9835 C   0  0  0  0  0  0  0  0  0  0  0  0
  -14.3681  -39.7600  -12.2914 C   0  0  0  0  0  0  0  0  0  0  0  0
  -14.2118  -38.4228  -12.6797 C   0  0  0  0  0  0  0  0  0  0  0  0
  -13.9428  -37.4655  -11.7317 C   0  0  0  0  0  0  0  0  0  0  0  0
  -13.8305  -37.8357  -10.4111 C   0  0  0  0  0  0  0  0  0  0  0  0
  -13.9891  -39.1734  -10.0443 C   0  0  0  0  0  0  0  0  0  0  0  0
  -13.7602  -36.0199  -12.0975 C   0  0  0  0  0  0  0  0  0  0  0  0
  -14.5574  -35.6627  -13.3155 C   0  0  0  0  0  0  0  0  0  0  0  0
  -12.2930  -35.7174  -12.3136 C   0  0  0  0  0  0  0  0  0  0  0  0
  1  2  1  0
  2  3  1  0
  3  4  1  0
  4  5  2  0
  5  6  1  0
  6  7  2  0
  7  8  1  0
  8  9  2  0
  8 10  1  0
 10 11  2  0
 10 12  1  0
 12 13  1  0
 13 14  1  1
 14 15  1  0
 15 16  2  0
 16 17  1  0
 17 18  2  0
 18 19  1  0
 19 20  2  0
 17 21  1  0
 21 22  1  0
 22 23  1  0
 23 24  1  0
 24 25  1  0
 25 26  1  0
 13 27  1  0
 27 28  1  6
 27 29  1  0
 29 30  1  0
 31 30  1  6
 31 32  1  0
 32 33  1  0
 33 34  1  0
 33 35  1  0
 33 36  1  0
 36 37  1  0
 37 38  2  0
 38 39  1  0
 39 40  2  0
 40 41  1  0
 41 42  2  0
 40 43  1  0
 43 44  1  0
 43 45  1  0
  9  4  1  0
 20 15  1  0
 26  6  1  0
 42 37  1  0
 42 31  1  0
M  END
$$$$
