
     RDKit          3D

 45 49  0  0  0  0  0  0  0  0999 V2000
  -19.2934  -41.4360   -1.2896 C   0  0  0  0  0  0  0  0  0  0  0  0
  -19.3810  -40.0831   -1.5737 O   0  0  0  0  0  0  0  0  0  0  0  0
  -20.5101  -39.7880   -2.3115 C   0  0  0  0  0  0  0  0  0  0  0  0
  -20.2769  -40.1153   -3.7358 C   0  0  0  0  0  0  0  0  0  0  0  0
  -20.9669  -41.1130   -4.3747 C   0  0  0  0  0  0  0  0  0  0  0  0
  -20.7693  -41.4376   -5.7408 C   0  0  0  0  0  0  0  0  0  0  0  0
  -19.8506  -40.7426   -6.4997 C   0  0  0  0  0  0  0  0  0  0  0  0
  -19.1395  -39.7327   -5.8891 C   0  0  0  0  0  0  0  0  0  0  0  0
  -19.3770  -39.4478   -4.5129 C   0  0  0  0  0  0  0  0  0  0  0  0
  -18.1178  -38.8089   -6.4168 C   0  0  0  0  0  0  0  0  0  0  0  0
  -18.0748  -37.5854   -5.9034 O   0  0  0  0  0  0  0  0  0  0  0  0
  -17.1076  -38.9194   -7.3992 N   0  0  0  0  0  0  0  0  0  0  0  0
  -17.2932  -39.3934   -8.7641 C   0  0  1  0  0  0  0  0  0  0  0  0
  -18.1204  -38.4625   -9.6203 C   0  0  0  0  0  0  0  0  0  0  0  0
  -19.6021  -38.5973   -9.4173 C   0  0  0  0  0  0  0  0  0  0  0  0
  -20.4644  -39.5659   -9.8601 C   0  0  0  0  0  0  0  0  0  0  0  0
  -21.7997  -39.4623   -9.4987 C   0  0  0  0  0  0  0  0  0  0  0  0
  -22.2395  -38.3817   -8.7013 C   0  0  0  0  0  0  0  0  0  0  0  0
  -21.3984  -37.3977   -8.2452 C   0  0  0  0  0  0  0  0  0  0  0  0
  -20.0898  -37.5367   -8.6209 C   0  0  0  0  0  0  0  0  0  0  0  0
  -22.8588  -40.2938   -9.8026 O   0  0  0  0  0  0  0  0  0  0  0  0
  -23.2004  -41.6186   -9.6234 C   0  0  0  0  0  0  0  0  0  0  0  0
  -22.9845  -42.1962   -8.2678 C   0  0  0  0  0  0  0  0  0  0  0  0
  -22.0142  -43.3554   -8.2666 C   0  0  0  0  0  0  0  0  0  0  0  0
  -21.4912  -43.6913   -6.8844 C   0  0  0  0  0  0  0  0  0  0  0  0
  -21.6564  -42.5121   -6.0706 N   0  0  0  0  0  0  0  0  0  0  0  0
  -15.9497  -39.6119   -9.4211 C   0  0  2  0  0  0  0  0  0  0  0  0
  -15.6173  -40.9557   -9.4802 O   0  0  0  0  0  0  0  0  0  0  0  0
  -14.9021  -38.8582   -8.6571 C   0  0  0  0  0  0  0  0  0  0  0  0
  -13.7836  -38.4756   -9.5084 N   0  0  0  0  0  0  0  0  0  0  0  0
  -14.3395  -38.1117  -10.7965 C   0  0  1  0  0  0  0  0  0  0  0  0
  -14.5256  -36.6077  -10.8279 C   0  0  0  0  0  0  0  0  0  0  0  0
  -13.2548  -35.8453  -10.6068 C   0  0  0  0  0  0  0  0  0  0  0  0
  -13.0424  -35.4436   -9.1856 C   0  0  0  0  0  0  0  0  0  0  0  0
  -13.3090  -34.5912  -11.4601 C   0  0  0  0  0  0  0  0  0  0  0  0
  -12.1152  -36.5825  -11.0826 O   0  0  0  0  0  0  0  0  0  0  0  0
  -12.2846  -37.6145  -12.0119 C   0  0  0  0  0  0  0  0  0  0  0  0
  -11.4007  -37.8639  -13.0249 C   0  0  0  0  0  0  0  0  0  0  0  0
  -11.6049  -38.9079  -13.9368 C   0  0  0  0  0  0  0  0  0  0  0  0
  -12.7164  -39.7068  -13.8195 C   0  0  0  0  0  0  0  0  0  0  0  0
  -13.6151  -39.4687  -12.8051 C   0  0  0  0  0  0  0  0  0  0  0  0
  -13.3943  -38.4231  -11.9068 C   0  0  0  0  0  0  0  0  0  0  0  0
  -12.9839  -40.8345  -14.7754 C   0  0  0  0  0  0  0  0  0  0  0  0
  -12.7039  -42.1631  -14.1406 C   0  0  0  0  0  0  0  0  0  0  0  0
  -12.1589  -40.6602  -16.0323 C   0  0  0  0  0  0  0  0  0  0  0  0
  1  2  1  0
  2  3  1  0
  3  4  1  0
  4  5  2  0
  5  6  1  0
  6  7  2  0
  7  8  1  0
  8  9  2  0
  8 10  1  0
 10 11  2  0
 10 12  1  0
 12 13  1  0
 13 14  1  6
 14 15  1  0
 15 16  2  0
 16 17  1  0
 17 18  2  0
 18 19  1  0
 19 20  2  0
 17 21  1  0
 21 22  1  0
 22 23  1  0
 23 24  1  0
 24 25  1  0
 25 26  1  0
 13 27  1  0
 27 28  1  1
 27 29  1  0
 29 30  1  0
 31 30  1  1
 31 32  1  0
 32 33  1  0
 33 34  1  0
 33 35  1  0
 33 36  1  0
 36 37  1  0
 37 38  2  0
 38 39  1  0
 39 40  2  0
 40 41  1  0
 41 42  2  0
 40 43  1  0
 43 44  1  0
 43 45  1  0
  9  4  1  0
 20 15  1  0
 26  6  1  0
 42 37  1  0
 42 31  1  0
M  END
$$$$
