
     RDKit          3D

 45 49  0  0  0  0  0  0  0  0999 V2000
  -25.8118  -41.8892  -10.6404 C   0  0  0  0  0  0  0  0  0  0  0  0
  -24.5157  -42.1314  -10.2159 O   0  0  0  0  0  0  0  0  0  0  0  0
  -23.9469  -41.0102   -9.6452 C   0  0  0  0  0  0  0  0  0  0  0  0
  -22.6662  -41.3729   -8.9984 C   0  0  0  0  0  0  0  0  0  0  0  0
  -22.5911  -42.3331   -8.0225 C   0  0  0  0  0  0  0  0  0  0  0  0
  -21.3748  -42.7058   -7.3962 C   0  0  0  0  0  0  0  0  0  0  0  0
  -20.1884  -42.1002   -7.7550 C   0  0  0  0  0  0  0  0  0  0  0  0
  -20.2275  -41.1306   -8.7332 C   0  0  0  0  0  0  0  0  0  0  0  0
  -21.4771  -40.7939   -9.3300 C   0  0  0  0  0  0  0  0  0  0  0  0
  -19.1541  -40.3228   -9.3424 C   0  0  0  0  0  0  0  0  0  0  0  0
  -19.2898  -39.9877  -10.6198 O   0  0  0  0  0  0  0  0  0  0  0  0
  -17.9386  -39.7835   -8.8633 N   0  0  0  0  0  0  0  0  0  0  0  0
  -16.8979  -40.5196   -8.1582 C   0  0  1  0  0  0  0  0  0  0  0  0
  -16.1868  -41.5370   -9.0203 C   0  0  0  0  0  0  0  0  0  0  0  0
  -16.9321  -42.8303   -9.1830 C   0  0  0  0  0  0  0  0  0  0  0  0
  -17.0873  -43.8707   -8.3048 C   0  0  0  0  0  0  0  0  0  0  0  0
  -17.8622  -44.9495   -8.7050 C   0  0  0  0  0  0  0  0  0  0  0  0
  -18.4617  -44.9593   -9.9846 C   0  0  0  0  0  0  0  0  0  0  0  0
  -18.3220  -43.9322  -10.8841 C   0  0  0  0  0  0  0  0  0  0  0  0
  -17.5528  -42.8863  -10.4513 C   0  0  0  0  0  0  0  0  0  0  0  0
  -18.1778  -46.1060   -8.0206 O   0  0  0  0  0  0  0  0  0  0  0  0
  -18.7969  -46.4555   -6.8382 C   0  0  0  0  0  0  0  0  0  0  0  0
  -20.0854  -45.7786   -6.5225 C   0  0  0  0  0  0  0  0  0  0  0  0
  -20.0346  -44.9787   -5.2408 C   0  0  0  0  0  0  0  0  0  0  0  0
  -21.1760  -43.9900   -5.1116 C   0  0  0  0  0  0  0  0  0  0  0  0
  -21.6673  -43.7335   -6.4431 N   0  0  0  0  0  0  0  0  0  0  0  0
  -15.8835  -39.5567   -7.5852 C   0  0  2  0  0  0  0  0  0  0  0  0
  -15.2023  -40.1048   -6.5104 O   0  0  0  0  0  0  0  0  0  0  0  0
  -16.5850  -38.3009   -7.1607 C   0  0  0  0  0  0  0  0  0  0  0  0
  -17.2403  -37.6427   -8.2829 N   0  0  0  0  0  0  0  0  0  0  0  0
  -16.6605  -38.1938   -9.4916 C   0  0  1  0  0  0  0  0  0  0  0  0
  -17.7865  -38.5428  -10.4445 C   0  0  0  0  0  0  0  0  0  0  0  0
  -18.6494  -37.3711  -10.8019 C   0  0  0  0  0  0  0  0  0  0  0  0
  -19.8690  -37.2497   -9.9509 C   0  0  0  0  0  0  0  0  0  0  0  0
  -19.0834  -37.5353  -12.2471 C   0  0  0  0  0  0  0  0  0  0  0  0
  -17.9021  -36.1428  -10.7643 O   0  0  0  0  0  0  0  0  0  0  0  0
  -16.5054  -36.1680  -10.8404 C   0  0  0  0  0  0  0  0  0  0  0  0
  -15.7741  -35.2301  -11.5152 C   0  0  0  0  0  0  0  0  0  0  0  0
  -14.3753  -35.2891  -11.5688 C   0  0  0  0  0  0  0  0  0  0  0  0
  -13.7119  -36.3094  -10.9312 C   0  0  0  0  0  0  0  0  0  0  0  0
  -14.4337  -37.2609  -10.2477 C   0  0  0  0  0  0  0  0  0  0  0  0
  -15.8271  -37.1850  -10.2065 C   0  0  0  0  0  0  0  0  0  0  0  0
  -12.2141  -36.4207  -10.9642 C   0  0  0  0  0  0  0  0  0  0  0  0
  -11.5645  -35.0991  -10.6848 C   0  0  0  0  0  0  0  0  0  0  0  0
  -11.7604  -36.9651  -12.3016 C   0  0  0  0  0  0  0  0  0  0  0  0
  1  2  1  0
  2  3  1  0
  3  4  1  0
  4  5  2  0
  5  6  1  0
  6  7  2  0
  7  8  1  0
  8  9  2  0
  8 10  1  0
 10 11  2  0
 10 12  1  0
 12 13  1  0
 13 14  1  6
 14 15  1  0
 15 16  2  0
 16 17  1  0
 17 18  2  0
 18 19  1  0
 19 20  2  0
 17 21  1  0
 21 22  1  0
 22 23  1  0
 23 24  1  0
 24 25  1  0
 25 26  1  0
 13 27  1  0
 27 28  1  1
 27 29  1  0
 29 30  1  0
 31 30  1  1
 31 32  1  0
 32 33  1  0
 33 34  1  0
 33 35  1  0
 33 36  1  0
 36 37  1  0
 37 38  2  0
 38 39  1  0
 39 40  2  0
 40 41  1  0
 41 42  2  0
 40 43  1  0
 43 44  1  0
 43 45  1  0
  9  4  1  0
 20 15  1  0
 26  6  1  0
 42 37  1  0
 42 31  1  0
M  END
$$$$
