
     RDKit          3D

 45 49  0  0  0  0  0  0  0  0999 V2000
  -23.5442  -41.0702  -11.9483 C   0  0  0  0  0  0  0  0  0  0  0  0
  -22.6217  -40.0750  -12.2262 O   0  0  0  0  0  0  0  0  0  0  0  0
  -22.6639  -39.0626  -11.2883 C   0  0  0  0  0  0  0  0  0  0  0  0
  -21.8567  -39.4409  -10.1070 C   0  0  0  0  0  0  0  0  0  0  0  0
  -22.4346  -39.8069   -8.9187 C   0  0  0  0  0  0  0  0  0  0  0  0
  -21.6830  -40.1840   -7.7770 C   0  0  0  0  0  0  0  0  0  0  0  0
  -20.3043  -40.1977   -7.8197 C   0  0  0  0  0  0  0  0  0  0  0  0
  -19.6904  -39.8356   -8.9989 C   0  0  0  0  0  0  0  0  0  0  0  0
  -20.4934  -39.4648  -10.1165 C   0  0  0  0  0  0  0  0  0  0  0  0
  -18.2642  -39.7644   -9.3686 C   0  0  0  0  0  0  0  0  0  0  0  0
  -17.9431  -40.0422  -10.6265 O   0  0  0  0  0  0  0  0  0  0  0  0
  -17.0811  -39.4503   -8.6620 N   0  0  0  0  0  0  0  0  0  0  0  0
  -16.6591  -40.0415   -7.3992 C   0  0  1  0  0  0  0  0  0  0  0  0
  -16.2877  -41.5022   -7.5096 C   0  0  0  0  0  0  0  0  0  0  0  0
  -17.4638  -42.4357   -7.5047 C   0  0  0  0  0  0  0  0  0  0  0  0
  -18.2547  -42.8461   -6.4637 C   0  0  0  0  0  0  0  0  0  0  0  0
  -19.3084  -43.7031   -6.7460 C   0  0  0  0  0  0  0  0  0  0  0  0
  -19.5410  -44.1323   -8.0721 C   0  0  0  0  0  0  0  0  0  0  0  0
  -18.7645  -43.7383   -9.1330 C   0  0  0  0  0  0  0  0  0  0  0  0
  -17.7376  -42.8918   -8.8139 C   0  0  0  0  0  0  0  0  0  0  0  0
  -20.2451  -44.2535   -5.8945 O   0  0  0  0  0  0  0  0  0  0  0  0
  -21.2073  -43.8091   -5.0111 C   0  0  0  0  0  0  0  0  0  0  0  0
  -22.1045  -42.7168   -5.4802 C   0  0  0  0  0  0  0  0  0  0  0  0
  -22.0045  -41.4662   -4.6369 C   0  0  0  0  0  0  0  0  0  0  0  0
  -22.5948  -40.2449   -5.3126 C   0  0  0  0  0  0  0  0  0  0  0  0
  -22.6050  -40.5084   -6.7306 N   0  0  0  0  0  0  0  0  0  0  0  0
  -15.4873  -39.2711   -6.8355 C   0  0  2  0  0  0  0  0  0  0  0  0
  -15.6136  -39.0663   -5.4710 O   0  0  0  0  0  0  0  0  0  0  0  0
  -15.3807  -37.9534   -7.5437 C   0  0  0  0  0  0  0  0  0  0  0  0
  -15.2334  -38.1242   -8.9828 N   0  0  0  0  0  0  0  0  0  0  0  0
  -15.3865  -36.8128   -9.5807 C   0  0  1  0  0  0  0  0  0  0  0  0
  -14.0082  -36.2753   -9.9107 C   0  0  0  0  0  0  0  0  0  0  0  0
  -13.2333  -37.1548  -10.8442 C   0  0  0  0  0  0  0  0  0  0  0  0
  -12.3186  -38.1037  -10.1449 C   0  0  0  0  0  0  0  0  0  0  0  0
  -12.4031  -36.2602  -11.7465 C   0  0  0  0  0  0  0  0  0  0  0  0
  -14.1093  -37.8792  -11.7254 O   0  0  0  0  0  0  0  0  0  0  0  0
  -15.4173  -37.4313  -11.9394 C   0  0  0  0  0  0  0  0  0  0  0  0
  -16.0467  -37.5060  -13.1511 C   0  0  0  0  0  0  0  0  0  0  0  0
  -17.3587  -37.0465  -13.3263 C   0  0  0  0  0  0  0  0  0  0  0  0
  -18.0388  -36.5062  -12.2619 C   0  0  0  0  0  0  0  0  0  0  0  0
  -17.4192  -36.4243  -11.0360 C   0  0  0  0  0  0  0  0  0  0  0  0
  -16.1111  -36.8871  -10.8817 C   0  0  0  0  0  0  0  0  0  0  0  0
  -19.4443  -35.9937  -12.3996 C   0  0  0  0  0  0  0  0  0  0  0  0
  -20.4226  -37.1208  -12.5385 C   0  0  0  0  0  0  0  0  0  0  0  0
  -19.5435  -35.0534  -13.5815 C   0  0  0  0  0  0  0  0  0  0  0  0
  1  2  1  0
  2  3  1  0
  3  4  1  0
  4  5  2  0
  5  6  1  0
  6  7  2  0
  7  8  1  0
  8  9  2  0
  8 10  1  0
 10 11  2  0
 10 12  1  0
 12 13  1  0
 13 14  1  6
 14 15  1  0
 15 16  2  0
 16 17  1  0
 17 18  2  0
 18 19  1  0
 19 20  2  0
 17 21  1  0
 21 22  1  0
 22 23  1  0
 23 24  1  0
 24 25  1  0
 25 26  1  0
 13 27  1  0
 27 28  1  1
 27 29  1  0
 29 30  1  0
 31 30  1  6
 31 32  1  0
 32 33  1  0
 33 34  1  0
 33 35  1  0
 33 36  1  0
 36 37  1  0
 37 38  2  0
 38 39  1  0
 39 40  2  0
 40 41  1  0
 41 42  2  0
 40 43  1  0
 43 44  1  0
 43 45  1  0
  9  4  1  0
 20 15  1  0
 26  6  1  0
 42 37  1  0
 42 31  1  0
M  END
$$$$
