
     RDKit          3D

 45 49  0  0  0  0  0  0  0  0999 V2000
  -20.6040  -48.0582   -5.7091 C   0  0  0  0  0  0  0  0  0  0  0  0
  -20.7403  -46.7289   -6.0740 O   0  0  0  0  0  0  0  0  0  0  0  0
  -20.0472  -46.4436   -7.2336 C   0  0  0  0  0  0  0  0  0  0  0  0
  -20.1670  -45.0021   -7.5464 C   0  0  0  0  0  0  0  0  0  0  0  0
  -21.1965  -44.5058   -8.3038 C   0  0  0  0  0  0  0  0  0  0  0  0
  -21.3389  -43.1281   -8.6075 C   0  0  0  0  0  0  0  0  0  0  0  0
  -20.4222  -42.2097   -8.1393 C   0  0  0  0  0  0  0  0  0  0  0  0
  -19.3746  -42.6742   -7.3744 C   0  0  0  0  0  0  0  0  0  0  0  0
  -19.2786  -44.0693   -7.0992 C   0  0  0  0  0  0  0  0  0  0  0  0
  -18.2589  -41.9630   -6.7222 C   0  0  0  0  0  0  0  0  0  0  0  0
  -17.8067  -42.4546   -5.5749 O   0  0  0  0  0  0  0  0  0  0  0  0
  -17.5059  -40.8113   -7.0453 N   0  0  0  0  0  0  0  0  0  0  0  0
  -18.0505  -39.5062   -7.3946 C   0  0  1  0  0  0  0  0  0  0  0  0
  -18.7457  -38.8137   -6.2453 C   0  0  0  0  0  0  0  0  0  0  0  0
  -20.1498  -39.2875   -6.0032 C   0  0  0  0  0  0  0  0  0  0  0  0
  -21.3000  -39.0156   -6.6966 C   0  0  0  0  0  0  0  0  0  0  0  0
  -22.4747  -39.6170   -6.2691 C   0  0  0  0  0  0  0  0  0  0  0  0
  -22.4667  -40.4775   -5.1482 C   0  0  0  0  0  0  0  0  0  0  0  0
  -21.3303  -40.7662   -4.4348 C   0  0  0  0  0  0  0  0  0  0  0  0
  -20.1927  -40.1558   -4.8891 C   0  0  0  0  0  0  0  0  0  0  0  0
  -23.7508  -39.5174   -6.7858 O   0  0  0  0  0  0  0  0  0  0  0  0
  -24.3885  -39.7621   -7.9847 C   0  0  0  0  0  0  0  0  0  0  0  0
  -24.0913  -41.0569   -8.6579 C   0  0  0  0  0  0  0  0  0  0  0  0
  -23.4734  -40.8836  -10.0266 C   0  0  0  0  0  0  0  0  0  0  0  0
  -22.8170  -42.1468  -10.5466 C   0  0  0  0  0  0  0  0  0  0  0  0
  -22.5200  -42.9722   -9.4018 N   0  0  0  0  0  0  0  0  0  0  0  0
  -16.9510  -38.6133   -7.9221 C   0  0  2  0  0  0  0  0  0  0  0  0
  -17.3874  -37.3109   -8.1042 O   0  0  0  0  0  0  0  0  0  0  0  0
  -16.4470  -39.1709   -9.2200 C   0  0  0  0  0  0  0  0  0  0  0  0
  -15.1445  -39.8046   -9.0658 N   0  0  0  0  0  0  0  0  0  0  0  0
  -14.1610  -38.7409   -9.0209 C   0  0  1  0  0  0  0  0  0  0  0  0
  -12.8550  -39.3200   -8.5144 C   0  0  0  0  0  0  0  0  0  0  0  0
  -12.3313  -40.4396   -9.3615 C   0  0  0  0  0  0  0  0  0  0  0  0
  -12.7240  -41.7919   -8.8682 C   0  0  0  0  0  0  0  0  0  0  0  0
  -10.8161  -40.3495   -9.3686 C   0  0  0  0  0  0  0  0  0  0  0  0
  -12.7300  -40.2847  -10.7346 O   0  0  0  0  0  0  0  0  0  0  0  0
  -13.1314  -39.0325  -11.2123 C   0  0  0  0  0  0  0  0  0  0  0  0
  -12.8318  -38.5770  -12.4663 C   0  0  0  0  0  0  0  0  0  0  0  0
  -13.2521  -37.3158  -12.9090 C   0  0  0  0  0  0  0  0  0  0  0  0
  -13.9838  -36.5091  -12.0714 C   0  0  0  0  0  0  0  0  0  0  0  0
  -14.2935  -36.9534  -10.8064 C   0  0  0  0  0  0  0  0  0  0  0  0
  -13.8650  -38.2131  -10.3836 C   0  0  0  0  0  0  0  0  0  0  0  0
  -14.4523  -35.1464  -12.4962 C   0  0  0  0  0  0  0  0  0  0  0  0
  -13.5453  -34.0729  -11.9751 C   0  0  0  0  0  0  0  0  0  0  0  0
  -15.8739  -34.9148  -12.0313 C   0  0  0  0  0  0  0  0  0  0  0  0
  1  2  1  0
  2  3  1  0
  3  4  1  0
  4  5  2  0
  5  6  1  0
  6  7  2  0
  7  8  1  0
  8  9  2  0
  8 10  1  0
 10 11  2  0
 10 12  1  0
 12 13  1  0
 13 14  1  1
 14 15  1  0
 15 16  2  0
 16 17  1  0
 17 18  2  0
 18 19  1  0
 19 20  2  0
 17 21  1  0
 21 22  1  0
 22 23  1  0
 23 24  1  0
 24 25  1  0
 25 26  1  0
 13 27  1  0
 27 28  1  6
 27 29  1  0
 29 30  1  0
 31 30  1  6
 31 32  1  0
 32 33  1  0
 33 34  1  0
 33 35  1  0
 33 36  1  0
 36 37  1  0
 37 38  2  0
 38 39  1  0
 39 40  2  0
 40 41  1  0
 41 42  2  0
 40 43  1  0
 43 44  1  0
 43 45  1  0
  9  4  1  0
 20 15  1  0
 26  6  1  0
 42 37  1  0
 42 31  1  0
M  END
$$$$
