
     RDKit          3D

 45 49  0  0  0  0  0  0  0  0999 V2000
  -21.1837  -40.6841  -14.5622 C   0  0  0  0  0  0  0  0  0  0  0  0
  -20.4760  -41.6408  -13.8534 O   0  0  0  0  0  0  0  0  0  0  0  0
  -21.2524  -42.2307  -12.8758 C   0  0  0  0  0  0  0  0  0  0  0  0
  -21.0464  -41.5354  -11.5858 C   0  0  0  0  0  0  0  0  0  0  0  0
  -22.0615  -40.8689  -10.9491 C   0  0  0  0  0  0  0  0  0  0  0  0
  -21.8917  -40.2052   -9.7077 C   0  0  0  0  0  0  0  0  0  0  0  0
  -20.6654  -40.2050   -9.0760 C   0  0  0  0  0  0  0  0  0  0  0  0
  -19.6227  -40.8659   -9.6881 C   0  0  0  0  0  0  0  0  0  0  0  0
  -19.8478  -41.5166  -10.9359 C   0  0  0  0  0  0  0  0  0  0  0  0
  -18.2211  -41.0626   -9.2728 C   0  0  0  0  0  0  0  0  0  0  0  0
  -17.6324  -42.1998   -9.6233 O   0  0  0  0  0  0  0  0  0  0  0  0
  -17.2933  -40.2821   -8.5463 N   0  0  0  0  0  0  0  0  0  0  0  0
  -17.5269  -39.6709   -7.2448 C   0  0  1  0  0  0  0  0  0  0  0  0
  -17.6672  -40.6733   -6.1225 C   0  0  0  0  0  0  0  0  0  0  0  0
  -19.0290  -41.2985   -6.0259 C   0  0  0  0  0  0  0  0  0  0  0  0
  -20.2005  -40.7803   -5.5395 C   0  0  0  0  0  0  0  0  0  0  0  0
  -21.3363  -41.5747   -5.5965 C   0  0  0  0  0  0  0  0  0  0  0  0
  -21.2670  -42.8775   -6.1394 C   0  0  0  0  0  0  0  0  0  0  0  0
  -20.1075  -43.4219   -6.6323 C   0  0  0  0  0  0  0  0  0  0  0  0
  -19.0107  -42.6067   -6.5602 C   0  0  0  0  0  0  0  0  0  0  0  0
  -22.6245  -41.2961   -5.1861 O   0  0  0  0  0  0  0  0  0  0  0  0
  -23.6024  -40.3613   -5.4572 C   0  0  0  0  0  0  0  0  0  0  0  0
  -23.8687  -40.0561   -6.8904 C   0  0  0  0  0  0  0  0  0  0  0  0
  -23.6180  -38.6076   -7.2429 C   0  0  0  0  0  0  0  0  0  0  0  0
  -23.5031  -38.3705   -8.7354 C   0  0  0  0  0  0  0  0  0  0  0  0
  -23.1510  -39.6321   -9.3391 N   0  0  0  0  0  0  0  0  0  0  0  0
  -16.4063  -38.7109   -6.9175 C   0  0  2  0  0  0  0  0  0  0  0  0
  -16.8761  -37.5590   -6.3074 O   0  0  0  0  0  0  0  0  0  0  0  0
  -15.6765  -38.3607   -8.1801 C   0  0  0  0  0  0  0  0  0  0  0  0
  -14.8856  -39.4796   -8.6746 N   0  0  0  0  0  0  0  0  0  0  0  0
  -13.5442  -38.9797   -8.9016 C   0  0  1  0  0  0  0  0  0  0  0  0
  -12.6087  -40.1655   -9.0296 C   0  0  0  0  0  0  0  0  0  0  0  0
  -12.9804  -41.1006  -10.1400 C   0  0  0  0  0  0  0  0  0  0  0  0
  -13.8202  -42.2499   -9.6930 C   0  0  0  0  0  0  0  0  0  0  0  0
  -11.6970  -41.6450  -10.7403 C   0  0  0  0  0  0  0  0  0  0  0  0
  -13.6375  -40.4019  -11.2117 O   0  0  0  0  0  0  0  0  0  0  0  0
  -13.4928  -39.0162  -11.3394 C   0  0  0  0  0  0  0  0  0  0  0  0
  -13.3950  -38.3806  -12.5461 C   0  0  0  0  0  0  0  0  0  0  0  0
  -13.2510  -36.9896  -12.6335 C   0  0  0  0  0  0  0  0  0  0  0  0
  -13.2062  -36.2362  -11.4855 C   0  0  0  0  0  0  0  0  0  0  0  0
  -13.3036  -36.8612  -10.2635 C   0  0  0  0  0  0  0  0  0  0  0  0
  -13.4460  -38.2485  -10.1972 C   0  0  0  0  0  0  0  0  0  0  0  0
  -13.0465  -34.7430  -11.5255 C   0  0  0  0  0  0  0  0  0  0  0  0
  -13.1213  -34.2258  -12.9304 C   0  0  0  0  0  0  0  0  0  0  0  0
  -11.7388  -34.3402  -10.8785 C   0  0  0  0  0  0  0  0  0  0  0  0
  1  2  1  0
  2  3  1  0
  3  4  1  0
  4  5  2  0
  5  6  1  0
  6  7  2  0
  7  8  1  0
  8  9  2  0
  8 10  1  0
 10 11  2  0
 10 12  1  0
 12 13  1  0
 13 14  1  1
 14 15  1  0
 15 16  2  0
 16 17  1  0
 17 18  2  0
 18 19  1  0
 19 20  2  0
 17 21  1  0
 21 22  1  0
 22 23  1  0
 23 24  1  0
 24 25  1  0
 25 26  1  0
 13 27  1  0
 27 28  1  6
 27 29  1  0
 29 30  1  0
 31 30  1  6
 31 32  1  0
 32 33  1  0
 33 34  1  0
 33 35  1  0
 33 36  1  0
 36 37  1  0
 37 38  2  0
 38 39  1  0
 39 40  2  0
 40 41  1  0
 41 42  2  0
 40 43  1  0
 43 44  1  0
 43 45  1  0
  9  4  1  0
 20 15  1  0
 26  6  1  0
 42 37  1  0
 42 31  1  0
M  END
$$$$
