
     RDKit          3D

 45 49  0  0  0  0  0  0  0  0999 V2000
  -24.4111  -41.2221  -11.1959 C   0  0  0  0  0  0  0  0  0  0  0  0
  -24.7864  -40.3054  -10.2276 O   0  0  0  0  0  0  0  0  0  0  0  0
  -23.8669  -39.2823  -10.1088 C   0  0  0  0  0  0  0  0  0  0  0  0
  -22.7239  -39.7301   -9.2822 C   0  0  0  0  0  0  0  0  0  0  0  0
  -22.8924  -40.2162   -8.0113 C   0  0  0  0  0  0  0  0  0  0  0  0
  -21.8148  -40.6615   -7.2045 C   0  0  0  0  0  0  0  0  0  0  0  0
  -20.5207  -40.6220   -7.6807 C   0  0  0  0  0  0  0  0  0  0  0  0
  -20.3152  -40.1392   -8.9548 C   0  0  0  0  0  0  0  0  0  0  0  0
  -21.4339  -39.7041   -9.7232 C   0  0  0  0  0  0  0  0  0  0  0  0
  -19.0805  -39.9858   -9.7471 C   0  0  0  0  0  0  0  0  0  0  0  0
  -19.1730  -40.1441  -11.0619 O   0  0  0  0  0  0  0  0  0  0  0  0
  -17.7366  -39.6905   -9.4238 N   0  0  0  0  0  0  0  0  0  0  0  0
  -16.9317  -40.3711   -8.4183 C   0  0  1  0  0  0  0  0  0  0  0  0
  -16.6039  -41.8029   -8.7738 C   0  0  0  0  0  0  0  0  0  0  0  0
  -17.7109  -42.7751   -8.4842 C   0  0  0  0  0  0  0  0  0  0  0  0
  -18.1278  -43.3005   -7.2893 C   0  0  0  0  0  0  0  0  0  0  0  0
  -19.2104  -44.1677   -7.3025 C   0  0  0  0  0  0  0  0  0  0  0  0
  -19.8486  -44.4910   -8.5212 C   0  0  0  0  0  0  0  0  0  0  0  0
  -19.4516  -43.9807   -9.7319 C   0  0  0  0  0  0  0  0  0  0  0  0
  -18.3826  -43.1280   -9.6765 C   0  0  0  0  0  0  0  0  0  0  0  0
  -19.8247  -44.8217   -6.2535 O   0  0  0  0  0  0  0  0  0  0  0  0
  -20.4601  -44.4887   -5.0749 C   0  0  0  0  0  0  0  0  0  0  0  0
  -21.4676  -43.3936   -5.1348 C   0  0  0  0  0  0  0  0  0  0  0  0
  -21.1143  -42.2162   -4.2549 C   0  0  0  0  0  0  0  0  0  0  0  0
  -21.8973  -40.9640   -4.5949 C   0  0  0  0  0  0  0  0  0  0  0  0
  -22.3548  -41.1064   -5.9552 N   0  0  0  0  0  0  0  0  0  0  0  0
  -15.6471  -39.6097   -8.1845 C   0  0  2  0  0  0  0  0  0  0  0  0
  -15.0900  -39.9052   -6.9508 O   0  0  0  0  0  0  0  0  0  0  0  0
  -15.9243  -38.1390   -8.2824 C   0  0  0  0  0  0  0  0  0  0  0  0
  -16.6516  -37.8065   -9.5000 N   0  0  0  0  0  0  0  0  0  0  0  0
  -15.7040  -37.8913  -10.5933 C   0  0  1  0  0  0  0  0  0  0  0  0
  -16.4776  -38.1033  -11.8795 C   0  0  0  0  0  0  0  0  0  0  0  0
  -17.4654  -37.0139  -12.1672 C   0  0  0  0  0  0  0  0  0  0  0  0
  -18.8454  -37.3220  -11.6907 C   0  0  0  0  0  0  0  0  0  0  0  0
  -17.5083  -36.8084  -13.6705 C   0  0  0  0  0  0  0  0  0  0  0  0
  -17.0285  -35.7569  -11.6218 O   0  0  0  0  0  0  0  0  0  0  0  0
  -15.6800  -35.5592  -11.3059 C   0  0  0  0  0  0  0  0  0  0  0  0
  -15.0315  -34.3707  -11.4971 C   0  0  0  0  0  0  0  0  0  0  0  0
  -13.6789  -34.2113  -11.1679 C   0  0  0  0  0  0  0  0  0  0  0  0
  -12.9777  -35.2679  -10.6393 C   0  0  0  0  0  0  0  0  0  0  0  0
  -13.6163  -36.4704  -10.4407 C   0  0  0  0  0  0  0  0  0  0  0  0
  -14.9645  -36.6095  -10.7757 C   0  0  0  0  0  0  0  0  0  0  0  0
  -11.5247  -35.1498  -10.2761 C   0  0  0  0  0  0  0  0  0  0  0  0
  -11.3336  -34.2676   -9.0794 C   0  0  0  0  0  0  0  0  0  0  0  0
  -10.7327  -34.6272  -11.4552 C   0  0  0  0  0  0  0  0  0  0  0  0
  1  2  1  0
  2  3  1  0
  3  4  1  0
  4  5  2  0
  5  6  1  0
  6  7  2  0
  7  8  1  0
  8  9  2  0
  8 10  1  0
 10 11  2  0
 10 12  1  0
 12 13  1  0
 13 14  1  6
 14 15  1  0
 15 16  2  0
 16 17  1  0
 17 18  2  0
 18 19  1  0
 19 20  2  0
 17 21  1  0
 21 22  1  0
 22 23  1  0
 23 24  1  0
 24 25  1  0
 25 26  1  0
 13 27  1  0
 27 28  1  1
 27 29  1  0
 29 30  1  0
 31 30  1  1
 31 32  1  0
 32 33  1  0
 33 34  1  0
 33 35  1  0
 33 36  1  0
 36 37  1  0
 37 38  2  0
 38 39  1  0
 39 40  2  0
 40 41  1  0
 41 42  2  0
 40 43  1  0
 43 44  1  0
 43 45  1  0
  9  4  1  0
 20 15  1  0
 26  6  1  0
 42 37  1  0
 42 31  1  0
M  END
$$$$
