
     RDKit          3D

 45 49  0  0  0  0  0  0  0  0999 V2000
  -19.1682  -47.3992   -8.7933 C   0  0  0  0  0  0  0  0  0  0  0  0
  -19.2623  -47.4433   -7.4120 O   0  0  0  0  0  0  0  0  0  0  0  0
  -20.4825  -46.9740   -6.9677 C   0  0  0  0  0  0  0  0  0  0  0  0
  -20.5815  -45.5193   -7.2209 C   0  0  0  0  0  0  0  0  0  0  0  0
  -21.6646  -44.9633   -7.8515 C   0  0  0  0  0  0  0  0  0  0  0  0
  -21.7875  -43.5719   -8.0952 C   0  0  0  0  0  0  0  0  0  0  0  0
  -20.7951  -42.7009   -7.6958 C   0  0  0  0  0  0  0  0  0  0  0  0
  -19.6920  -43.2260   -7.0586 C   0  0  0  0  0  0  0  0  0  0  0  0
  -19.6188  -44.6323   -6.8390 C   0  0  0  0  0  0  0  0  0  0  0  0
  -18.4905  -42.5750   -6.5034 C   0  0  0  0  0  0  0  0  0  0  0  0
  -17.9411  -43.1210   -5.4252 O   0  0  0  0  0  0  0  0  0  0  0  0
  -17.7334  -41.4379   -6.8663 N   0  0  0  0  0  0  0  0  0  0  0  0
  -18.2634  -40.1042   -7.1161 C   0  0  1  0  0  0  0  0  0  0  0  0
  -18.8116  -39.4301   -5.8796 C   0  0  0  0  0  0  0  0  0  0  0  0
  -20.1998  -39.8659   -5.5084 C   0  0  0  0  0  0  0  0  0  0  0  0
  -21.4044  -39.5324   -6.0700 C   0  0  0  0  0  0  0  0  0  0  0  0
  -22.5500  -40.1097   -5.5422 C   0  0  0  0  0  0  0  0  0  0  0  0
  -22.4583  -41.0087   -4.4559 C   0  0  0  0  0  0  0  0  0  0  0  0
  -21.2660  -41.3593   -3.8736 C   0  0  0  0  0  0  0  0  0  0  0  0
  -20.1596  -40.7709   -4.4238 C   0  0  0  0  0  0  0  0  0  0  0  0
  -23.8680  -39.9504   -5.9206 O   0  0  0  0  0  0  0  0  0  0  0  0
  -24.6336  -40.1319   -7.0540 C   0  0  0  0  0  0  0  0  0  0  0  0
  -24.4539  -41.4113   -7.7948 C   0  0  0  0  0  0  0  0  0  0  0  0
  -23.9737  -41.2105   -9.2141 C   0  0  0  0  0  0  0  0  0  0  0  0
  -23.4201  -42.4754   -9.8388 C   0  0  0  0  0  0  0  0  0  0  0  0
  -23.0373  -43.3497   -8.7576 N   0  0  0  0  0  0  0  0  0  0  0  0
  -17.1922  -39.2298   -7.7263 C   0  0  2  0  0  0  0  0  0  0  0  0
  -17.6905  -37.9944   -8.1074 O   0  0  0  0  0  0  0  0  0  0  0  0
  -16.6026  -39.9327   -8.9128 C   0  0  0  0  0  0  0  0  0  0  0  0
  -15.1612  -40.0976   -8.7813 N   0  0  0  0  0  0  0  0  0  0  0  0
  -14.6272  -38.8176   -8.3606 C   0  0  1  0  0  0  0  0  0  0  0  0
  -13.2489  -39.0459   -7.7725 C   0  0  0  0  0  0  0  0  0  0  0  0
  -12.2916  -39.6884   -8.7297 C   0  0  0  0  0  0  0  0  0  0  0  0
  -12.2191  -41.1722   -8.5915 C   0  0  0  0  0  0  0  0  0  0  0  0
  -10.9125  -39.1111   -8.4679 C   0  0  0  0  0  0  0  0  0  0  0  0
  -12.6009  -39.3380  -10.0899 O   0  0  0  0  0  0  0  0  0  0  0  0
  -13.3786  -38.2080  -10.3646 C   0  0  0  0  0  0  0  0  0  0  0  0
  -13.1546  -37.3853  -11.4336 C   0  0  0  0  0  0  0  0  0  0  0  0
  -13.9560  -36.2618  -11.6759 C   0  0  0  0  0  0  0  0  0  0  0  0
  -14.9949  -35.9704  -10.8254 C   0  0  0  0  0  0  0  0  0  0  0  0
  -15.2332  -36.7887   -9.7452 C   0  0  0  0  0  0  0  0  0  0  0  0
  -14.4230  -37.9033   -9.5205 C   0  0  0  0  0  0  0  0  0  0  0  0
  -15.8788  -34.7743  -11.0379 C   0  0  0  0  0  0  0  0  0  0  0  0
  -15.4579  -33.9955  -12.2475 C   0  0  0  0  0  0  0  0  0  0  0  0
  -15.8695  -33.8931   -9.8073 C   0  0  0  0  0  0  0  0  0  0  0  0
  1  2  1  0
  2  3  1  0
  3  4  1  0
  4  5  2  0
  5  6  1  0
  6  7  2  0
  7  8  1  0
  8  9  2  0
  8 10  1  0
 10 11  2  0
 10 12  1  0
 12 13  1  0
 13 14  1  1
 14 15  1  0
 15 16  2  0
 16 17  1  0
 17 18  2  0
 18 19  1  0
 19 20  2  0
 17 21  1  0
 21 22  1  0
 22 23  1  0
 23 24  1  0
 24 25  1  0
 25 26  1  0
 13 27  1  0
 27 28  1  6
 27 29  1  0
 29 30  1  0
 31 30  1  6
 31 32  1  0
 32 33  1  0
 33 34  1  0
 33 35  1  0
 33 36  1  0
 36 37  1  0
 37 38  2  0
 38 39  1  0
 39 40  2  0
 40 41  1  0
 41 42  2  0
 40 43  1  0
 43 44  1  0
 43 45  1  0
  9  4  1  0
 20 15  1  0
 26  6  1  0
 42 37  1  0
 42 31  1  0
M  END
$$$$
