
     RDKit          3D

 45 49  0  0  0  0  0  0  0  0999 V2000
  -21.8482  -46.2596   -4.2126 C   0  0  0  0  0  0  0  0  0  0  0  0
  -20.6483  -46.0237   -4.8632 O   0  0  0  0  0  0  0  0  0  0  0  0
  -20.7833  -46.1172   -6.2341 C   0  0  0  0  0  0  0  0  0  0  0  0
  -20.7202  -44.7668   -6.8364 C   0  0  0  0  0  0  0  0  0  0  0  0
  -21.7044  -44.2941   -7.6657 C   0  0  0  0  0  0  0  0  0  0  0  0
  -21.6719  -43.0005   -8.2455 C   0  0  0  0  0  0  0  0  0  0  0  0
  -20.6204  -42.1450   -7.9899 C   0  0  0  0  0  0  0  0  0  0  0  0
  -19.6136  -42.5880   -7.1600 C   0  0  0  0  0  0  0  0  0  0  0  0
  -19.6956  -43.8976   -6.6039 C   0  0  0  0  0  0  0  0  0  0  0  0
  -18.3854  -41.9240   -6.6843 C   0  0  0  0  0  0  0  0  0  0  0  0
  -17.9554  -42.2316   -5.4665 O   0  0  0  0  0  0  0  0  0  0  0  0
  -17.4979  -40.9797   -7.2487 N   0  0  0  0  0  0  0  0  0  0  0  0
  -17.8754  -39.7090   -7.8527 C   0  0  1  0  0  0  0  0  0  0  0  0
  -18.4210  -38.7069   -6.8617 C   0  0  0  0  0  0  0  0  0  0  0  0
  -19.8648  -38.9188   -6.5077 C   0  0  0  0  0  0  0  0  0  0  0  0
  -20.9960  -38.6337   -7.2264 C   0  0  0  0  0  0  0  0  0  0  0  0
  -22.2220  -38.9640   -6.6677 C   0  0  0  0  0  0  0  0  0  0  0  0
  -22.2829  -39.5718   -5.3934 C   0  0  0  0  0  0  0  0  0  0  0  0
  -21.1666  -39.8673   -4.6515 C   0  0  0  0  0  0  0  0  0  0  0  0
  -19.9773  -39.5284   -5.2377 C   0  0  0  0  0  0  0  0  0  0  0  0
  -23.4938  -38.7922   -7.1763 O   0  0  0  0  0  0  0  0  0  0  0  0
  -24.2090  -39.1823   -8.2898 C   0  0  0  0  0  0  0  0  0  0  0  0
  -24.1186  -40.6154   -8.6850 C   0  0  0  0  0  0  0  0  0  0  0  0
  -23.5416  -40.8121  -10.0683 C   0  0  0  0  0  0  0  0  0  0  0  0
  -23.0848  -42.2341  -10.3251 C   0  0  0  0  0  0  0  0  0  0  0  0
  -22.8537  -42.8439   -9.0386 N   0  0  0  0  0  0  0  0  0  0  0  0
  -16.6886  -39.1058   -8.5684 C   0  0  2  0  0  0  0  0  0  0  0  0
  -17.0186  -37.9201   -9.2049 O   0  0  0  0  0  0  0  0  0  0  0  0
  -16.1639  -40.0944   -9.5667 C   0  0  0  0  0  0  0  0  0  0  0  0
  -14.8877  -40.6586   -9.1484 N   0  0  0  0  0  0  0  0  0  0  0  0
  -14.0132  -39.5435   -8.8449 C   0  0  1  0  0  0  0  0  0  0  0  0
  -12.7886  -40.0786   -8.1296 C   0  0  0  0  0  0  0  0  0  0  0  0
  -12.0305  -41.0965   -8.9262 C   0  0  0  0  0  0  0  0  0  0  0  0
  -12.4084  -42.5038   -8.6053 C   0  0  0  0  0  0  0  0  0  0  0  0
  -10.5530  -40.9139   -8.6305 C   0  0  0  0  0  0  0  0  0  0  0  0
  -12.1697  -40.8622  -10.3383 O   0  0  0  0  0  0  0  0  0  0  0  0
  -12.5647  -39.6041  -10.8058 C   0  0  0  0  0  0  0  0  0  0  0  0
  -12.0657  -39.0371  -11.9456 C   0  0  0  0  0  0  0  0  0  0  0  0
  -12.4865  -37.7739  -12.3821 C   0  0  0  0  0  0  0  0  0  0  0  0
  -13.4229  -37.0794  -11.6552 C   0  0  0  0  0  0  0  0  0  0  0  0
  -13.9347  -37.6367  -10.5059 C   0  0  0  0  0  0  0  0  0  0  0  0
  -13.5022  -38.8964  -10.0872 C   0  0  0  0  0  0  0  0  0  0  0  0
  -13.9018  -35.7195  -12.0772 C   0  0  0  0  0  0  0  0  0  0  0  0
  -14.5122  -35.7587  -13.4456 C   0  0  0  0  0  0  0  0  0  0  0  0
  -12.7604  -34.7266  -12.0312 C   0  0  0  0  0  0  0  0  0  0  0  0
  1  2  1  0
  2  3  1  0
  3  4  1  0
  4  5  2  0
  5  6  1  0
  6  7  2  0
  7  8  1  0
  8  9  2  0
  8 10  1  0
 10 11  2  0
 10 12  1  0
 12 13  1  0
 13 14  1  1
 14 15  1  0
 15 16  2  0
 16 17  1  0
 17 18  2  0
 18 19  1  0
 19 20  2  0
 17 21  1  0
 21 22  1  0
 22 23  1  0
 23 24  1  0
 24 25  1  0
 25 26  1  0
 13 27  1  0
 27 28  1  6
 27 29  1  0
 29 30  1  0
 31 30  1  6
 31 32  1  0
 32 33  1  0
 33 34  1  0
 33 35  1  0
 33 36  1  0
 36 37  1  0
 37 38  2  0
 38 39  1  0
 39 40  2  0
 40 41  1  0
 41 42  2  0
 40 43  1  0
 43 44  1  0
 43 45  1  0
  9  4  1  0
 20 15  1  0
 26  6  1  0
 42 37  1  0
 42 31  1  0
M  END
$$$$
