
     RDKit          3D

 45 49  0  0  0  0  0  0  0  0999 V2000
  -14.3373  -42.8108  -14.5199 C   0  0  0  0  0  0  0  0  0  0  0  0
  -15.7134  -42.7195  -14.3898 O   0  0  0  0  0  0  0  0  0  0  0  0
  -16.1671  -41.4408  -14.6455 C   0  0  0  0  0  0  0  0  0  0  0  0
  -16.1401  -40.6418  -13.4001 C   0  0  0  0  0  0  0  0  0  0  0  0
  -15.3554  -39.5251  -13.2697 C   0  0  0  0  0  0  0  0  0  0  0  0
  -15.3209  -38.7373  -12.0913 C   0  0  0  0  0  0  0  0  0  0  0  0
  -16.0971  -39.0734  -11.0016 C   0  0  0  0  0  0  0  0  0  0  0  0
  -16.8984  -40.1902  -11.0984 C   0  0  0  0  0  0  0  0  0  0  0  0
  -16.8948  -40.9469  -12.3061 C   0  0  0  0  0  0  0  0  0  0  0  0
  -17.8401  -40.7952  -10.1377 C   0  0  0  0  0  0  0  0  0  0  0  0
  -18.9174  -41.3942  -10.6308 O   0  0  0  0  0  0  0  0  0  0  0  0
  -17.8738  -40.8993   -8.7286 N   0  0  0  0  0  0  0  0  0  0  0  0
  -17.7207  -39.7976   -7.7879 C   0  0  1  0  0  0  0  0  0  0  0  0
  -18.8707  -38.8174   -7.8121 C   0  0  0  0  0  0  0  0  0  0  0  0
  -18.7999  -37.8170   -8.9296 C   0  0  0  0  0  0  0  0  0  0  0  0
  -18.0133  -36.7028   -9.0620 C   0  0  0  0  0  0  0  0  0  0  0  0
  -18.1301  -35.9590  -10.2271 C   0  0  0  0  0  0  0  0  0  0  0  0
  -19.0407  -36.3515  -11.2339 C   0  0  0  0  0  0  0  0  0  0  0  0
  -19.8411  -37.4614  -11.1272 C   0  0  0  0  0  0  0  0  0  0  0  0
  -19.6948  -38.1692   -9.9650 C   0  0  0  0  0  0  0  0  0  0  0  0
  -17.4607  -34.8136  -10.6087 O   0  0  0  0  0  0  0  0  0  0  0  0
  -16.1560  -34.4143  -10.8138 C   0  0  0  0  0  0  0  0  0  0  0  0
  -15.2850  -35.3269  -11.6053 C   0  0  0  0  0  0  0  0  0  0  0  0
  -14.0876  -35.8236  -10.8277 C   0  0  0  0  0  0  0  0  0  0  0  0
  -13.4246  -37.0292  -11.4632 C   0  0  0  0  0  0  0  0  0  0  0  0
  -14.4085  -37.6560  -12.3113 N   0  0  0  0  0  0  0  0  0  0  0  0
  -17.5554  -40.3364   -6.3854 C   0  0  2  0  0  0  0  0  0  0  0  0
  -16.7141  -39.5416   -5.6237 O   0  0  0  0  0  0  0  0  0  0  0  0
  -17.0140  -41.7332   -6.4577 C   0  0  0  0  0  0  0  0  0  0  0  0
  -18.0071  -42.7188   -6.0522 N   0  0  0  0  0  0  0  0  0  0  0  0
  -18.8070  -43.0174   -7.2234 C   0  0  1  0  0  0  0  0  0  0  0  0
  -18.5341  -44.4506   -7.6346 C   0  0  0  0  0  0  0  0  0  0  0  0
  -18.8430  -45.4480   -6.5598 C   0  0  0  0  0  0  0  0  0  0  0  0
  -17.6559  -45.8211   -5.7364 C   0  0  0  0  0  0  0  0  0  0  0  0
  -19.3808  -46.7008   -7.2269 C   0  0  0  0  0  0  0  0  0  0  0  0
  -19.9038  -44.9835   -5.7070 O   0  0  0  0  0  0  0  0  0  0  0  0
  -20.7734  -43.9812   -6.1503 C   0  0  0  0  0  0  0  0  0  0  0  0
  -22.1093  -43.9649   -5.8593 C   0  0  0  0  0  0  0  0  0  0  0  0
  -22.9489  -42.9430   -6.3218 C   0  0  0  0  0  0  0  0  0  0  0  0
  -22.4280  -41.9277   -7.0869 C   0  0  0  0  0  0  0  0  0  0  0  0
  -21.0854  -41.9299   -7.3882 C   0  0  0  0  0  0  0  0  0  0  0  0
  -20.2653  -42.9574   -6.9184 C   0  0  0  0  0  0  0  0  0  0  0  0
  -23.2871  -40.8128   -7.6122 C   0  0  0  0  0  0  0  0  0  0  0  0
  -24.0621  -41.2467   -8.8196 C   0  0  0  0  0  0  0  0  0  0  0  0
  -22.4351  -39.6035   -7.9322 C   0  0  0  0  0  0  0  0  0  0  0  0
  1  2  1  0
  2  3  1  0
  3  4  1  0
  4  5  2  0
  5  6  1  0
  6  7  2  0
  7  8  1  0
  8  9  2  0
  8 10  1  0
 10 11  2  0
 10 12  1  0
 12 13  1  0
 13 14  1  1
 14 15  1  0
 15 16  2  0
 16 17  1  0
 17 18  2  0
 18 19  1  0
 19 20  2  0
 17 21  1  0
 21 22  1  0
 22 23  1  0
 23 24  1  0
 24 25  1  0
 25 26  1  0
 13 27  1  0
 27 28  1  1
 27 29  1  0
 29 30  1  0
 31 30  1  1
 31 32  1  0
 32 33  1  0
 33 34  1  0
 33 35  1  0
 33 36  1  0
 36 37  1  0
 37 38  2  0
 38 39  1  0
 39 40  2  0
 40 41  1  0
 41 42  2  0
 40 43  1  0
 43 44  1  0
 43 45  1  0
  9  4  1  0
 20 15  1  0
 26  6  1  0
 42 37  1  0
 42 31  1  0
M  END
$$$$
