
     RDKit          3D

 44 48  0  0  0  0  0  0  0  0999 V2000
  -18.4199  -48.6542  -10.2479 C   0  0  0  0  0  0  0  0  0  0  0  0
  -18.4256  -47.3935   -9.4685 C   0  0  0  0  0  0  0  0  0  0  0  0
  -17.3672  -46.7893   -9.3699 O   0  0  0  0  0  0  0  0  0  0  0  0
  -19.6244  -46.8222   -8.8087 C   0  0  0  0  0  0  0  0  0  0  0  0
  -20.3300  -45.9640   -9.6345 O   0  0  0  0  0  0  0  0  0  0  0  0
  -20.5009  -44.5926   -9.4395 C   0  0  0  0  0  0  0  0  0  0  0  0
  -21.6890  -43.9559   -9.6618 C   0  0  0  0  0  0  0  0  0  0  0  0
  -21.8526  -42.5714   -9.4649 C   0  0  0  0  0  0  0  0  0  0  0  0
  -20.7848  -41.7978   -9.0291 C   0  0  0  0  0  0  0  0  0  0  0  0
  -19.5760  -42.3991   -8.7933 C   0  0  0  0  0  0  0  0  0  0  0  0
  -19.4750  -43.8011   -9.0113 C   0  0  0  0  0  0  0  0  0  0  0  0
  -18.2878  -41.8290   -8.3206 C   0  0  0  0  0  0  0  0  0  0  0  0
  -17.4553  -42.7011   -7.7791 O   0  0  0  0  0  0  0  0  0  0  0  0
  -17.7317  -40.5564   -8.3131 N   0  0  0  0  0  0  0  0  0  0  0  0
  -18.3079  -39.3467   -7.7707 C   0  0  1  0  0  0  0  0  0  0  0  0
  -18.7743  -39.4316   -6.3832 C   0  0  0  0  0  0  0  0  0  0  0  0
  -20.2161  -39.6330   -6.0717 C   0  0  0  0  0  0  0  0  0  0  0  0
  -21.3600  -39.0277   -6.5385 C   0  0  0  0  0  0  0  0  0  0  0  0
  -22.5623  -39.4517   -6.0456 C   0  0  0  0  0  0  0  0  0  0  0  0
  -23.9402  -38.9997   -6.3836 C   0  0  0  0  0  0  0  0  0  0  0  0
  -24.5044  -39.6364   -7.6445 C   0  0  0  0  0  0  0  0  0  0  0  0
  -23.9552  -41.0316   -7.8418 C   0  0  0  0  0  0  0  0  0  0  0  0
  -24.2316  -41.5681   -9.2179 C   0  0  0  0  0  0  0  0  0  0  0  0
  -23.1392  -42.1830   -9.7619 O   0  0  0  0  0  0  0  0  0  0  0  0
  -22.6180  -40.4880   -5.0788 C   0  0  0  0  0  0  0  0  0  0  0  0
  -21.5095  -41.1163   -4.5863 C   0  0  0  0  0  0  0  0  0  0  0  0
  -20.3235  -40.6652   -5.1040 C   0  0  0  0  0  0  0  0  0  0  0  0
  -17.5367  -38.1118   -8.0219 C   0  0  2  0  0  0  0  0  0  0  0  0
  -18.3985  -37.0347   -8.3941 O   0  0  0  0  0  0  0  0  0  0  0  0
  -16.4335  -38.1214   -9.0032 C   0  0  0  0  0  0  0  0  0  0  0  0
  -15.4695  -39.1646   -8.9053 N   0  0  0  0  0  0  0  0  0  0  0  0
  -15.1680  -39.7515  -10.2156 C   0  0  0  0  0  0  0  0  0  0  0  0
  -15.5465  -41.1587  -10.4686 C   0  0  0  0  0  0  0  0  0  0  0  0
  -16.3613  -40.0366  -11.1308 C   0  0  0  0  0  0  0  0  0  0  0  0
  -14.0044  -39.1411  -10.8905 C   0  0  0  0  0  0  0  0  0  0  0  0
  -13.8457  -37.7998  -11.0660 C   0  0  0  0  0  0  0  0  0  0  0  0
  -12.7358  -37.3067  -11.7097 C   0  0  0  0  0  0  0  0  0  0  0  0
  -11.7899  -38.1708  -12.1735 C   0  0  0  0  0  0  0  0  0  0  0  0
  -11.9552  -39.5341  -11.9927 C   0  0  0  0  0  0  0  0  0  0  0  0
  -13.0486  -39.9712  -11.3619 N   0  0  0  0  0  0  0  0  0  0  0  0
  -12.5665  -35.8491  -11.8979 C   0  0  0  0  0  0  0  0  0  0  0  0
  -13.8739  -35.1027  -11.9133 C   0  0  0  0  0  0  0  0  0  0  0  0
  -11.6746  -35.2895  -10.8214 C   0  0  0  0  0  0  0  0  0  0  0  0
  -11.8694  -35.6189  -13.2329 C   0  0  0  0  0  0  0  0  0  0  0  0
  1  2  1  0
  2  3  2  0
  2  4  1  0
  4  5  1  0
  5  6  1  0
  6  7  2  0
  7  8  1  0
  8  9  2  0
  9 10  1  0
 10 11  2  0
 10 12  1  0
 12 13  2  0
 12 14  1  0
 14 15  1  0
 15 16  1  1
 16 17  1  0
 17 18  1  0
 18 19  2  0
 19 20  1  0
 20 21  1  0
 21 22  1  0
 22 23  1  0
 23 24  1  0
 19 25  1  0
 25 26  2  0
 26 27  1  0
 15 28  1  0
 28 29  1  6
 28 30  1  0
 30 31  1  0
 31 32  1  0
 32 33  1  0
 33 34  1  0
 32 35  1  0
 35 36  2  0
 36 37  1  0
 37 38  2  0
 38 39  1  0
 39 40  2  0
 37 41  1  0
 41 42  1  0
 41 43  1  0
 41 44  1  0
 11  6  1  0
 24  8  1  0
 27 17  2  0
 34 32  1  0
 40 35  1  0
M  END
$$$$
