
     RDKit          3D

 44 48  0  0  0  0  0  0  0  0999 V2000
  -20.0863  -48.2482   -7.0422 C   0  0  0  0  0  0  0  0  0  0  0  0
  -18.9137  -48.2113   -7.9479 C   0  0  0  0  0  0  0  0  0  0  0  0
  -18.2557  -49.2360   -8.0570 O   0  0  0  0  0  0  0  0  0  0  0  0
  -18.4933  -47.0208   -8.7256 C   0  0  0  0  0  0  0  0  0  0  0  0
  -19.5668  -46.2832   -9.1944 O   0  0  0  0  0  0  0  0  0  0  0  0
  -19.7340  -44.9036   -9.0651 C   0  0  0  0  0  0  0  0  0  0  0  0
  -20.8317  -44.2435   -9.5403 C   0  0  0  0  0  0  0  0  0  0  0  0
  -20.9918  -42.8509   -9.4079 C   0  0  0  0  0  0  0  0  0  0  0  0
  -20.0147  -42.0934   -8.7755 C   0  0  0  0  0  0  0  0  0  0  0  0
  -18.8986  -42.7183   -8.2835 C   0  0  0  0  0  0  0  0  0  0  0  0
  -18.7958  -44.1273   -8.4492 C   0  0  0  0  0  0  0  0  0  0  0  0
  -17.7193  -42.1687   -7.5656 C   0  0  0  0  0  0  0  0  0  0  0  0
  -17.0423  -43.0474   -6.8471 O   0  0  0  0  0  0  0  0  0  0  0  0
  -17.1398  -40.9104   -7.4675 N   0  0  0  0  0  0  0  0  0  0  0  0
  -17.7799  -39.6738   -7.0791 C   0  0  1  0  0  0  0  0  0  0  0  0
  -18.5246  -39.7129   -5.8167 C   0  0  0  0  0  0  0  0  0  0  0  0
  -20.0049  -39.8710   -5.8062 C   0  0  0  0  0  0  0  0  0  0  0  0
  -21.0098  -39.2494   -6.5109 C   0  0  0  0  0  0  0  0  0  0  0  0
  -22.2998  -39.6313   -6.2692 C   0  0  0  0  0  0  0  0  0  0  0  0
  -23.5645  -39.1539   -6.8933 C   0  0  0  0  0  0  0  0  0  0  0  0
  -23.8751  -39.8074   -8.2313 C   0  0  0  0  0  0  0  0  0  0  0  0
  -23.3380  -41.2202   -8.2843 C   0  0  0  0  0  0  0  0  0  0  0  0
  -23.3402  -41.7835   -9.6772 C   0  0  0  0  0  0  0  0  0  0  0  0
  -22.1776  -42.4384   -9.9719 O   0  0  0  0  0  0  0  0  0  0  0  0
  -22.5839  -40.6417   -5.3153 C   0  0  0  0  0  0  0  0  0  0  0  0
  -21.6196  -41.2848   -4.5924 C   0  0  0  0  0  0  0  0  0  0  0  0
  -20.3396  -40.8760   -4.8621 C   0  0  0  0  0  0  0  0  0  0  0  0
  -16.9377  -38.4649   -7.1889 C   0  0  2  0  0  0  0  0  0  0  0  0
  -17.5976  -37.4459   -7.9423 O   0  0  0  0  0  0  0  0  0  0  0  0
  -15.5705  -38.5692   -7.7365 C   0  0  0  0  0  0  0  0  0  0  0  0
  -15.0355  -39.8733   -7.9375 N   0  0  0  0  0  0  0  0  0  0  0  0
  -13.7343  -39.8293   -8.6134 C   0  0  0  0  0  0  0  0  0  0  0  0
  -12.5508  -40.3754   -7.9142 C   0  0  0  0  0  0  0  0  0  0  0  0
  -13.1588  -41.1680   -9.0818 C   0  0  0  0  0  0  0  0  0  0  0  0
  -13.6035  -38.7265   -9.5874 C   0  0  0  0  0  0  0  0  0  0  0  0
  -14.6615  -38.0510  -10.1162 C   0  0  0  0  0  0  0  0  0  0  0  0
  -14.4597  -37.0377  -11.0229 C   0  0  0  0  0  0  0  0  0  0  0  0
  -13.1895  -36.7103  -11.3916 C   0  0  0  0  0  0  0  0  0  0  0  0
  -12.1166  -37.3997  -10.8512 C   0  0  0  0  0  0  0  0  0  0  0  0
  -12.3569  -38.3777   -9.9735 N   0  0  0  0  0  0  0  0  0  0  0  0
  -15.6112  -36.3057  -11.5946 C   0  0  0  0  0  0  0  0  0  0  0  0
  -15.3378  -34.8377  -11.7863 C   0  0  0  0  0  0  0  0  0  0  0  0
  -16.0155  -36.9229  -12.9072 C   0  0  0  0  0  0  0  0  0  0  0  0
  -16.7897  -36.4513  -10.6400 C   0  0  0  0  0  0  0  0  0  0  0  0
  1  2  1  0
  2  3  2  0
  2  4  1  0
  4  5  1  0
  5  6  1  0
  6  7  2  0
  7  8  1  0
  8  9  2  0
  9 10  1  0
 10 11  2  0
 10 12  1  0
 12 13  2  0
 12 14  1  0
 14 15  1  0
 15 16  1  1
 16 17  1  0
 17 18  1  0
 18 19  2  0
 19 20  1  0
 20 21  1  0
 21 22  1  0
 22 23  1  0
 23 24  1  0
 19 25  1  0
 25 26  2  0
 26 27  1  0
 15 28  1  0
 28 29  1  6
 28 30  1  0
 30 31  1  0
 31 32  1  0
 32 33  1  0
 33 34  1  0
 32 35  1  0
 35 36  2  0
 36 37  1  0
 37 38  2  0
 38 39  1  0
 39 40  2  0
 37 41  1  0
 41 42  1  0
 41 43  1  0
 41 44  1  0
 11  6  1  0
 24  8  1  0
 27 17  2  0
 34 32  1  0
 40 35  1  0
M  END
$$$$
