
     RDKit          3D

 44 48  0  0  0  0  0  0  0  0999 V2000
  -18.2969  -48.5905   -8.1301 C   0  0  0  0  0  0  0  0  0  0  0  0
  -17.9871  -48.2397   -6.7238 C   0  0  0  0  0  0  0  0  0  0  0  0
  -17.2148  -48.9703   -6.1198 O   0  0  0  0  0  0  0  0  0  0  0  0
  -18.5478  -47.0672   -6.0100 C   0  0  0  0  0  0  0  0  0  0  0  0
  -19.7358  -46.6228   -6.5645 O   0  0  0  0  0  0  0  0  0  0  0  0
  -19.9989  -45.3274   -7.0122 C   0  0  0  0  0  0  0  0  0  0  0  0
  -21.1511  -44.9893   -7.6638 C   0  0  0  0  0  0  0  0  0  0  0  0
  -21.4079  -43.6804   -8.1145 C   0  0  0  0  0  0  0  0  0  0  0  0
  -20.4744  -42.6742   -7.9036 C   0  0  0  0  0  0  0  0  0  0  0  0
  -19.3059  -42.9722   -7.2524 C   0  0  0  0  0  0  0  0  0  0  0  0
  -19.1057  -44.3132   -6.8222 C   0  0  0  0  0  0  0  0  0  0  0  0
  -18.1540  -42.1074   -6.8873 C   0  0  0  0  0  0  0  0  0  0  0  0
  -17.4003  -42.5656   -5.9031 O   0  0  0  0  0  0  0  0  0  0  0  0
  -17.6644  -40.8929   -7.3500 N   0  0  0  0  0  0  0  0  0  0  0  0
  -18.3832  -39.6454   -7.4795 C   0  0  1  0  0  0  0  0  0  0  0  0
  -19.0957  -39.1950   -6.2799 C   0  0  0  0  0  0  0  0  0  0  0  0
  -20.5603  -39.4172   -6.1313 C   0  0  0  0  0  0  0  0  0  0  0  0
  -21.6222  -39.2048   -6.9798 C   0  0  0  0  0  0  0  0  0  0  0  0
  -22.8759  -39.5227   -6.5376 C   0  0  0  0  0  0  0  0  0  0  0  0
  -24.1848  -39.4219   -7.2401 C   0  0  0  0  0  0  0  0  0  0  0  0
  -24.4764  -40.5913   -8.1681 C   0  0  0  0  0  0  0  0  0  0  0  0
  -23.8405  -41.8641   -7.6556 C   0  0  0  0  0  0  0  0  0  0  0  0
  -23.8323  -42.9573   -8.6864 C   0  0  0  0  0  0  0  0  0  0  0  0
  -22.6322  -43.6088   -8.7394 O   0  0  0  0  0  0  0  0  0  0  0  0
  -23.0660  -40.0559   -5.2372 C   0  0  0  0  0  0  0  0  0  0  0  0
  -22.0426  -40.2825   -4.3612 C   0  0  0  0  0  0  0  0  0  0  0  0
  -20.8015  -39.9526   -4.8395 C   0  0  0  0  0  0  0  0  0  0  0  0
  -17.6325  -38.5478   -8.1236 C   0  0  2  0  0  0  0  0  0  0  0  0
  -18.3258  -38.0563   -9.2722 O   0  0  0  0  0  0  0  0  0  0  0  0
  -16.2325  -38.7612   -8.5411 C   0  0  0  0  0  0  0  0  0  0  0  0
  -15.5441  -39.8839   -7.9999 N   0  0  0  0  0  0  0  0  0  0  0  0
  -14.2078  -40.0368   -8.5856 C   0  0  0  0  0  0  0  0  0  0  0  0
  -13.0319  -40.0193   -7.6885 C   0  0  0  0  0  0  0  0  0  0  0  0
  -13.4814  -41.3541   -8.3029 C   0  0  0  0  0  0  0  0  0  0  0  0
  -14.1095  -39.5649   -9.9818 C   0  0  0  0  0  0  0  0  0  0  0  0
  -13.6253  -38.3426  -10.3380 C   0  0  0  0  0  0  0  0  0  0  0  0
  -13.5697  -37.9724  -11.6606 C   0  0  0  0  0  0  0  0  0  0  0  0
  -14.0032  -38.8388  -12.6187 C   0  0  0  0  0  0  0  0  0  0  0  0
  -14.4945  -40.0809  -12.2520 C   0  0  0  0  0  0  0  0  0  0  0  0
  -14.5312  -40.4008  -10.9555 N   0  0  0  0  0  0  0  0  0  0  0  0
  -13.0426  -36.6443  -12.0438 C   0  0  0  0  0  0  0  0  0  0  0  0
  -11.5414  -36.5625  -11.9641 C   0  0  0  0  0  0  0  0  0  0  0  0
  -13.4977  -36.2895  -13.4347 C   0  0  0  0  0  0  0  0  0  0  0  0
  -13.6284  -35.6071  -11.0939 C   0  0  0  0  0  0  0  0  0  0  0  0
  1  2  1  0
  2  3  2  0
  2  4  1  0
  4  5  1  0
  5  6  1  0
  6  7  2  0
  7  8  1  0
  8  9  2  0
  9 10  1  0
 10 11  2  0
 10 12  1  0
 12 13  2  0
 12 14  1  0
 14 15  1  0
 15 16  1  1
 16 17  1  0
 17 18  1  0
 18 19  2  0
 19 20  1  0
 20 21  1  0
 21 22  1  0
 22 23  1  0
 23 24  1  0
 19 25  1  0
 25 26  2  0
 26 27  1  0
 15 28  1  0
 28 29  1  6
 28 30  1  0
 30 31  1  0
 31 32  1  0
 32 33  1  0
 33 34  1  0
 32 35  1  0
 35 36  2  0
 36 37  1  0
 37 38  2  0
 38 39  1  0
 39 40  2  0
 37 41  1  0
 41 42  1  0
 41 43  1  0
 41 44  1  0
 11  6  1  0
 24  8  1  0
 27 17  2  0
 34 32  1  0
 40 35  1  0
M  END
$$$$
