
     RDKit          3D

 44 48  0  0  0  0  0  0  0  0999 V2000
  -18.0591  -48.8840  -10.3455 C   0  0  0  0  0  0  0  0  0  0  0  0
  -18.1625  -47.5400   -9.7294 C   0  0  0  0  0  0  0  0  0  0  0  0
  -17.1525  -47.0769   -9.2188 O   0  0  0  0  0  0  0  0  0  0  0  0
  -19.4022  -46.7271   -9.6957 C   0  0  0  0  0  0  0  0  0  0  0  0
  -19.4173  -45.7366  -10.6626 O   0  0  0  0  0  0  0  0  0  0  0  0
  -19.4846  -44.3623  -10.4290 C   0  0  0  0  0  0  0  0  0  0  0  0
  -20.5202  -43.5868  -10.8678 C   0  0  0  0  0  0  0  0  0  0  0  0
  -20.5795  -42.2004  -10.6300 C   0  0  0  0  0  0  0  0  0  0  0  0
  -19.5623  -41.5692   -9.9262 C   0  0  0  0  0  0  0  0  0  0  0  0
  -18.5059  -42.3123   -9.4676 C   0  0  0  0  0  0  0  0  0  0  0  0
  -18.5043  -43.7083   -9.7406 C   0  0  0  0  0  0  0  0  0  0  0  0
  -17.3044  -41.9096   -8.6916 C   0  0  0  0  0  0  0  0  0  0  0  0
  -16.7093  -42.8892   -8.0335 O   0  0  0  0  0  0  0  0  0  0  0  0
  -16.6355  -40.7098   -8.4873 N   0  0  0  0  0  0  0  0  0  0  0  0
  -17.1901  -39.4618   -8.0135 C   0  0  1  0  0  0  0  0  0  0  0  0
  -17.9617  -39.5409   -6.7693 C   0  0  0  0  0  0  0  0  0  0  0  0
  -19.4495  -39.5872   -6.7933 C   0  0  0  0  0  0  0  0  0  0  0  0
  -20.3908  -38.8396   -7.4624 C   0  0  0  0  0  0  0  0  0  0  0  0
  -21.7103  -39.1405   -7.2705 C   0  0  0  0  0  0  0  0  0  0  0  0
  -22.9230  -38.5227   -7.8745 C   0  0  0  0  0  0  0  0  0  0  0  0
  -23.2532  -39.0468   -9.2637 C   0  0  0  0  0  0  0  0  0  0  0  0
  -22.8213  -40.4880   -9.4182 C   0  0  0  0  0  0  0  0  0  0  0  0
  -22.8364  -40.9414  -10.8506 C   0  0  0  0  0  0  0  0  0  0  0  0
  -21.7195  -41.6577  -11.1779 O   0  0  0  0  0  0  0  0  0  0  0  0
  -22.0881  -40.1964   -6.4023 C   0  0  0  0  0  0  0  0  0  0  0  0
  -21.1892  -40.9638   -5.7173 C   0  0  0  0  0  0  0  0  0  0  0  0
  -19.8772  -40.6333   -5.9352 C   0  0  0  0  0  0  0  0  0  0  0  0
  -16.2586  -38.3150   -8.0165 C   0  0  2  0  0  0  0  0  0  0  0  0
  -16.8762  -37.1529   -8.5729 O   0  0  0  0  0  0  0  0  0  0  0  0
  -14.9408  -38.4404   -8.6705 C   0  0  0  0  0  0  0  0  0  0  0  0
  -14.0791  -39.4842   -8.2286 N   0  0  0  0  0  0  0  0  0  0  0  0
  -13.5782  -40.2874   -9.3494 C   0  0  0  0  0  0  0  0  0  0  0  0
  -12.7341  -41.4664   -9.0580 C   0  0  0  0  0  0  0  0  0  0  0  0
  -14.1841  -41.6828   -9.5184 C   0  0  0  0  0  0  0  0  0  0  0  0
  -13.4195  -39.5270  -10.6057 C   0  0  0  0  0  0  0  0  0  0  0  0
  -13.2635  -38.1750  -10.6606 C   0  0  0  0  0  0  0  0  0  0  0  0
  -13.1265  -37.5369  -11.8704 C   0  0  0  0  0  0  0  0  0  0  0  0
  -13.1470  -38.2673  -13.0204 C   0  0  0  0  0  0  0  0  0  0  0  0
  -13.3055  -39.6420  -12.9599 C   0  0  0  0  0  0  0  0  0  0  0  0
  -13.4355  -40.2223  -11.7637 N   0  0  0  0  0  0  0  0  0  0  0  0
  -12.9566  -36.0683  -11.9260 C   0  0  0  0  0  0  0  0  0  0  0  0
  -11.7245  -35.5915  -11.2042 C   0  0  0  0  0  0  0  0  0  0  0  0
  -12.9167  -35.6069  -13.3589 C   0  0  0  0  0  0  0  0  0  0  0  0
  -14.1725  -35.4230  -11.2729 C   0  0  0  0  0  0  0  0  0  0  0  0
  1  2  1  0
  2  3  2  0
  2  4  1  0
  4  5  1  0
  5  6  1  0
  6  7  2  0
  7  8  1  0
  8  9  2  0
  9 10  1  0
 10 11  2  0
 10 12  1  0
 12 13  2  0
 12 14  1  0
 14 15  1  0
 15 16  1  1
 16 17  1  0
 17 18  1  0
 18 19  2  0
 19 20  1  0
 20 21  1  0
 21 22  1  0
 22 23  1  0
 23 24  1  0
 19 25  1  0
 25 26  2  0
 26 27  1  0
 15 28  1  0
 28 29  1  6
 28 30  1  0
 30 31  1  0
 31 32  1  0
 32 33  1  0
 33 34  1  0
 32 35  1  0
 35 36  2  0
 36 37  1  0
 37 38  2  0
 38 39  1  0
 39 40  2  0
 37 41  1  0
 41 42  1  0
 41 43  1  0
 41 44  1  0
 11  6  1  0
 24  8  1  0
 27 17  2  0
 34 32  1  0
 40 35  1  0
M  END
$$$$
