
     RDKit          3D

 44 48  0  0  0  0  0  0  0  0999 V2000
  -21.3431  -46.1016   -4.2016 C   0  0  0  0  0  0  0  0  0  0  0  0
  -19.8891  -45.9377   -3.9656 C   0  0  0  0  0  0  0  0  0  0  0  0
  -19.4455  -46.3322   -2.8966 O   0  0  0  0  0  0  0  0  0  0  0  0
  -18.9458  -45.3330   -4.9369 C   0  0  0  0  0  0  0  0  0  0  0  0
  -19.4433  -45.3232   -6.2286 O   0  0  0  0  0  0  0  0  0  0  0  0
  -19.7042  -44.1893   -6.9993 C   0  0  0  0  0  0  0  0  0  0  0  0
  -20.9076  -43.9688   -7.6075 C   0  0  0  0  0  0  0  0  0  0  0  0
  -21.1622  -42.8232   -8.3854 C   0  0  0  0  0  0  0  0  0  0  0  0
  -20.1730  -41.8641   -8.5594 C   0  0  0  0  0  0  0  0  0  0  0  0
  -18.9521  -42.0476   -7.9645 C   0  0  0  0  0  0  0  0  0  0  0  0
  -18.7573  -43.2257   -7.1916 C   0  0  0  0  0  0  0  0  0  0  0  0
  -17.7345  -41.1958   -7.9720 C   0  0  0  0  0  0  0  0  0  0  0  0
  -16.8948  -41.4115   -6.9745 O   0  0  0  0  0  0  0  0  0  0  0  0
  -17.2527  -40.1949   -8.8055 N   0  0  0  0  0  0  0  0  0  0  0  0
  -17.9329  -38.9871   -9.2157 C   0  0  1  0  0  0  0  0  0  0  0  0
  -18.4907  -38.1725   -8.1317 C   0  0  0  0  0  0  0  0  0  0  0  0
  -19.9373  -38.2441   -7.7874 C   0  0  0  0  0  0  0  0  0  0  0  0
  -21.0775  -38.2050   -8.5562 C   0  0  0  0  0  0  0  0  0  0  0  0
  -22.2859  -38.3007   -7.9246 C   0  0  0  0  0  0  0  0  0  0  0  0
  -23.6597  -38.3110   -8.4989 C   0  0  0  0  0  0  0  0  0  0  0  0
  -24.0967  -39.6701   -9.0236 C   0  0  0  0  0  0  0  0  0  0  0  0
  -23.4575  -40.7897   -8.2330 C   0  0  0  0  0  0  0  0  0  0  0  0
  -23.6053  -42.1250   -8.9060 C   0  0  0  0  0  0  0  0  0  0  0  0
  -22.4444  -42.8456   -8.8853 O   0  0  0  0  0  0  0  0  0  0  0  0
  -22.3515  -38.4358   -6.5143 C   0  0  0  0  0  0  0  0  0  0  0  0
  -21.2470  -38.4782   -5.7115 C   0  0  0  0  0  0  0  0  0  0  0  0
  -20.0546  -38.3801   -6.3798 C   0  0  0  0  0  0  0  0  0  0  0  0
  -17.2164  -38.1665  -10.2139 C   0  0  2  0  0  0  0  0  0  0  0  0
  -17.6640  -38.4618  -11.5382 O   0  0  0  0  0  0  0  0  0  0  0  0
  -15.7408  -38.1860  -10.2583 C   0  0  0  0  0  0  0  0  0  0  0  0
  -15.0377  -37.6931   -9.1225 N   0  0  0  0  0  0  0  0  0  0  0  0
  -13.5966  -37.5903   -9.3771 C   0  0  0  0  0  0  0  0  0  0  0  0
  -13.0007  -36.2490   -9.5599 C   0  0  0  0  0  0  0  0  0  0  0  0
  -12.7404  -37.0084   -8.2497 C   0  0  0  0  0  0  0  0  0  0  0  0
  -13.0204  -38.7780  -10.0399 C   0  0  0  0  0  0  0  0  0  0  0  0
  -12.8498  -39.9820   -9.4263 C   0  0  0  0  0  0  0  0  0  0  0  0
  -12.3008  -41.0414  -10.1088 C   0  0  0  0  0  0  0  0  0  0  0  0
  -11.9266  -40.8805  -11.4090 C   0  0  0  0  0  0  0  0  0  0  0  0
  -12.1022  -39.6545  -12.0291 C   0  0  0  0  0  0  0  0  0  0  0  0
  -12.6393  -38.6511  -11.3296 N   0  0  0  0  0  0  0  0  0  0  0  0
  -12.1177  -42.3479   -9.4393 C   0  0  0  0  0  0  0  0  0  0  0  0
  -10.8353  -43.0334   -9.8293 C   0  0  0  0  0  0  0  0  0  0  0  0
  -12.1665  -42.1737   -7.9444 C   0  0  0  0  0  0  0  0  0  0  0  0
  -13.2804  -43.2512   -9.8313 C   0  0  0  0  0  0  0  0  0  0  0  0
  1  2  1  0
  2  3  2  0
  2  4  1  0
  4  5  1  0
  5  6  1  0
  6  7  2  0
  7  8  1  0
  8  9  2  0
  9 10  1  0
 10 11  2  0
 10 12  1  0
 12 13  2  0
 12 14  1  0
 14 15  1  0
 15 16  1  1
 16 17  1  0
 17 18  1  0
 18 19  2  0
 19 20  1  0
 20 21  1  0
 21 22  1  0
 22 23  1  0
 23 24  1  0
 19 25  1  0
 25 26  2  0
 26 27  1  0
 15 28  1  0
 28 29  1  6
 28 30  1  0
 30 31  1  0
 31 32  1  0
 32 33  1  0
 33 34  1  0
 32 35  1  0
 35 36  2  0
 36 37  1  0
 37 38  2  0
 38 39  1  0
 39 40  2  0
 37 41  1  0
 41 42  1  0
 41 43  1  0
 41 44  1  0
 11  6  1  0
 24  8  1  0
 27 17  2  0
 34 32  1  0
 40 35  1  0
M  END
$$$$
