
     RDKit          3D

 44 48  0  0  0  0  0  0  0  0999 V2000
  -18.0978  -46.6003   -4.9385 C   0  0  0  0  0  0  0  0  0  0  0  0
  -17.8316  -47.2157   -6.2604 C   0  0  0  0  0  0  0  0  0  0  0  0
  -16.7852  -47.8344   -6.3915 O   0  0  0  0  0  0  0  0  0  0  0  0
  -18.7479  -47.1313   -7.4232 C   0  0  0  0  0  0  0  0  0  0  0  0
  -19.9016  -46.4195   -7.1431 O   0  0  0  0  0  0  0  0  0  0  0  0
  -20.1598  -45.0975   -7.5087 C   0  0  0  0  0  0  0  0  0  0  0  0
  -21.3923  -44.6689   -7.9132 C   0  0  0  0  0  0  0  0  0  0  0  0
  -21.6441  -43.3338   -8.2827 C   0  0  0  0  0  0  0  0  0  0  0  0
  -20.6216  -42.3948   -8.2450 C   0  0  0  0  0  0  0  0  0  0  0  0
  -19.3706  -42.7846   -7.8434 C   0  0  0  0  0  0  0  0  0  0  0  0
  -19.1804  -44.1475   -7.4832 C   0  0  0  0  0  0  0  0  0  0  0  0
  -18.1138  -42.0049   -7.7003 C   0  0  0  0  0  0  0  0  0  0  0  0
  -17.2136  -42.5381   -6.8928 O   0  0  0  0  0  0  0  0  0  0  0  0
  -17.6442  -40.8106   -8.2312 N   0  0  0  0  0  0  0  0  0  0  0  0
  -18.2886  -39.5171   -8.1954 C   0  0  1  0  0  0  0  0  0  0  0  0
  -18.7190  -39.0580   -6.8711 C   0  0  0  0  0  0  0  0  0  0  0  0
  -20.1372  -39.1920   -6.4385 C   0  0  0  0  0  0  0  0  0  0  0  0
  -21.3286  -38.8886   -7.0559 C   0  0  0  0  0  0  0  0  0  0  0  0
  -22.4892  -39.1398   -6.3789 C   0  0  0  0  0  0  0  0  0  0  0  0
  -23.9010  -38.9365   -6.8060 C   0  0  0  0  0  0  0  0  0  0  0  0
  -24.4477  -40.0577   -7.6765 C   0  0  0  0  0  0  0  0  0  0  0  0
  -23.8106  -41.3824   -7.3210 C   0  0  0  0  0  0  0  0  0  0  0  0
  -24.0792  -42.4434   -8.3504 C   0  0  0  0  0  0  0  0  0  0  0  0
  -22.9598  -43.1672   -8.6510 O   0  0  0  0  0  0  0  0  0  0  0  0
  -22.4550  -39.6978   -5.0754 C   0  0  0  0  0  0  0  0  0  0  0  0
  -21.2968  -40.0137   -4.4236 C   0  0  0  0  0  0  0  0  0  0  0  0
  -20.1548  -39.7486   -5.1334 C   0  0  0  0  0  0  0  0  0  0  0  0
  -17.6073  -38.4506   -8.9578 C   0  0  2  0  0  0  0  0  0  0  0  0
  -18.4969  -37.8404   -9.8946 O   0  0  0  0  0  0  0  0  0  0  0  0
  -16.3665  -38.7545   -9.6979 C   0  0  0  0  0  0  0  0  0  0  0  0
  -15.3502  -39.4821   -9.0161 N   0  0  0  0  0  0  0  0  0  0  0  0
  -14.5328  -40.2733   -9.9424 C   0  0  0  0  0  0  0  0  0  0  0  0
  -13.7494  -41.4084   -9.4080 C   0  0  0  0  0  0  0  0  0  0  0  0
  -15.0117  -41.6973  -10.2353 C   0  0  0  0  0  0  0  0  0  0  0  0
  -14.0740  -39.5203  -11.1274 C   0  0  0  0  0  0  0  0  0  0  0  0
  -13.9631  -38.1634  -11.1688 C   0  0  0  0  0  0  0  0  0  0  0  0
  -13.5327  -37.5330  -12.3120 C   0  0  0  0  0  0  0  0  0  0  0  0
  -13.2154  -38.2760  -13.4091 C   0  0  0  0  0  0  0  0  0  0  0  0
  -13.3293  -39.6556  -13.3625 C   0  0  0  0  0  0  0  0  0  0  0  0
  -13.7515  -40.2282  -12.2318 N   0  0  0  0  0  0  0  0  0  0  0  0
  -13.4129  -36.0590  -12.3531 C   0  0  0  0  0  0  0  0  0  0  0  0
  -14.6421  -35.3550  -11.8431 C   0  0  0  0  0  0  0  0  0  0  0  0
  -12.2095  -35.6163  -11.5635 C   0  0  0  0  0  0  0  0  0  0  0  0
  -13.1881  -35.6395  -13.8004 C   0  0  0  0  0  0  0  0  0  0  0  0
  1  2  1  0
  2  3  2  0
  2  4  1  0
  4  5  1  0
  5  6  1  0
  6  7  2  0
  7  8  1  0
  8  9  2  0
  9 10  1  0
 10 11  2  0
 10 12  1  0
 12 13  2  0
 12 14  1  0
 14 15  1  0
 15 16  1  1
 16 17  1  0
 17 18  1  0
 18 19  2  0
 19 20  1  0
 20 21  1  0
 21 22  1  0
 22 23  1  0
 23 24  1  0
 19 25  1  0
 25 26  2  0
 26 27  1  0
 15 28  1  0
 28 29  1  6
 28 30  1  0
 30 31  1  0
 31 32  1  0
 32 33  1  0
 33 34  1  0
 32 35  1  0
 35 36  2  0
 36 37  1  0
 37 38  2  0
 38 39  1  0
 39 40  2  0
 37 41  1  0
 41 42  1  0
 41 43  1  0
 41 44  1  0
 11  6  1  0
 24  8  1  0
 27 17  2  0
 34 32  1  0
 40 35  1  0
M  END
$$$$
