
     RDKit          3D

 44 48  0  0  0  0  0  0  0  0999 V2000
  -18.0688  -48.8840   -6.1411 C   0  0  0  0  0  0  0  0  0  0  0  0
  -18.3518  -47.9807   -7.2816 C   0  0  0  0  0  0  0  0  0  0  0  0
  -17.4480  -47.7862   -8.0819 O   0  0  0  0  0  0  0  0  0  0  0  0
  -19.6518  -47.3058   -7.5129 C   0  0  0  0  0  0  0  0  0  0  0  0
  -19.7976  -46.1551   -6.7573 O   0  0  0  0  0  0  0  0  0  0  0  0
  -20.0845  -44.8809   -7.2491 C   0  0  0  0  0  0  0  0  0  0  0  0
  -21.3262  -44.5204   -7.6905 C   0  0  0  0  0  0  0  0  0  0  0  0
  -21.6070  -43.2334   -8.1875 C   0  0  0  0  0  0  0  0  0  0  0  0
  -20.6053  -42.2733   -8.2437 C   0  0  0  0  0  0  0  0  0  0  0  0
  -19.3460  -42.5950   -7.8090 C   0  0  0  0  0  0  0  0  0  0  0  0
  -19.1261  -43.9119   -7.3185 C   0  0  0  0  0  0  0  0  0  0  0  0
  -18.1063  -41.7781   -7.7453 C   0  0  0  0  0  0  0  0  0  0  0  0
  -17.1946  -42.2106   -6.8919 O   0  0  0  0  0  0  0  0  0  0  0  0
  -17.6630  -40.6311   -8.3909 N   0  0  0  0  0  0  0  0  0  0  0  0
  -18.3354  -39.3546   -8.4796 C   0  0  1  0  0  0  0  0  0  0  0  0
  -18.7754  -38.7783   -7.2052 C   0  0  0  0  0  0  0  0  0  0  0  0
  -20.1903  -38.9002   -6.7582 C   0  0  0  0  0  0  0  0  0  0  0  0
  -21.3881  -38.6841   -7.3994 C   0  0  0  0  0  0  0  0  0  0  0  0
  -22.5428  -38.8934   -6.6985 C   0  0  0  0  0  0  0  0  0  0  0  0
  -23.9588  -38.7632   -7.1401 C   0  0  0  0  0  0  0  0  0  0  0  0
  -24.4812  -39.9753   -7.8962 C   0  0  0  0  0  0  0  0  0  0  0  0
  -23.8153  -41.2450   -7.4150 C   0  0  0  0  0  0  0  0  0  0  0  0
  -24.0610  -42.4067   -8.3358 C   0  0  0  0  0  0  0  0  0  0  0  0
  -22.9262  -43.1319   -8.5672 O   0  0  0  0  0  0  0  0  0  0  0  0
  -22.4962  -39.3211   -5.3471 C   0  0  0  0  0  0  0  0  0  0  0  0
  -21.3313  -39.5470   -4.6704 C   0  0  0  0  0  0  0  0  0  0  0  0
  -20.1954  -39.3275   -5.4052 C   0  0  0  0  0  0  0  0  0  0  0  0
  -17.6776  -38.3527   -9.3436 C   0  0  2  0  0  0  0  0  0  0  0  0
  -18.5856  -37.8429  -10.3219 O   0  0  0  0  0  0  0  0  0  0  0  0
  -16.4400  -38.7058  -10.0671 C   0  0  0  0  0  0  0  0  0  0  0  0
  -15.3295  -39.1568   -9.2985 N   0  0  0  0  0  0  0  0  0  0  0  0
  -14.5046  -40.1138  -10.0440 C   0  0  0  0  0  0  0  0  0  0  0  0
  -14.0018  -41.3158   -9.3440 C   0  0  0  0  0  0  0  0  0  0  0  0
  -15.1428  -41.4682  -10.3619 C   0  0  0  0  0  0  0  0  0  0  0  0
  -13.7499  -39.5097  -11.1608 C   0  0  0  0  0  0  0  0  0  0  0  0
  -13.3591  -38.2053  -11.1955 C   0  0  0  0  0  0  0  0  0  0  0  0
  -12.6626  -37.7140  -12.2740 C   0  0  0  0  0  0  0  0  0  0  0  0
  -12.3631  -38.5426  -13.3133 C   0  0  0  0  0  0  0  0  0  0  0  0
  -12.7623  -39.8684  -13.2737 C   0  0  0  0  0  0  0  0  0  0  0  0
  -13.4373  -40.3051  -12.2069 N   0  0  0  0  0  0  0  0  0  0  0  0
  -12.2392  -36.2969  -12.3079 C   0  0  0  0  0  0  0  0  0  0  0  0
  -13.3875  -35.3364  -12.1490 C   0  0  0  0  0  0  0  0  0  0  0  0
  -11.2099  -36.0396  -11.2393 C   0  0  0  0  0  0  0  0  0  0  0  0
  -11.5760  -36.0300  -13.6534 C   0  0  0  0  0  0  0  0  0  0  0  0
  1  2  1  0
  2  3  2  0
  2  4  1  0
  4  5  1  0
  5  6  1  0
  6  7  2  0
  7  8  1  0
  8  9  2  0
  9 10  1  0
 10 11  2  0
 10 12  1  0
 12 13  2  0
 12 14  1  0
 14 15  1  0
 15 16  1  1
 16 17  1  0
 17 18  1  0
 18 19  2  0
 19 20  1  0
 20 21  1  0
 21 22  1  0
 22 23  1  0
 23 24  1  0
 19 25  1  0
 25 26  2  0
 26 27  1  0
 15 28  1  0
 28 29  1  6
 28 30  1  0
 30 31  1  0
 31 32  1  0
 32 33  1  0
 33 34  1  0
 32 35  1  0
 35 36  2  0
 36 37  1  0
 37 38  2  0
 38 39  1  0
 39 40  2  0
 37 41  1  0
 41 42  1  0
 41 43  1  0
 41 44  1  0
 11  6  1  0
 24  8  1  0
 27 17  2  0
 34 32  1  0
 40 35  1  0
M  END
$$$$
