
     RDKit          3D

 44 48  0  0  0  0  0  0  0  0999 V2000
  -19.5808  -43.4274    0.0157 C   0  0  0  0  0  0  0  0  0  0  0  0
  -20.8457  -42.8068   -0.4444 C   0  0  0  0  0  0  0  0  0  0  0  0
  -21.8886  -43.2516    0.0134 O   0  0  0  0  0  0  0  0  0  0  0  0
  -20.9255  -41.6883   -1.4147 C   0  0  0  0  0  0  0  0  0  0  0  0
  -21.9351  -41.8606   -2.3459 O   0  0  0  0  0  0  0  0  0  0  0  0
  -21.7707  -41.9426   -3.7294 C   0  0  0  0  0  0  0  0  0  0  0  0
  -22.5613  -42.7239   -4.5236 C   0  0  0  0  0  0  0  0  0  0  0  0
  -22.3874  -42.8030   -5.9185 C   0  0  0  0  0  0  0  0  0  0  0  0
  -21.3834  -42.0712   -6.5389 C   0  0  0  0  0  0  0  0  0  0  0  0
  -20.5694  -41.2739   -5.7774 C   0  0  0  0  0  0  0  0  0  0  0  0
  -20.7958  -41.2375   -4.3736 C   0  0  0  0  0  0  0  0  0  0  0  0
  -19.4411  -40.3895   -6.1683 C   0  0  0  0  0  0  0  0  0  0  0  0
  -19.1495  -39.4375   -5.2992 O   0  0  0  0  0  0  0  0  0  0  0  0
  -18.5917  -40.3236   -7.2651 N   0  0  0  0  0  0  0  0  0  0  0  0
  -18.9599  -40.2403   -8.6605 C   0  0  1  0  0  0  0  0  0  0  0  0
  -19.9077  -39.1761   -9.0052 C   0  0  0  0  0  0  0  0  0  0  0  0
  -21.3565  -39.4697   -9.1823 C   0  0  0  0  0  0  0  0  0  0  0  0
  -22.0268  -40.4481   -9.8794 C   0  0  0  0  0  0  0  0  0  0  0  0
  -23.3931  -40.4486   -9.8394 C   0  0  0  0  0  0  0  0  0  0  0  0
  -24.3615  -41.3880  -10.4695 C   0  0  0  0  0  0  0  0  0  0  0  0
  -24.5771  -42.6701   -9.6800 C   0  0  0  0  0  0  0  0  0  0  0  0
  -24.4123  -42.4293   -8.1960 C   0  0  0  0  0  0  0  0  0  0  0  0
  -24.3022  -43.7085   -7.4155 C   0  0  0  0  0  0  0  0  0  0  0  0
  -23.3080  -43.6588   -6.4792 O   0  0  0  0  0  0  0  0  0  0  0  0
  -24.0912  -39.4623   -9.0969 C   0  0  0  0  0  0  0  0  0  0  0  0
  -23.4681  -38.4724   -8.3912 C   0  0  0  0  0  0  0  0  0  0  0  0
  -22.0994  -38.5046   -8.4544 C   0  0  0  0  0  0  0  0  0  0  0  0
  -17.8352  -40.3123   -9.6160 C   0  0  2  0  0  0  0  0  0  0  0  0
  -18.1239  -41.2190  -10.6817 O   0  0  0  0  0  0  0  0  0  0  0  0
  -16.4820  -40.6529   -9.1336 C   0  0  0  0  0  0  0  0  0  0  0  0
  -16.1064  -40.1961   -7.8385 N   0  0  0  0  0  0  0  0  0  0  0  0
  -16.1016  -38.7313   -7.7583 C   0  0  0  0  0  0  0  0  0  0  0  0
  -17.0509  -38.0662   -6.8395 C   0  0  0  0  0  0  0  0  0  0  0  0
  -15.5615  -38.1166   -6.4648 C   0  0  0  0  0  0  0  0  0  0  0  0
  -15.6444  -38.0664   -8.9956 C   0  0  0  0  0  0  0  0  0  0  0  0
  -15.5612  -36.7151   -9.1453 C   0  0  0  0  0  0  0  0  0  0  0  0
  -15.1305  -36.1697  -10.3313 C   0  0  0  0  0  0  0  0  0  0  0  0
  -14.7850  -36.9916  -11.3616 C   0  0  0  0  0  0  0  0  0  0  0  0
  -14.8709  -38.3652  -11.2049 C   0  0  0  0  0  0  0  0  0  0  0  0
  -15.2945  -38.8538  -10.0359 N   0  0  0  0  0  0  0  0  0  0  0  0
  -15.0406  -34.7016  -10.4900 C   0  0  0  0  0  0  0  0  0  0  0  0
  -16.1799  -33.9686   -9.8332 C   0  0  0  0  0  0  0  0  0  0  0  0
  -13.7308  -34.2017   -9.9405 C   0  0  0  0  0  0  0  0  0  0  0  0
  -15.0621  -34.3813  -11.9794 C   0  0  0  0  0  0  0  0  0  0  0  0
  1  2  1  0
  2  3  2  0
  2  4  1  0
  4  5  1  0
  5  6  1  0
  6  7  2  0
  7  8  1  0
  8  9  2  0
  9 10  1  0
 10 11  2  0
 10 12  1  0
 12 13  2  0
 12 14  1  0
 14 15  1  0
 15 16  1  1
 16 17  1  0
 17 18  1  0
 18 19  2  0
 19 20  1  0
 20 21  1  0
 21 22  1  0
 22 23  1  0
 23 24  1  0
 19 25  1  0
 25 26  2  0
 26 27  1  0
 15 28  1  0
 28 29  1  6
 28 30  1  0
 30 31  1  0
 31 32  1  0
 32 33  1  0
 33 34  1  0
 32 35  1  0
 35 36  2  0
 36 37  1  0
 37 38  2  0
 38 39  1  0
 39 40  2  0
 37 41  1  0
 41 42  1  0
 41 43  1  0
 41 44  1  0
 11  6  1  0
 24  8  1  0
 27 17  2  0
 34 32  1  0
 40 35  1  0
M  END
$$$$
