
     RDKit          3D

 44 48  0  0  0  0  0  0  0  0999 V2000
  -17.6868  -49.0310   -8.3486 C   0  0  0  0  0  0  0  0  0  0  0  0
  -18.5652  -48.4221   -7.3218 C   0  0  0  0  0  0  0  0  0  0  0  0
  -19.7261  -48.8034   -7.2780 O   0  0  0  0  0  0  0  0  0  0  0  0
  -18.1280  -47.3903   -6.3507 C   0  0  0  0  0  0  0  0  0  0  0  0
  -19.1817  -46.6384   -5.8602 O   0  0  0  0  0  0  0  0  0  0  0  0
  -19.6308  -45.4211   -6.3743 C   0  0  0  0  0  0  0  0  0  0  0  0
  -20.8579  -45.2709   -6.9557 C   0  0  0  0  0  0  0  0  0  0  0  0
  -21.3027  -44.0397   -7.4741 C   0  0  0  0  0  0  0  0  0  0  0  0
  -20.4861  -42.9185   -7.4067 C   0  0  0  0  0  0  0  0  0  0  0  0
  -19.2478  -43.0272   -6.8297 C   0  0  0  0  0  0  0  0  0  0  0  0
  -18.8566  -44.2983   -6.3250 C   0  0  0  0  0  0  0  0  0  0  0  0
  -18.1871  -42.0087   -6.6163 C   0  0  0  0  0  0  0  0  0  0  0  0
  -17.3168  -42.2982   -5.6647 O   0  0  0  0  0  0  0  0  0  0  0  0
  -17.8821  -40.7852   -7.1984 N   0  0  0  0  0  0  0  0  0  0  0  0
  -18.7545  -39.6435   -7.3572 C   0  0  1  0  0  0  0  0  0  0  0  0
  -19.4317  -39.1870   -6.1394 C   0  0  0  0  0  0  0  0  0  0  0  0
  -20.8445  -39.5657   -5.8619 C   0  0  0  0  0  0  0  0  0  0  0  0
  -21.9806  -39.5447   -6.6375 C   0  0  0  0  0  0  0  0  0  0  0  0
  -23.1526  -39.9708   -6.0778 C   0  0  0  0  0  0  0  0  0  0  0  0
  -24.5096  -40.0777   -6.6812 C   0  0  0  0  0  0  0  0  0  0  0  0
  -24.7204  -41.3417   -7.5008 C   0  0  0  0  0  0  0  0  0  0  0  0
  -23.9004  -42.4883   -6.9529 C   0  0  0  0  0  0  0  0  0  0  0  0
  -23.8308  -43.6500   -7.9033 C   0  0  0  0  0  0  0  0  0  0  0  0
  -22.5670  -44.1597   -8.0048 O   0  0  0  0  0  0  0  0  0  0  0  0
  -23.1858  -40.4197   -4.7329 C   0  0  0  0  0  0  0  0  0  0  0  0
  -22.0842  -40.4570   -3.9259 C   0  0  0  0  0  0  0  0  0  0  0  0
  -20.9286  -40.0233   -4.5214 C   0  0  0  0  0  0  0  0  0  0  0  0
  -18.1894  -38.5196   -8.1320 C   0  0  2  0  0  0  0  0  0  0  0  0
  -19.2088  -37.8362   -8.8636 O   0  0  0  0  0  0  0  0  0  0  0  0
  -17.0864  -38.7637   -9.0826 C   0  0  0  0  0  0  0  0  0  0  0  0
  -15.7612  -38.8022   -8.5633 N   0  0  0  0  0  0  0  0  0  0  0  0
  -14.8657  -39.5922   -9.4154 C   0  0  0  0  0  0  0  0  0  0  0  0
  -14.1287  -40.7252   -8.8148 C   0  0  0  0  0  0  0  0  0  0  0  0
  -15.3146  -41.0173   -9.7473 C   0  0  0  0  0  0  0  0  0  0  0  0
  -14.3083  -38.8389  -10.5572 C   0  0  0  0  0  0  0  0  0  0  0  0
  -13.8703  -37.5516  -10.4765 C   0  0  0  0  0  0  0  0  0  0  0  0
  -13.3681  -36.9146  -11.5862 C   0  0  0  0  0  0  0  0  0  0  0  0
  -13.3096  -37.5808  -12.7734 C   0  0  0  0  0  0  0  0  0  0  0  0
  -13.7558  -38.8898  -12.8508 C   0  0  0  0  0  0  0  0  0  0  0  0
  -14.2367  -39.4715  -11.7486 N   0  0  0  0  0  0  0  0  0  0  0  0
  -12.8927  -35.5166  -11.4947 C   0  0  0  0  0  0  0  0  0  0  0  0
  -11.7840  -35.3373  -10.4922 C   0  0  0  0  0  0  0  0  0  0  0  0
  -12.4373  -35.0363  -12.8473 C   0  0  0  0  0  0  0  0  0  0  0  0
  -14.0657  -34.6414  -11.0712 C   0  0  0  0  0  0  0  0  0  0  0  0
  1  2  1  0
  2  3  2  0
  2  4  1  0
  4  5  1  0
  5  6  1  0
  6  7  2  0
  7  8  1  0
  8  9  2  0
  9 10  1  0
 10 11  2  0
 10 12  1  0
 12 13  2  0
 12 14  1  0
 14 15  1  0
 15 16  1  1
 16 17  1  0
 17 18  1  0
 18 19  2  0
 19 20  1  0
 20 21  1  0
 21 22  1  0
 22 23  1  0
 23 24  1  0
 19 25  1  0
 25 26  2  0
 26 27  1  0
 15 28  1  0
 28 29  1  6
 28 30  1  0
 30 31  1  0
 31 32  1  0
 32 33  1  0
 33 34  1  0
 32 35  1  0
 35 36  2  0
 36 37  1  0
 37 38  2  0
 38 39  1  0
 39 40  2  0
 37 41  1  0
 41 42  1  0
 41 43  1  0
 41 44  1  0
 11  6  1  0
 24  8  1  0
 27 17  2  0
 34 32  1  0
 40 35  1  0
M  END
$$$$
