
     RDKit          3D

 44 48  0  0  0  0  0  0  0  0999 V2000
  -24.5545  -44.7434  -12.1307 C   0  0  0  0  0  0  0  0  0  0  0  0
  -23.7145  -43.5270  -12.0228 C   0  0  0  0  0  0  0  0  0  0  0  0
  -24.2771  -42.4456  -12.1180 O   0  0  0  0  0  0  0  0  0  0  0  0
  -22.2476  -43.5387  -11.8060 C   0  0  0  0  0  0  0  0  0  0  0  0
  -21.8954  -44.0443  -10.5665 O   0  0  0  0  0  0  0  0  0  0  0  0
  -20.6698  -43.8630   -9.9240 C   0  0  0  0  0  0  0  0  0  0  0  0
  -19.8404  -44.9010   -9.6057 C   0  0  0  0  0  0  0  0  0  0  0  0
  -18.6064  -44.7099   -8.9553 C   0  0  0  0  0  0  0  0  0  0  0  0
  -18.1896  -43.4306   -8.6118 C   0  0  0  0  0  0  0  0  0  0  0  0
  -18.9924  -42.3620   -8.9150 C   0  0  0  0  0  0  0  0  0  0  0  0
  -20.2271  -42.6210   -9.5721 C   0  0  0  0  0  0  0  0  0  0  0  0
  -18.7979  -40.9079   -8.6787 C   0  0  0  0  0  0  0  0  0  0  0  0
  -19.5131  -40.1142   -9.4565 O   0  0  0  0  0  0  0  0  0  0  0  0
  -18.0185  -40.1600   -7.8058 N   0  0  0  0  0  0  0  0  0  0  0  0
  -16.5886  -40.2431   -7.6101 C   0  0  1  0  0  0  0  0  0  0  0  0
  -15.7743  -40.1499   -8.8258 C   0  0  0  0  0  0  0  0  0  0  0  0
  -15.2275  -41.3725   -9.4760 C   0  0  0  0  0  0  0  0  0  0  0  0
  -14.5633  -42.4700   -8.9790 C   0  0  0  0  0  0  0  0  0  0  0  0
  -14.1874  -43.4491   -9.8557 C   0  0  0  0  0  0  0  0  0  0  0  0
  -13.4881  -44.7380   -9.5974 C   0  0  0  0  0  0  0  0  0  0  0  0
  -14.4077  -45.8519   -9.1206 C   0  0  0  0  0  0  0  0  0  0  0  0
  -15.7960  -45.6965   -9.7000 C   0  0  0  0  0  0  0  0  0  0  0  0
  -16.8051  -46.5751   -9.0163 C   0  0  0  0  0  0  0  0  0  0  0  0
  -17.9701  -45.9128   -8.7488 O   0  0  0  0  0  0  0  0  0  0  0  0
  -14.4786  -43.3268  -11.2384 C   0  0  0  0  0  0  0  0  0  0  0  0
  -15.1342  -42.2558  -11.7761 C   0  0  0  0  0  0  0  0  0  0  0  0
  -15.4955  -41.2958  -10.8673 C   0  0  0  0  0  0  0  0  0  0  0  0
  -16.0510  -39.4069   -6.5171 C   0  0  2  0  0  0  0  0  0  0  0  0
  -15.8611  -40.1758   -5.3279 O   0  0  0  0  0  0  0  0  0  0  0  0
  -16.7654  -38.1803   -6.1110 C   0  0  0  0  0  0  0  0  0  0  0  0
  -17.1793  -37.2846   -7.1374 N   0  0  0  0  0  0  0  0  0  0  0  0
  -18.6167  -37.0004   -7.0645 C   0  0  0  0  0  0  0  0  0  0  0  0
  -19.4317  -37.7108   -6.0553 C   0  0  0  0  0  0  0  0  0  0  0  0
  -19.1016  -36.2261   -5.8365 C   0  0  0  0  0  0  0  0  0  0  0  0
  -19.2041  -36.5573   -8.3453 C   0  0  0  0  0  0  0  0  0  0  0  0
  -18.5218  -36.5278   -9.5238 C   0  0  0  0  0  0  0  0  0  0  0  0
  -19.1366  -36.0971  -10.6754 C   0  0  0  0  0  0  0  0  0  0  0  0
  -20.4388  -35.6983  -10.6322 C   0  0  0  0  0  0  0  0  0  0  0  0
  -21.1288  -35.7303   -9.4316 C   0  0  0  0  0  0  0  0  0  0  0  0
  -20.4938  -36.1556   -8.3360 N   0  0  0  0  0  0  0  0  0  0  0  0
  -18.3926  -36.0670  -11.9538 C   0  0  0  0  0  0  0  0  0  0  0  0
  -17.3585  -34.9741  -12.0064 C   0  0  0  0  0  0  0  0  0  0  0  0
  -17.7365  -37.3997  -12.2011 C   0  0  0  0  0  0  0  0  0  0  0  0
  -19.3912  -35.8343  -13.0808 C   0  0  0  0  0  0  0  0  0  0  0  0
  1  2  1  0
  2  3  2  0
  2  4  1  0
  4  5  1  0
  5  6  1  0
  6  7  2  0
  7  8  1  0
  8  9  2  0
  9 10  1  0
 10 11  2  0
 10 12  1  0
 12 13  2  0
 12 14  1  0
 14 15  1  0
 15 16  1  6
 16 17  1  0
 17 18  1  0
 18 19  2  0
 19 20  1  0
 20 21  1  0
 21 22  1  0
 22 23  1  0
 23 24  1  0
 19 25  1  0
 25 26  2  0
 26 27  1  0
 15 28  1  0
 28 29  1  1
 28 30  1  0
 30 31  1  0
 31 32  1  0
 32 33  1  0
 33 34  1  0
 32 35  1  0
 35 36  2  0
 36 37  1  0
 37 38  2  0
 38 39  1  0
 39 40  2  0
 37 41  1  0
 41 42  1  0
 41 43  1  0
 41 44  1  0
 11  6  1  0
 24  8  1  0
 27 17  2  0
 34 32  1  0
 40 35  1  0
M  END
$$$$
