
     RDKit          3D

 44 48  0  0  0  0  0  0  0  0999 V2000
  -18.3213  -43.3559  -14.4312 C   0  0  0  0  0  0  0  0  0  0  0  0
  -19.6135  -42.6584  -14.2297 C   0  0  0  0  0  0  0  0  0  0  0  0
  -19.8064  -41.6363  -14.8724 O   0  0  0  0  0  0  0  0  0  0  0  0
  -20.6793  -43.1196  -13.3076 C   0  0  0  0  0  0  0  0  0  0  0  0
  -21.4663  -42.0814  -12.8398 O   0  0  0  0  0  0  0  0  0  0  0  0
  -21.2277  -41.3227  -11.6929 C   0  0  0  0  0  0  0  0  0  0  0  0
  -22.2130  -40.6358  -11.0418 C   0  0  0  0  0  0  0  0  0  0  0  0
  -21.9636  -39.8707   -9.8865 C   0  0  0  0  0  0  0  0  0  0  0  0
  -20.6786  -39.7921   -9.3657 C   0  0  0  0  0  0  0  0  0  0  0  0
  -19.6623  -40.4681   -9.9889 C   0  0  0  0  0  0  0  0  0  0  0  0
  -19.9787  -41.2231  -11.1522 C   0  0  0  0  0  0  0  0  0  0  0  0
  -18.2185  -40.5693   -9.6523 C   0  0  0  0  0  0  0  0  0  0  0  0
  -17.5974  -41.6186  -10.1620 O   0  0  0  0  0  0  0  0  0  0  0  0
  -17.3374  -39.7978   -8.9058 N   0  0  0  0  0  0  0  0  0  0  0  0
  -17.4865  -39.3705   -7.5329 C   0  0  1  0  0  0  0  0  0  0  0  0
  -17.7819  -40.4319   -6.5655 C   0  0  0  0  0  0  0  0  0  0  0  0
  -19.1731  -40.6699   -6.0917 C   0  0  0  0  0  0  0  0  0  0  0  0
  -20.1551  -39.8227   -5.6331 C   0  0  0  0  0  0  0  0  0  0  0  0
  -21.3567  -40.3635   -5.2695 C   0  0  0  0  0  0  0  0  0  0  0  0
  -22.5880  -39.6922   -4.7690 C   0  0  0  0  0  0  0  0  0  0  0  0
  -23.4579  -39.1035   -5.8691 C   0  0  0  0  0  0  0  0  0  0  0  0
  -23.3427  -39.9095   -7.1437 C   0  0  0  0  0  0  0  0  0  0  0  0
  -23.9249  -39.1942   -8.3299 C   0  0  0  0  0  0  0  0  0  0  0  0
  -23.1203  -39.2798   -9.4311 O   0  0  0  0  0  0  0  0  0  0  0  0
  -21.5745  -41.7617   -5.3657 C   0  0  0  0  0  0  0  0  0  0  0  0
  -20.6293  -42.6401   -5.8139 C   0  0  0  0  0  0  0  0  0  0  0  0
  -19.4389  -42.0615   -6.1695 C   0  0  0  0  0  0  0  0  0  0  0  0
  -16.4429  -38.4472   -7.0418 C   0  0  2  0  0  0  0  0  0  0  0  0
  -17.0230  -37.2707   -6.4755 O   0  0  0  0  0  0  0  0  0  0  0  0
  -15.3782  -37.9885   -7.9561 C   0  0  0  0  0  0  0  0  0  0  0  0
  -15.7692  -37.4974   -9.2341 N   0  0  0  0  0  0  0  0  0  0  0  0
  -14.7686  -37.8010  -10.2630 C   0  0  0  0  0  0  0  0  0  0  0  0
  -14.6216  -36.8752  -11.4071 C   0  0  0  0  0  0  0  0  0  0  0  0
  -13.5401  -36.8895  -10.3156 C   0  0  0  0  0  0  0  0  0  0  0  0
  -14.4749  -39.2417  -10.4047 C   0  0  0  0  0  0  0  0  0  0  0  0
  -13.5515  -39.9057   -9.6553 C   0  0  0  0  0  0  0  0  0  0  0  0
  -13.3303  -41.2484   -9.8492 C   0  0  0  0  0  0  0  0  0  0  0  0
  -14.0435  -41.9156  -10.7995 C   0  0  0  0  0  0  0  0  0  0  0  0
  -14.9817  -41.2364  -11.5590 C   0  0  0  0  0  0  0  0  0  0  0  0
  -15.1653  -39.9317  -11.3384 N   0  0  0  0  0  0  0  0  0  0  0  0
  -12.3270  -41.9665   -9.0329 C   0  0  0  0  0  0  0  0  0  0  0  0
  -12.8961  -42.5165   -7.7522 C   0  0  0  0  0  0  0  0  0  0  0  0
  -11.7108  -43.0819   -9.8353 C   0  0  0  0  0  0  0  0  0  0  0  0
  -11.2127  -40.9894   -8.6796 C   0  0  0  0  0  0  0  0  0  0  0  0
  1  2  1  0
  2  3  2  0
  2  4  1  0
  4  5  1  0
  5  6  1  0
  6  7  2  0
  7  8  1  0
  8  9  2  0
  9 10  1  0
 10 11  2  0
 10 12  1  0
 12 13  2  0
 12 14  1  0
 14 15  1  0
 15 16  1  1
 16 17  1  0
 17 18  1  0
 18 19  2  0
 19 20  1  0
 20 21  1  0
 21 22  1  0
 22 23  1  0
 23 24  1  0
 19 25  1  0
 25 26  2  0
 26 27  1  0
 15 28  1  0
 28 29  1  6
 28 30  1  0
 30 31  1  0
 31 32  1  0
 32 33  1  0
 33 34  1  0
 32 35  1  0
 35 36  2  0
 36 37  1  0
 37 38  2  0
 38 39  1  0
 39 40  2  0
 37 41  1  0
 41 42  1  0
 41 43  1  0
 41 44  1  0
 11  6  1  0
 24  8  1  0
 27 17  2  0
 34 32  1  0
 40 35  1  0
M  END
$$$$
