
     RDKit          3D

 44 48  0  0  0  0  0  0  0  0999 V2000
  -21.2087  -47.5079   -7.6525 C   0  0  0  0  0  0  0  0  0  0  0  0
  -21.3009  -47.3044   -9.1177 C   0  0  0  0  0  0  0  0  0  0  0  0
  -20.7642  -48.1363   -9.8353 O   0  0  0  0  0  0  0  0  0  0  0  0
  -21.9994  -46.1665   -9.7629 C   0  0  0  0  0  0  0  0  0  0  0  0
  -21.1482  -45.3746  -10.5144 O   0  0  0  0  0  0  0  0  0  0  0  0
  -20.8107  -44.0473  -10.2457 C   0  0  0  0  0  0  0  0  0  0  0  0
  -21.5031  -42.9887  -10.7619 C   0  0  0  0  0  0  0  0  0  0  0  0
  -21.1547  -41.6524  -10.4878 C   0  0  0  0  0  0  0  0  0  0  0  0
  -20.0720  -41.3681   -9.6659 C   0  0  0  0  0  0  0  0  0  0  0  0
  -19.3522  -42.4024   -9.1271 C   0  0  0  0  0  0  0  0  0  0  0  0
  -19.7543  -43.7299   -9.4423 C   0  0  0  0  0  0  0  0  0  0  0  0
  -18.1737  -42.3926   -8.2221 C   0  0  0  0  0  0  0  0  0  0  0  0
  -17.9839  -43.5078   -7.5386 O   0  0  0  0  0  0  0  0  0  0  0  0
  -17.1914  -41.4603   -7.9141 N   0  0  0  0  0  0  0  0  0  0  0  0
  -17.3789  -40.1010   -7.4596 C   0  0  1  0  0  0  0  0  0  0  0  0
  -18.2634  -39.9342   -6.3022 C   0  0  0  0  0  0  0  0  0  0  0  0
  -19.6813  -39.5150   -6.4770 C   0  0  0  0  0  0  0  0  0  0  0  0
  -20.2688  -38.5125   -7.2135 C   0  0  0  0  0  0  0  0  0  0  0  0
  -21.6291  -38.3875   -7.1646 C   0  0  0  0  0  0  0  0  0  0  0  0
  -22.5203  -37.4238   -7.8676 C   0  0  0  0  0  0  0  0  0  0  0  0
  -22.8485  -37.8212   -9.2987 C   0  0  0  0  0  0  0  0  0  0  0  0
  -22.8704  -39.3254   -9.4542 C   0  0  0  0  0  0  0  0  0  0  0  0
  -22.8744  -39.7537  -10.8944 C   0  0  0  0  0  0  0  0  0  0  0  0
  -22.0064  -40.7825  -11.1301 O   0  0  0  0  0  0  0  0  0  0  0  0
  -22.4045  -39.2721   -6.3723 C   0  0  0  0  0  0  0  0  0  0  0  0
  -21.8648  -40.2801   -5.6248 C   0  0  0  0  0  0  0  0  0  0  0  0
  -20.4997  -40.3747   -5.6995 C   0  0  0  0  0  0  0  0  0  0  0  0
  -16.1431  -39.3011   -7.3330 C   0  0  2  0  0  0  0  0  0  0  0  0
  -16.4201  -38.0112   -6.7845 O   0  0  0  0  0  0  0  0  0  0  0  0
  -15.2889  -39.0765   -8.5161 C   0  0  0  0  0  0  0  0  0  0  0  0
  -13.8857  -39.2652   -8.3650 N   0  0  0  0  0  0  0  0  0  0  0  0
  -13.4703  -40.6106   -8.7766 C   0  0  0  0  0  0  0  0  0  0  0  0
  -12.0464  -40.8477   -9.0992 C   0  0  0  0  0  0  0  0  0  0  0  0
  -12.6144  -41.3988   -7.7821 C   0  0  0  0  0  0  0  0  0  0  0  0
  -14.5406  -41.3941   -9.4265 C   0  0  0  0  0  0  0  0  0  0  0  0
  -15.6232  -40.8390  -10.0388 C   0  0  0  0  0  0  0  0  0  0  0  0
  -16.5820  -41.6356  -10.6182 C   0  0  0  0  0  0  0  0  0  0  0  0
  -16.4430  -42.9904  -10.5773 C   0  0  0  0  0  0  0  0  0  0  0  0
  -15.3402  -43.5507   -9.9540 C   0  0  0  0  0  0  0  0  0  0  0  0
  -14.4321  -42.7404   -9.4033 N   0  0  0  0  0  0  0  0  0  0  0  0
  -17.7563  -41.0291  -11.2829 C   0  0  0  0  0  0  0  0  0  0  0  0
  -18.7474  -40.4483  -10.3098 C   0  0  0  0  0  0  0  0  0  0  0  0
  -17.3099  -39.9644  -12.2497 C   0  0  0  0  0  0  0  0  0  0  0  0
  -18.4590  -42.1130  -12.0907 C   0  0  0  0  0  0  0  0  0  0  0  0
  1  2  1  0
  2  3  2  0
  2  4  1  0
  4  5  1  0
  5  6  1  0
  6  7  2  0
  7  8  1  0
  8  9  2  0
  9 10  1  0
 10 11  2  0
 10 12  1  0
 12 13  2  0
 12 14  1  0
 14 15  1  0
 15 16  1  1
 16 17  1  0
 17 18  1  0
 18 19  2  0
 19 20  1  0
 20 21  1  0
 21 22  1  0
 22 23  1  0
 23 24  1  0
 19 25  1  0
 25 26  2  0
 26 27  1  0
 15 28  1  0
 28 29  1  6
 28 30  1  0
 30 31  1  0
 31 32  1  0
 32 33  1  0
 33 34  1  0
 32 35  1  0
 35 36  2  0
 36 37  1  0
 37 38  2  0
 38 39  1  0
 39 40  2  0
 37 41  1  0
 41 42  1  0
 41 43  1  0
 41 44  1  0
 11  6  1  0
 24  8  1  0
 27 17  2  0
 34 32  1  0
 40 35  1  0
M  END
$$$$
