
     RDKit          3D

 44 48  0  0  0  0  0  0  0  0999 V2000
  -16.9855  -46.3776   -7.2780 C   0  0  0  0  0  0  0  0  0  0  0  0
  -18.1503  -47.2280   -7.6196 C   0  0  0  0  0  0  0  0  0  0  0  0
  -17.9209  -48.3585   -8.0249 O   0  0  0  0  0  0  0  0  0  0  0  0
  -19.5646  -46.7988   -7.4992 C   0  0  0  0  0  0  0  0  0  0  0  0
  -19.9915  -46.0566   -8.5869 O   0  0  0  0  0  0  0  0  0  0  0  0
  -20.1104  -44.6669   -8.6368 C   0  0  0  0  0  0  0  0  0  0  0  0
  -21.2395  -44.0361   -9.0769 C   0  0  0  0  0  0  0  0  0  0  0  0
  -21.3507  -42.6335   -9.1264 C   0  0  0  0  0  0  0  0  0  0  0  0
  -20.2901  -41.8348   -8.7194 C   0  0  0  0  0  0  0  0  0  0  0  0
  -19.1399  -42.4291   -8.2698 C   0  0  0  0  0  0  0  0  0  0  0  0
  -19.0898  -43.8504   -8.2444 C   0  0  0  0  0  0  0  0  0  0  0  0
  -17.8735  -41.8323   -7.7715 C   0  0  0  0  0  0  0  0  0  0  0  0
  -17.1394  -42.6292   -7.0148 O   0  0  0  0  0  0  0  0  0  0  0  0
  -17.2573  -40.5963   -7.9172 N   0  0  0  0  0  0  0  0  0  0  0  0
  -17.8195  -39.2937   -7.6398 C   0  0  1  0  0  0  0  0  0  0  0  0
  -18.4152  -39.1287   -6.3103 C   0  0  0  0  0  0  0  0  0  0  0  0
  -19.8878  -39.2255   -6.1143 C   0  0  0  0  0  0  0  0  0  0  0  0
  -20.9520  -38.6682   -6.7849 C   0  0  0  0  0  0  0  0  0  0  0  0
  -22.2144  -38.9621   -6.3508 C   0  0  0  0  0  0  0  0  0  0  0  0
  -23.5309  -38.5262   -6.8930 C   0  0  0  0  0  0  0  0  0  0  0  0
  -24.0080  -39.3456   -8.0823 C   0  0  0  0  0  0  0  0  0  0  0  0
  -23.5138  -40.7722   -7.9934 C   0  0  0  0  0  0  0  0  0  0  0  0
  -23.6889  -41.5220   -9.2837 C   0  0  0  0  0  0  0  0  0  0  0  0
  -22.5834  -42.2565   -9.6089 O   0  0  0  0  0  0  0  0  0  0  0  0
  -22.4108  -39.8191   -5.2378 C   0  0  0  0  0  0  0  0  0  0  0  0
  -21.3853  -40.3935   -4.5418 C   0  0  0  0  0  0  0  0  0  0  0  0
  -20.1355  -40.0765   -5.0063 C   0  0  0  0  0  0  0  0  0  0  0  0
  -16.9673  -38.1456   -8.0120 C   0  0  2  0  0  0  0  0  0  0  0  0
  -17.6615  -37.2523   -8.8846 O   0  0  0  0  0  0  0  0  0  0  0  0
  -15.6437  -38.3805   -8.6226 C   0  0  0  0  0  0  0  0  0  0  0  0
  -14.8671  -39.4643   -8.1232 N   0  0  0  0  0  0  0  0  0  0  0  0
  -13.9394  -39.9808   -9.1354 C   0  0  0  0  0  0  0  0  0  0  0  0
  -12.7213  -40.6904   -8.6877 C   0  0  0  0  0  0  0  0  0  0  0  0
  -13.8760  -41.5017   -9.2958 C   0  0  0  0  0  0  0  0  0  0  0  0
  -13.9597  -39.2265  -10.4053 C   0  0  0  0  0  0  0  0  0  0  0  0
  -14.2734  -37.9043  -10.4982 C   0  0  0  0  0  0  0  0  0  0  0  0
  -14.2756  -37.2718  -11.7186 C   0  0  0  0  0  0  0  0  0  0  0  0
  -13.9602  -37.9774  -12.8407 C   0  0  0  0  0  0  0  0  0  0  0  0
  -13.6415  -39.3217  -12.7415 C   0  0  0  0  0  0  0  0  0  0  0  0
  -13.6515  -39.8978  -11.5363 N   0  0  0  0  0  0  0  0  0  0  0  0
  -14.6162  -35.8354  -11.8157 C   0  0  0  0  0  0  0  0  0  0  0  0
  -13.6064  -35.0439  -12.6034 C   0  0  0  0  0  0  0  0  0  0  0  0
  -15.9819  -35.6685  -12.4275 C   0  0  0  0  0  0  0  0  0  0  0  0
  -14.6757  -35.2635  -10.4047 C   0  0  0  0  0  0  0  0  0  0  0  0
  1  2  1  0
  2  3  2  0
  2  4  1  0
  4  5  1  0
  5  6  1  0
  6  7  2  0
  7  8  1  0
  8  9  2  0
  9 10  1  0
 10 11  2  0
 10 12  1  0
 12 13  2  0
 12 14  1  0
 14 15  1  0
 15 16  1  1
 16 17  1  0
 17 18  1  0
 18 19  2  0
 19 20  1  0
 20 21  1  0
 21 22  1  0
 22 23  1  0
 23 24  1  0
 19 25  1  0
 25 26  2  0
 26 27  1  0
 15 28  1  0
 28 29  1  6
 28 30  1  0
 30 31  1  0
 31 32  1  0
 32 33  1  0
 33 34  1  0
 32 35  1  0
 35 36  2  0
 36 37  1  0
 37 38  2  0
 38 39  1  0
 39 40  2  0
 37 41  1  0
 41 42  1  0
 41 43  1  0
 41 44  1  0
 11  6  1  0
 24  8  1  0
 27 17  2  0
 34 32  1  0
 40 35  1  0
M  END
$$$$
