
     RDKit          3D

 44 48  0  0  0  0  0  0  0  0999 V2000
  -19.6165  -48.8148   -4.8048 C   0  0  0  0  0  0  0  0  0  0  0  0
  -20.3069  -47.5046   -4.8631 C   0  0  0  0  0  0  0  0  0  0  0  0
  -21.3754  -47.4062   -4.2769 O   0  0  0  0  0  0  0  0  0  0  0  0
  -19.7867  -46.3149   -5.5792 C   0  0  0  0  0  0  0  0  0  0  0  0
  -20.7847  -45.5951   -6.2133 O   0  0  0  0  0  0  0  0  0  0  0  0
  -20.6161  -44.3999   -6.9140 C   0  0  0  0  0  0  0  0  0  0  0  0
  -21.4742  -43.9898   -7.8948 C   0  0  0  0  0  0  0  0  0  0  0  0
  -21.2958  -42.7837   -8.5988 C   0  0  0  0  0  0  0  0  0  0  0  0
  -20.2169  -41.9591   -8.3079 C   0  0  0  0  0  0  0  0  0  0  0  0
  -19.3337  -42.3342   -7.3294 C   0  0  0  0  0  0  0  0  0  0  0  0
  -19.5688  -43.5643   -6.6549 C   0  0  0  0  0  0  0  0  0  0  0  0
  -18.1180  -41.6548   -6.8113 C   0  0  0  0  0  0  0  0  0  0  0  0
  -17.7399  -42.0302   -5.6018 O   0  0  0  0  0  0  0  0  0  0  0  0
  -17.2558  -40.6881   -7.3122 N   0  0  0  0  0  0  0  0  0  0  0  0
  -17.6003  -39.3811   -7.8248 C   0  0  1  0  0  0  0  0  0  0  0  0
  -18.4321  -38.5529   -6.9461 C   0  0  0  0  0  0  0  0  0  0  0  0
  -19.9014  -38.4460   -7.1612 C   0  0  0  0  0  0  0  0  0  0  0  0
  -20.6606  -38.2161   -8.2852 C   0  0  0  0  0  0  0  0  0  0  0  0
  -22.0203  -38.1791   -8.1497 C   0  0  0  0  0  0  0  0  0  0  0  0
  -23.0727  -37.9762   -9.1833 C   0  0  0  0  0  0  0  0  0  0  0  0
  -23.4246  -39.2367   -9.9585 C   0  0  0  0  0  0  0  0  0  0  0  0
  -23.2505  -40.4696   -9.1000 C   0  0  0  0  0  0  0  0  0  0  0  0
  -23.2779  -41.7382   -9.9048 C   0  0  0  0  0  0  0  0  0  0  0  0
  -22.2929  -42.6086   -9.5314 O   0  0  0  0  0  0  0  0  0  0  0  0
  -22.6220  -38.3732   -6.8801 C   0  0  0  0  0  0  0  0  0  0  0  0
  -21.9087  -38.6032   -5.7380 C   0  0  0  0  0  0  0  0  0  0  0  0
  -20.5498  -38.6339   -5.9132 C   0  0  0  0  0  0  0  0  0  0  0  0
  -16.4796  -38.6165   -8.4099 C   0  0  2  0  0  0  0  0  0  0  0  0
  -16.8996  -37.8961   -9.5700 O   0  0  0  0  0  0  0  0  0  0  0  0
  -15.2303  -39.3110   -8.7798 C   0  0  0  0  0  0  0  0  0  0  0  0
  -14.5512  -40.0390   -7.7620 N   0  0  0  0  0  0  0  0  0  0  0  0
  -13.5136  -40.9139   -8.3189 C   0  0  0  0  0  0  0  0  0  0  0  0
  -12.0966  -40.6211   -8.0123 C   0  0  0  0  0  0  0  0  0  0  0  0
  -12.7753  -41.8188   -7.3295 C   0  0  0  0  0  0  0  0  0  0  0  0
  -13.9007  -41.5696   -9.5847 C   0  0  0  0  0  0  0  0  0  0  0  0
  -13.8698  -42.9168   -9.7824 C   0  0  0  0  0  0  0  0  0  0  0  0
  -14.2410  -43.4532  -10.9924 C   0  0  0  0  0  0  0  0  0  0  0  0
  -14.6427  -42.6263  -11.9981 C   0  0  0  0  0  0  0  0  0  0  0  0
  -14.6729  -41.2568  -11.7925 C   0  0  0  0  0  0  0  0  0  0  0  0
  -14.3038  -40.7770  -10.6016 N   0  0  0  0  0  0  0  0  0  0  0  0
  -14.2068  -44.9171  -11.2034 C   0  0  0  0  0  0  0  0  0  0  0  0
  -14.4990  -45.6984   -9.9501 C   0  0  0  0  0  0  0  0  0  0  0  0
  -15.1812  -45.3063  -12.2835 C   0  0  0  0  0  0  0  0  0  0  0  0
  -12.8131  -45.2961  -11.6884 C   0  0  0  0  0  0  0  0  0  0  0  0
  1  2  1  0
  2  3  2  0
  2  4  1  0
  4  5  1  0
  5  6  1  0
  6  7  2  0
  7  8  1  0
  8  9  2  0
  9 10  1  0
 10 11  2  0
 10 12  1  0
 12 13  2  0
 12 14  1  0
 14 15  1  0
 15 16  1  1
 16 17  1  0
 17 18  1  0
 18 19  2  0
 19 20  1  0
 20 21  1  0
 21 22  1  0
 22 23  1  0
 23 24  1  0
 19 25  1  0
 25 26  2  0
 26 27  1  0
 15 28  1  0
 28 29  1  6
 28 30  1  0
 30 31  1  0
 31 32  1  0
 32 33  1  0
 33 34  1  0
 32 35  1  0
 35 36  2  0
 36 37  1  0
 37 38  2  0
 38 39  1  0
 39 40  2  0
 37 41  1  0
 41 42  1  0
 41 43  1  0
 41 44  1  0
 11  6  1  0
 24  8  1  0
 27 17  2  0
 34 32  1  0
 40 35  1  0
M  END
$$$$
