
     RDKit          3D

 44 48  0  0  0  0  0  0  0  0999 V2000
  -20.1672  -48.4586   -4.2083 C   0  0  0  0  0  0  0  0  0  0  0  0
  -19.5115  -48.1647   -5.5046 C   0  0  0  0  0  0  0  0  0  0  0  0
  -19.2569  -49.1131   -6.2331 O   0  0  0  0  0  0  0  0  0  0  0  0
  -19.1503  -46.8042   -5.9710 C   0  0  0  0  0  0  0  0  0  0  0  0
  -19.9516  -46.3666   -7.0116 O   0  0  0  0  0  0  0  0  0  0  0  0
  -20.1302  -45.0406   -7.4085 C   0  0  0  0  0  0  0  0  0  0  0  0
  -21.2717  -44.5966   -8.0137 C   0  0  0  0  0  0  0  0  0  0  0  0
  -21.4432  -43.2575   -8.4133 C   0  0  0  0  0  0  0  0  0  0  0  0
  -20.4322  -42.3302   -8.1978 C   0  0  0  0  0  0  0  0  0  0  0  0
  -19.2715  -42.7355   -7.5921 C   0  0  0  0  0  0  0  0  0  0  0  0
  -19.1594  -44.1017   -7.2123 C   0  0  0  0  0  0  0  0  0  0  0  0
  -18.0490  -41.9705   -7.2338 C   0  0  0  0  0  0  0  0  0  0  0  0
  -17.3044  -42.5166   -6.2884 O   0  0  0  0  0  0  0  0  0  0  0  0
  -17.4837  -40.7796   -7.6710 N   0  0  0  0  0  0  0  0  0  0  0  0
  -18.1113  -39.4791   -7.7379 C   0  0  1  0  0  0  0  0  0  0  0  0
  -18.7551  -39.0200   -6.5032 C   0  0  0  0  0  0  0  0  0  0  0  0
  -20.2275  -39.1395   -6.3179 C   0  0  0  0  0  0  0  0  0  0  0  0
  -21.2937  -38.8205   -7.1266 C   0  0  0  0  0  0  0  0  0  0  0  0
  -22.5548  -39.0611   -6.6575 C   0  0  0  0  0  0  0  0  0  0  0  0
  -23.8716  -38.8404   -7.3166 C   0  0  0  0  0  0  0  0  0  0  0  0
  -24.2746  -39.9523   -8.2732 C   0  0  0  0  0  0  0  0  0  0  0  0
  -23.7208  -41.2853   -7.8220 C   0  0  0  0  0  0  0  0  0  0  0  0
  -23.8222  -42.3396   -8.8879 C   0  0  0  0  0  0  0  0  0  0  0  0
  -22.6756  -43.0748   -8.9983 O   0  0  0  0  0  0  0  0  0  0  0  0
  -22.7479  -39.6241   -5.3701 C   0  0  0  0  0  0  0  0  0  0  0  0
  -21.7204  -39.9553   -4.5332 C   0  0  0  0  0  0  0  0  0  0  0  0
  -20.4718  -39.7005   -5.0377 C   0  0  0  0  0  0  0  0  0  0  0  0
  -17.2995  -38.4176   -8.3680 C   0  0  2  0  0  0  0  0  0  0  0  0
  -18.0883  -37.6298   -9.2616 O   0  0  0  0  0  0  0  0  0  0  0  0
  -16.0678  -38.7720   -9.1010 C   0  0  0  0  0  0  0  0  0  0  0  0
  -15.0029  -39.3599   -8.3609 N   0  0  0  0  0  0  0  0  0  0  0  0
  -14.2278  -40.3009   -9.1769 C   0  0  0  0  0  0  0  0  0  0  0  0
  -13.6046  -41.4686   -8.5169 C   0  0  0  0  0  0  0  0  0  0  0  0
  -14.8435  -41.6844   -9.4000 C   0  0  0  0  0  0  0  0  0  0  0  0
  -13.6244  -39.6925  -10.3801 C   0  0  0  0  0  0  0  0  0  0  0  0
  -13.6109  -38.3533  -10.6284 C   0  0  0  0  0  0  0  0  0  0  0  0
  -13.0336  -37.8621  -11.7751 C   0  0  0  0  0  0  0  0  0  0  0  0
  -12.4715  -38.7257  -12.6665 C   0  0  0  0  0  0  0  0  0  0  0  0
  -12.4872  -40.0867  -12.4098 C   0  0  0  0  0  0  0  0  0  0  0  0
  -13.0587  -40.5222  -11.2835 N   0  0  0  0  0  0  0  0  0  0  0  0
  -13.0202  -36.4068  -12.0412 C   0  0  0  0  0  0  0  0  0  0  0  0
  -14.0866  -35.6611  -11.2840 C   0  0  0  0  0  0  0  0  0  0  0  0
  -11.6675  -35.8337  -11.7109 C   0  0  0  0  0  0  0  0  0  0  0  0
  -13.2546  -36.1929  -13.5314 C   0  0  0  0  0  0  0  0  0  0  0  0
  1  2  1  0
  2  3  2  0
  2  4  1  0
  4  5  1  0
  5  6  1  0
  6  7  2  0
  7  8  1  0
  8  9  2  0
  9 10  1  0
 10 11  2  0
 10 12  1  0
 12 13  2  0
 12 14  1  0
 14 15  1  0
 15 16  1  1
 16 17  1  0
 17 18  1  0
 18 19  2  0
 19 20  1  0
 20 21  1  0
 21 22  1  0
 22 23  1  0
 23 24  1  0
 19 25  1  0
 25 26  2  0
 26 27  1  0
 15 28  1  0
 28 29  1  6
 28 30  1  0
 30 31  1  0
 31 32  1  0
 32 33  1  0
 33 34  1  0
 32 35  1  0
 35 36  2  0
 36 37  1  0
 37 38  2  0
 38 39  1  0
 39 40  2  0
 37 41  1  0
 41 42  1  0
 41 43  1  0
 41 44  1  0
 11  6  1  0
 24  8  1  0
 27 17  2  0
 34 32  1  0
 40 35  1  0
M  END
$$$$
