
     RDKit          3D

 44 48  0  0  0  0  0  0  0  0999 V2000
  -20.7395  -49.2525   -7.9243 C   0  0  0  0  0  0  0  0  0  0  0  0
  -19.5153  -48.6704   -7.3250 C   0  0  0  0  0  0  0  0  0  0  0  0
  -18.7143  -49.4443   -6.8204 O   0  0  0  0  0  0  0  0  0  0  0  0
  -19.2020  -47.2212   -7.3012 C   0  0  0  0  0  0  0  0  0  0  0  0
  -20.3346  -46.4320   -7.1983 O   0  0  0  0  0  0  0  0  0  0  0  0
  -20.4450  -45.0987   -7.5958 C   0  0  0  0  0  0  0  0  0  0  0  0
  -21.5222  -44.6190   -8.2856 C   0  0  0  0  0  0  0  0  0  0  0  0
  -21.6250  -43.2728   -8.6851 C   0  0  0  0  0  0  0  0  0  0  0  0
  -20.6097  -42.3755   -8.3812 C   0  0  0  0  0  0  0  0  0  0  0  0
  -19.5124  -42.8171   -7.6890 C   0  0  0  0  0  0  0  0  0  0  0  0
  -19.4680  -44.1885   -7.3142 C   0  0  0  0  0  0  0  0  0  0  0  0
  -18.3021  -42.0888   -7.2274 C   0  0  0  0  0  0  0  0  0  0  0  0
  -17.6503  -42.6621   -6.2309 O   0  0  0  0  0  0  0  0  0  0  0  0
  -17.6717  -40.9110   -7.6071 N   0  0  0  0  0  0  0  0  0  0  0  0
  -18.2566  -39.5932   -7.7116 C   0  0  1  0  0  0  0  0  0  0  0  0
  -18.9842  -39.1252   -6.5278 C   0  0  0  0  0  0  0  0  0  0  0  0
  -20.4693  -39.2052   -6.4613 C   0  0  0  0  0  0  0  0  0  0  0  0
  -21.4586  -38.8510   -7.3492 C   0  0  0  0  0  0  0  0  0  0  0  0
  -22.7592  -39.0599   -6.9842 C   0  0  0  0  0  0  0  0  0  0  0  0
  -24.0128  -38.7981   -7.7438 C   0  0  0  0  0  0  0  0  0  0  0  0
  -24.3681  -39.8915   -8.7398 C   0  0  0  0  0  0  0  0  0  0  0  0
  -23.8884  -41.2425   -8.2585 C   0  0  0  0  0  0  0  0  0  0  0  0
  -23.9328  -42.2859   -9.3388 C   0  0  0  0  0  0  0  0  0  0  0  0
  -22.8015  -43.0519   -9.3645 O   0  0  0  0  0  0  0  0  0  0  0  0
  -23.0695  -39.6265   -5.7215 C   0  0  0  0  0  0  0  0  0  0  0  0
  -22.1213  -39.9921   -4.8087 C   0  0  0  0  0  0  0  0  0  0  0  0
  -20.8301  -39.7684   -5.2099 C   0  0  0  0  0  0  0  0  0  0  0  0
  -17.3687  -38.5500   -8.2652 C   0  0  2  0  0  0  0  0  0  0  0  0
  -18.0952  -37.6482   -9.1019 O   0  0  0  0  0  0  0  0  0  0  0  0
  -16.1608  -38.9383   -9.0202 C   0  0  0  0  0  0  0  0  0  0  0  0
  -14.9806  -39.2277   -8.2781 N   0  0  0  0  0  0  0  0  0  0  0  0
  -14.0043  -39.9751   -9.0783 C   0  0  0  0  0  0  0  0  0  0  0  0
  -13.1293  -40.9552   -8.3990 C   0  0  0  0  0  0  0  0  0  0  0  0
  -14.2802  -41.4672   -9.2792 C   0  0  0  0  0  0  0  0  0  0  0  0
  -13.5539  -39.2619  -10.2909 C   0  0  0  0  0  0  0  0  0  0  0  0
  -13.4048  -37.9100  -10.3654 C   0  0  0  0  0  0  0  0  0  0  0  0
  -12.9853  -37.3176  -11.5327 C   0  0  0  0  0  0  0  0  0  0  0  0
  -12.7175  -38.0934  -12.6204 C   0  0  0  0  0  0  0  0  0  0  0  0
  -12.8701  -39.4677  -12.5400 C   0  0  0  0  0  0  0  0  0  0  0  0
  -13.2801  -40.0028  -11.3867 N   0  0  0  0  0  0  0  0  0  0  0  0
  -12.8238  -35.8491  -11.6098 C   0  0  0  0  0  0  0  0  0  0  0  0
  -14.1370  -35.1128  -11.6113 C   0  0  0  0  0  0  0  0  0  0  0  0
  -11.9698  -35.3626  -10.4689 C   0  0  0  0  0  0  0  0  0  0  0  0
  -12.0891  -35.5178  -12.9028 C   0  0  0  0  0  0  0  0  0  0  0  0
  1  2  1  0
  2  3  2  0
  2  4  1  0
  4  5  1  0
  5  6  1  0
  6  7  2  0
  7  8  1  0
  8  9  2  0
  9 10  1  0
 10 11  2  0
 10 12  1  0
 12 13  2  0
 12 14  1  0
 14 15  1  0
 15 16  1  1
 16 17  1  0
 17 18  1  0
 18 19  2  0
 19 20  1  0
 20 21  1  0
 21 22  1  0
 22 23  1  0
 23 24  1  0
 19 25  1  0
 25 26  2  0
 26 27  1  0
 15 28  1  0
 28 29  1  6
 28 30  1  0
 30 31  1  0
 31 32  1  0
 32 33  1  0
 33 34  1  0
 32 35  1  0
 35 36  2  0
 36 37  1  0
 37 38  2  0
 38 39  1  0
 39 40  2  0
 37 41  1  0
 41 42  1  0
 41 43  1  0
 41 44  1  0
 11  6  1  0
 24  8  1  0
 27 17  2  0
 34 32  1  0
 40 35  1  0
M  END
$$$$
