
     RDKit          3D

 44 48  0  0  0  0  0  0  0  0999 V2000
  -22.1162  -41.2658  -15.0390 C   0  0  0  0  0  0  0  0  0  0  0  0
  -21.2600  -40.4394  -14.1554 C   0  0  0  0  0  0  0  0  0  0  0  0
  -20.0522  -40.6208  -14.2138 O   0  0  0  0  0  0  0  0  0  0  0  0
  -21.7712  -39.4133  -13.2149 C   0  0  0  0  0  0  0  0  0  0  0  0
  -22.2031  -39.9555  -12.0167 O   0  0  0  0  0  0  0  0  0  0  0  0
  -21.6223  -39.7477  -10.7648 C   0  0  0  0  0  0  0  0  0  0  0  0
  -22.3171  -39.2466   -9.7006 C   0  0  0  0  0  0  0  0  0  0  0  0
  -21.7231  -39.0377   -8.4413 C   0  0  0  0  0  0  0  0  0  0  0  0
  -20.3829  -39.3428   -8.2429 C   0  0  0  0  0  0  0  0  0  0  0  0
  -19.6512  -39.8490   -9.2853 C   0  0  0  0  0  0  0  0  0  0  0  0
  -20.3089  -40.0366  -10.5325 C   0  0  0  0  0  0  0  0  0  0  0  0
  -18.2267  -40.2664   -9.3546 C   0  0  0  0  0  0  0  0  0  0  0  0
  -17.9363  -41.1040  -10.3349 O   0  0  0  0  0  0  0  0  0  0  0  0
  -17.0906  -39.9757   -8.6107 N   0  0  0  0  0  0  0  0  0  0  0  0
  -16.9163  -40.1063   -7.1817 C   0  0  1  0  0  0  0  0  0  0  0  0
  -17.2669  -41.4125   -6.6154 C   0  0  0  0  0  0  0  0  0  0  0  0
  -18.5789  -41.6290   -5.9461 C   0  0  0  0  0  0  0  0  0  0  0  0
  -19.2684  -40.9069   -4.9996 C   0  0  0  0  0  0  0  0  0  0  0  0
  -20.4806  -41.3810   -4.5821 C   0  0  0  0  0  0  0  0  0  0  0  0
  -21.4406  -40.8022   -3.6021 C   0  0  0  0  0  0  0  0  0  0  0  0
  -22.3348  -39.7180   -4.1840 C   0  0  0  0  0  0  0  0  0  0  0  0
  -22.6061  -39.9660   -5.6511 C   0  0  0  0  0  0  0  0  0  0  0  0
  -23.2105  -38.7714   -6.3332 C   0  0  0  0  0  0  0  0  0  0  0  0
  -22.6359  -38.5243   -7.5482 O   0  0  0  0  0  0  0  0  0  0  0  0
  -21.0040  -42.5862   -5.1161 C   0  0  0  0  0  0  0  0  0  0  0  0
  -20.3549  -43.3358   -6.0557 C   0  0  0  0  0  0  0  0  0  0  0  0
  -19.1442  -42.8290   -6.4499 C   0  0  0  0  0  0  0  0  0  0  0  0
  -15.6334  -39.5988   -6.6527 C   0  0  2  0  0  0  0  0  0  0  0  0
  -15.8142  -38.3556   -5.9722 O   0  0  0  0  0  0  0  0  0  0  0  0
  -14.4856  -39.4132   -7.5626 C   0  0  0  0  0  0  0  0  0  0  0  0
  -14.6199  -39.8788   -8.9014 N   0  0  0  0  0  0  0  0  0  0  0  0
  -13.3159  -40.1481   -9.5172 C   0  0  0  0  0  0  0  0  0  0  0  0
  -12.2509  -40.7561   -8.6903 C   0  0  0  0  0  0  0  0  0  0  0  0
  -12.9568  -41.6178   -9.7488 C   0  0  0  0  0  0  0  0  0  0  0  0
  -12.9886  -39.2481  -10.6418 C   0  0  0  0  0  0  0  0  0  0  0  0
  -13.5361  -38.0122  -10.8095 C   0  0  0  0  0  0  0  0  0  0  0  0
  -13.1846  -37.2336  -11.8864 C   0  0  0  0  0  0  0  0  0  0  0  0
  -12.2807  -37.7063  -12.7898 C   0  0  0  0  0  0  0  0  0  0  0  0
  -11.7262  -38.9635  -12.6151 C   0  0  0  0  0  0  0  0  0  0  0  0
  -12.0954  -39.6876  -11.5549 N   0  0  0  0  0  0  0  0  0  0  0  0
  -13.7809  -35.8915  -12.0651 C   0  0  0  0  0  0  0  0  0  0  0  0
  -14.9360  -35.8854  -13.0306 C   0  0  0  0  0  0  0  0  0  0  0  0
  -14.2272  -35.3434  -10.7354 C   0  0  0  0  0  0  0  0  0  0  0  0
  -12.7030  -34.9592  -12.6040 C   0  0  0  0  0  0  0  0  0  0  0  0
  1  2  1  0
  2  3  2  0
  2  4  1  0
  4  5  1  0
  5  6  1  0
  6  7  2  0
  7  8  1  0
  8  9  2  0
  9 10  1  0
 10 11  2  0
 10 12  1  0
 12 13  2  0
 12 14  1  0
 14 15  1  0
 15 16  1  6
 16 17  1  0
 17 18  1  0
 18 19  2  0
 19 20  1  0
 20 21  1  0
 21 22  1  0
 22 23  1  0
 23 24  1  0
 19 25  1  0
 25 26  2  0
 26 27  1  0
 15 28  1  0
 28 29  1  6
 28 30  1  0
 30 31  1  0
 31 32  1  0
 32 33  1  0
 33 34  1  0
 32 35  1  0
 35 36  2  0
 36 37  1  0
 37 38  2  0
 38 39  1  0
 39 40  2  0
 37 41  1  0
 41 42  1  0
 41 43  1  0
 41 44  1  0
 11  6  1  0
 24  8  1  0
 27 17  2  0
 34 32  1  0
 40 35  1  0
M  END
$$$$
