
     RDKit          3D

 44 48  0  0  0  0  0  0  0  0999 V2000
  -21.6838  -42.7120  -13.0630 C   0  0  0  0  0  0  0  0  0  0  0  0
  -20.8142  -41.5409  -13.3261 C   0  0  0  0  0  0  0  0  0  0  0  0
  -19.6131  -41.7452  -13.4298 O   0  0  0  0  0  0  0  0  0  0  0  0
  -21.3050  -40.1494  -13.4728 C   0  0  0  0  0  0  0  0  0  0  0  0
  -22.0717  -39.7376  -12.3963 O   0  0  0  0  0  0  0  0  0  0  0  0
  -21.6271  -39.5856  -11.0821 C   0  0  0  0  0  0  0  0  0  0  0  0
  -22.4452  -39.1786  -10.0665 C   0  0  0  0  0  0  0  0  0  0  0  0
  -21.9884  -39.0255   -8.7436 C   0  0  0  0  0  0  0  0  0  0  0  0
  -20.6621  -39.2904   -8.4285 C   0  0  0  0  0  0  0  0  0  0  0  0
  -19.8092  -39.7024   -9.4189 C   0  0  0  0  0  0  0  0  0  0  0  0
  -20.3315  -39.8375  -10.7351 C   0  0  0  0  0  0  0  0  0  0  0  0
  -18.3677  -40.0595   -9.3678 C   0  0  0  0  0  0  0  0  0  0  0  0
  -17.9449  -40.8229  -10.3603 O   0  0  0  0  0  0  0  0  0  0  0  0
  -17.3246  -39.7719   -8.4971 N   0  0  0  0  0  0  0  0  0  0  0  0
  -17.2867  -39.9841   -7.0677 C   0  0  1  0  0  0  0  0  0  0  0  0
  -17.6329  -41.3354   -6.6164 C   0  0  0  0  0  0  0  0  0  0  0  0
  -18.9937  -41.6434   -6.0969 C   0  0  0  0  0  0  0  0  0  0  0  0
  -19.8048  -41.0085   -5.1849 C   0  0  0  0  0  0  0  0  0  0  0  0
  -21.0299  -41.5540   -4.9205 C   0  0  0  0  0  0  0  0  0  0  0  0
  -22.1069  -41.0744   -4.0109 C   0  0  0  0  0  0  0  0  0  0  0  0
  -22.9866  -39.9915   -4.6167 C   0  0  0  0  0  0  0  0  0  0  0  0
  -23.1004  -40.1583   -6.1155 C   0  0  0  0  0  0  0  0  0  0  0  0
  -23.6871  -38.9479   -6.7851 C   0  0  0  0  0  0  0  0  0  0  0  0
  -23.0069  -38.6040   -7.9193 O   0  0  0  0  0  0  0  0  0  0  0  0
  -21.4438  -42.7430   -5.5736 C   0  0  0  0  0  0  0  0  0  0  0  0
  -20.6724  -43.4073   -6.4844 C   0  0  0  0  0  0  0  0  0  0  0  0
  -19.4524  -42.8308   -6.7240 C   0  0  0  0  0  0  0  0  0  0  0  0
  -16.0862  -39.4613   -6.3831 C   0  0  2  0  0  0  0  0  0  0  0  0
  -16.1593  -38.0427   -6.2298 O   0  0  0  0  0  0  0  0  0  0  0  0
  -14.7449  -39.7536   -6.9264 C   0  0  0  0  0  0  0  0  0  0  0  0
  -14.1867  -38.8229   -7.8481 N   0  0  0  0  0  0  0  0  0  0  0  0
  -13.7840  -39.4723   -9.1005 C   0  0  0  0  0  0  0  0  0  0  0  0
  -12.3490  -39.5004   -9.4575 C   0  0  0  0  0  0  0  0  0  0  0  0
  -13.0227  -40.7941   -8.9741 C   0  0  0  0  0  0  0  0  0  0  0  0
  -14.8298  -39.4595  -10.1436 C   0  0  0  0  0  0  0  0  0  0  0  0
  -15.6038  -38.3758  -10.4297 C   0  0  0  0  0  0  0  0  0  0  0  0
  -16.5617  -38.4427  -11.4132 C   0  0  0  0  0  0  0  0  0  0  0  0
  -16.7339  -39.6042  -12.1045 C   0  0  0  0  0  0  0  0  0  0  0  0
  -15.9444  -40.7036  -11.8104 C   0  0  0  0  0  0  0  0  0  0  0  0
  -15.0251  -40.5960  -10.8471 N   0  0  0  0  0  0  0  0  0  0  0  0
  -17.4001  -37.2634  -11.7217 C   0  0  0  0  0  0  0  0  0  0  0  0
  -17.5885  -37.0467  -13.1996 C   0  0  0  0  0  0  0  0  0  0  0  0
  -18.7426  -37.3946  -11.0522 C   0  0  0  0  0  0  0  0  0  0  0  0
  -16.7196  -36.0301  -11.1411 C   0  0  0  0  0  0  0  0  0  0  0  0
  1  2  1  0
  2  3  2  0
  2  4  1  0
  4  5  1  0
  5  6  1  0
  6  7  2  0
  7  8  1  0
  8  9  2  0
  9 10  1  0
 10 11  2  0
 10 12  1  0
 12 13  2  0
 12 14  1  0
 14 15  1  0
 15 16  1  6
 16 17  1  0
 17 18  1  0
 18 19  2  0
 19 20  1  0
 20 21  1  0
 21 22  1  0
 22 23  1  0
 23 24  1  0
 19 25  1  0
 25 26  2  0
 26 27  1  0
 15 28  1  0
 28 29  1  6
 28 30  1  0
 30 31  1  0
 31 32  1  0
 32 33  1  0
 33 34  1  0
 32 35  1  0
 35 36  2  0
 36 37  1  0
 37 38  2  0
 38 39  1  0
 39 40  2  0
 37 41  1  0
 41 42  1  0
 41 43  1  0
 41 44  1  0
 11  6  1  0
 24  8  1  0
 27 17  2  0
 34 32  1  0
 40 35  1  0
M  END
$$$$
