
     RDKit          3D

 10 10  0  0  0  0  0  0  0  0999 V2000
    4.5481    0.2513  -30.6549 C   0  0  0  0  0  0  0  0  0  0  0  0
    4.2952    0.8141  -29.3845 O   0  0  0  0  0  0  0  0  0  0  0  0
    5.3837    1.2815  -28.6199 C   0  0  0  0  0  0  0  0  0  0  0  0
    6.6711    1.1210  -29.0812 C   0  0  0  0  0  0  0  0  0  0  0  0
    7.7337    1.5774  -28.3345 C   0  0  0  0  0  0  0  0  0  0  0  0
    5.1775    1.9004  -27.4104 C   0  0  0  0  0  0  0  0  0  0  0  0
    6.2447    2.3513  -26.6748 C   0  0  0  0  0  0  0  0  0  0  0  0
    7.5576    2.2045  -27.1129 C   0  0  0  0  0  0  0  0  0  0  0  0
    8.6508    2.6876  -26.3188 C   0  0  0  0  0  0  0  0  0  0  0  0
    9.5306    3.0665  -25.6606 N   0  0  0  0  0  0  0  0  0  0  0  0
  1  2  1  0
  2  3  1  0
  3  4  2  0
  4  5  1  0
  3  6  1  0
  6  7  2  0
  7  8  1  0
  8  9  1  0
  9 10  3  0
  8  5  2  0
M  END
$$$$
