
     RDKit          3D

 10 10  0  0  0  0  0  0  0  0999 V2000
   -3.8434   22.6142   -6.6998 C   0  0  0  0  0  0  0  0  0  0  0  0
   -5.0016   22.0146   -7.2417 O   0  0  0  0  0  0  0  0  0  0  0  0
   -5.1744   20.6222   -7.1019 C   0  0  0  0  0  0  0  0  0  0  0  0
   -6.3542   20.0302   -7.4936 C   0  0  0  0  0  0  0  0  0  0  0  0
   -6.5228   18.6708   -7.3571 C   0  0  0  0  0  0  0  0  0  0  0  0
   -4.1744   19.8401   -6.5759 C   0  0  0  0  0  0  0  0  0  0  0  0
   -4.3539   18.4860   -6.4446 C   0  0  0  0  0  0  0  0  0  0  0  0
   -5.5340   17.8571   -6.8309 C   0  0  0  0  0  0  0  0  0  0  0  0
   -5.6889   16.4386   -6.6798 C   0  0  0  0  0  0  0  0  0  0  0  0
   -5.8257   15.2927   -6.5409 N   0  0  0  0  0  0  0  0  0  0  0  0
  1  2  1  0
  2  3  1  0
  3  4  2  0
  4  5  1  0
  3  6  1  0
  6  7  2  0
  7  8  1  0
  8  9  1  0
  9 10  3  0
  8  5  2  0
M  END
$$$$
