
     RDKit          3D

 10 10  0  0  0  0  0  0  0  0999 V2000
   -2.0576    7.1551   -8.0597 C   0  0  0  0  0  0  0  0  0  0  0  0
   -2.8684    8.2159   -7.5994 O   0  0  0  0  0  0  0  0  0  0  0  0
   -3.7811    8.8110   -8.4943 C   0  0  0  0  0  0  0  0  0  0  0  0
   -3.7451    8.4894   -9.8327 C   0  0  0  0  0  0  0  0  0  0  0  0
   -4.6362    9.0704  -10.7063 C   0  0  0  0  0  0  0  0  0  0  0  0
   -4.7144    9.7151   -8.0473 C   0  0  0  0  0  0  0  0  0  0  0  0
   -5.5976   10.2879   -8.9275 C   0  0  0  0  0  0  0  0  0  0  0  0
   -5.5874    9.9843  -10.2858 C   0  0  0  0  0  0  0  0  0  0  0  0
   -6.5254   10.6015  -11.1792 C   0  0  0  0  0  0  0  0  0  0  0  0
   -7.2985   11.1027  -11.8877 N   0  0  0  0  0  0  0  0  0  0  0  0
  1  2  1  0
  2  3  1  0
  3  4  2  0
  4  5  1  0
  3  6  1  0
  6  7  2  0
  7  8  1  0
  8  9  1  0
  9 10  3  0
  8  5  2  0
M  END
$$$$
