
     RDKit          3D

 10 10  0  0  0  0  0  0  0  0999 V2000
   -5.2776   -0.6541   27.8519 C   0  0  0  0  0  0  0  0  0  0  0  0
   -5.9111   -1.9159   27.8878 O   0  0  0  0  0  0  0  0  0  0  0  0
   -5.9489   -2.6225   29.1073 C   0  0  0  0  0  0  0  0  0  0  0  0
   -6.4628   -3.8993   29.1498 C   0  0  0  0  0  0  0  0  0  0  0  0
   -6.4996   -4.5891   30.3405 C   0  0  0  0  0  0  0  0  0  0  0  0
   -5.4764   -2.0514   30.2645 C   0  0  0  0  0  0  0  0  0  0  0  0
   -5.5183   -2.7488   31.4456 C   0  0  0  0  0  0  0  0  0  0  0  0
   -6.0313   -4.0404   31.5222 C   0  0  0  0  0  0  0  0  0  0  0  0
   -6.0602   -4.7417   32.7737 C   0  0  0  0  0  0  0  0  0  0  0  0
   -6.1014   -5.3180   33.7822 N   0  0  0  0  0  0  0  0  0  0  0  0
  1  2  1  0
  2  3  1  0
  3  4  2  0
  4  5  1  0
  3  6  1  0
  6  7  2  0
  7  8  1  0
  8  9  1  0
  9 10  3  0
  8  5  2  0
M  END
$$$$
