
     RDKit          3D

 10 10  0  0  0  0  0  0  0  0999 V2000
   -6.8653   22.9847   -9.5678 C   0  0  0  0  0  0  0  0  0  0  0  0
   -5.9348   22.3897   -8.6875 O   0  0  0  0  0  0  0  0  0  0  0  0
   -6.0735   21.0215   -8.3761 C   0  0  0  0  0  0  0  0  0  0  0  0
   -5.1950   20.4196   -7.5032 C   0  0  0  0  0  0  0  0  0  0  0  0
   -5.3304   19.0840   -7.1992 C   0  0  0  0  0  0  0  0  0  0  0  0
   -7.0809   20.2728   -8.9354 C   0  0  0  0  0  0  0  0  0  0  0  0
   -7.2061   18.9421   -8.6249 C   0  0  0  0  0  0  0  0  0  0  0  0
   -6.3349   18.3041   -7.7466 C   0  0  0  0  0  0  0  0  0  0  0  0
   -6.4941   16.9107   -7.4434 C   0  0  0  0  0  0  0  0  0  0  0  0
   -6.6035   15.7789   -7.2025 N   0  0  0  0  0  0  0  0  0  0  0  0
  1  2  1  0
  2  3  1  0
  3  4  2  0
  4  5  1  0
  3  6  1  0
  6  7  2  0
  7  8  1  0
  8  9  1  0
  9 10  3  0
  8  5  2  0
M  END
$$$$
