
     RDKit          3D

 10 10  0  0  0  0  0  0  0  0999 V2000
   -3.2999   17.1172   -4.8364 C   0  0  0  0  0  0  0  0  0  0  0  0
   -4.4464   16.7627   -5.5811 O   0  0  0  0  0  0  0  0  0  0  0  0
   -5.0702   17.7455   -6.3768 C   0  0  0  0  0  0  0  0  0  0  0  0
   -4.5704   19.0282   -6.4078 C   0  0  0  0  0  0  0  0  0  0  0  0
   -5.1795   19.9875   -7.1846 C   0  0  0  0  0  0  0  0  0  0  0  0
   -6.1793   17.4401   -7.1284 C   0  0  0  0  0  0  0  0  0  0  0  0
   -6.7781   18.4048   -7.8990 C   0  0  0  0  0  0  0  0  0  0  0  0
   -6.2978   19.7100   -7.9523 C   0  0  0  0  0  0  0  0  0  0  0  0
   -6.9479   20.6948   -8.7688 C   0  0  0  0  0  0  0  0  0  0  0  0
   -7.4924   21.4870   -9.4221 N   0  0  0  0  0  0  0  0  0  0  0  0
  1  2  1  0
  2  3  1  0
  3  4  2  0
  4  5  1  0
  3  6  1  0
  6  7  2  0
  7  8  1  0
  8  9  1  0
  9 10  3  0
  8  5  2  0
M  END
$$$$
