
     RDKit          3D

 10 10  0  0  0  0  0  0  0  0999 V2000
    2.9986   28.8014  -13.3246 C   0  0  0  0  0  0  0  0  0  0  0  0
    4.1597   28.6083  -12.5441 O   0  0  0  0  0  0  0  0  0  0  0  0
    5.4212   28.7250  -13.1630 C   0  0  0  0  0  0  0  0  0  0  0  0
    5.5548   29.4477  -14.3274 C   0  0  0  0  0  0  0  0  0  0  0  0
    6.7865   29.5615  -14.9315 C   0  0  0  0  0  0  0  0  0  0  0  0
    6.5294   28.1231  -12.6170 C   0  0  0  0  0  0  0  0  0  0  0  0
    7.7521   28.2436  -13.2282 C   0  0  0  0  0  0  0  0  0  0  0  0
    7.9206   28.9667  -14.4054 C   0  0  0  0  0  0  0  0  0  0  0  0
    9.2135   29.0728  -15.0187 C   0  0  0  0  0  0  0  0  0  0  0  0
   10.2582   29.1787  -15.5170 N   0  0  0  0  0  0  0  0  0  0  0  0
  1  2  1  0
  2  3  1  0
  3  4  2  0
  4  5  1  0
  3  6  1  0
  6  7  2  0
  7  8  1  0
  8  9  1  0
  9 10  3  0
  8  5  2  0
M  END
$$$$
