
     RDKit          3D

 10 10  0  0  0  0  0  0  0  0999 V2000
    3.6930    0.9236  -30.4760 C   0  0  0  0  0  0  0  0  0  0  0  0
    4.5182    2.0670  -30.3953 O   0  0  0  0  0  0  0  0  0  0  0  0
    5.4782    2.1404  -29.3652 C   0  0  0  0  0  0  0  0  0  0  0  0
    5.6968    1.0551  -28.5464 C   0  0  0  0  0  0  0  0  0  0  0  0
    6.6339    1.1270  -27.5407 C   0  0  0  0  0  0  0  0  0  0  0  0
    6.2054    3.2889  -29.1639 C   0  0  0  0  0  0  0  0  0  0  0  0
    7.1370    3.3489  -28.1582 C   0  0  0  0  0  0  0  0  0  0  0  0
    7.3817    2.2699  -27.3137 C   0  0  0  0  0  0  0  0  0  0  0  0
    8.3633    2.3661  -26.2715 C   0  0  0  0  0  0  0  0  0  0  0  0
    9.1658    2.4607  -25.4361 N   0  0  0  0  0  0  0  0  0  0  0  0
  1  2  1  0
  2  3  1  0
  3  4  2  0
  4  5  1  0
  3  6  1  0
  6  7  2  0
  7  8  1  0
  8  9  1  0
  9 10  3  0
  8  5  2  0
M  END
$$$$
