
     RDKit          3D

 10 10  0  0  0  0  0  0  0  0999 V2000
    5.4675   -0.4303  -29.6562 C   0  0  0  0  0  0  0  0  0  0  0  0
    5.5947    0.9189  -29.2587 O   0  0  0  0  0  0  0  0  0  0  0  0
    6.6381    1.2723  -28.3786 C   0  0  0  0  0  0  0  0  0  0  0  0
    7.3170    0.2954  -27.6851 C   0  0  0  0  0  0  0  0  0  0  0  0
    8.3356    0.6405  -26.8259 C   0  0  0  0  0  0  0  0  0  0  0  0
    6.9910    2.5884  -28.2007 C   0  0  0  0  0  0  0  0  0  0  0  0
    8.0081    2.9204  -27.3415 C   0  0  0  0  0  0  0  0  0  0  0  0
    8.7137    1.9573  -26.6260 C   0  0  0  0  0  0  0  0  0  0  0  0
    9.7722    2.3388  -25.7355 C   0  0  0  0  0  0  0  0  0  0  0  0
   10.6175    2.6436  -24.9983 N   0  0  0  0  0  0  0  0  0  0  0  0
  1  2  1  0
  2  3  1  0
  3  4  2  0
  4  5  1  0
  3  6  1  0
  6  7  2  0
  7  8  1  0
  8  9  1  0
  9 10  3  0
  8  5  2  0
M  END
$$$$
