
     RDKit          3D

 10 10  0  0  0  0  0  0  0  0999 V2000
   10.5325  -17.7814   38.4393 C   0  0  0  0  0  0  0  0  0  0  0  0
    9.7391  -16.9900   37.5797 O   0  0  0  0  0  0  0  0  0  0  0  0
   10.3483  -15.9303   36.8770 C   0  0  0  0  0  0  0  0  0  0  0  0
    9.6083  -15.1658   36.0029 C   0  0  0  0  0  0  0  0  0  0  0  0
   10.2032  -14.1313   35.3169 C   0  0  0  0  0  0  0  0  0  0  0  0
   11.6813  -15.6461   37.0527 C   0  0  0  0  0  0  0  0  0  0  0  0
   12.2635  -14.6123   36.3633 C   0  0  0  0  0  0  0  0  0  0  0  0
   11.5435  -13.8210   35.4729 C   0  0  0  0  0  0  0  0  0  0  0  0
   12.1833  -12.7474   34.7680 C   0  0  0  0  0  0  0  0  0  0  0  0
   12.6865  -11.8779   34.1834 N   0  0  0  0  0  0  0  0  0  0  0  0
  1  2  1  0
  2  3  1  0
  3  4  2  0
  4  5  1  0
  3  6  1  0
  6  7  2  0
  7  8  1  0
  8  9  1  0
  9 10  3  0
  8  5  2  0
M  END
$$$$
