
     RDKit          3D

 10 10  0  0  0  0  0  0  0  0999 V2000
   11.3575    5.5969   29.3407 C   0  0  0  0  0  0  0  0  0  0  0  0
   11.2425    5.0336   30.6307 O   0  0  0  0  0  0  0  0  0  0  0  0
   12.0725    5.5207   31.6611 C   0  0  0  0  0  0  0  0  0  0  0  0
   13.1795    6.2803   31.3550 C   0  0  0  0  0  0  0  0  0  0  0  0
   13.9898    6.7559   32.3611 C   0  0  0  0  0  0  0  0  0  0  0  0
   11.7912    5.2466   32.9779 C   0  0  0  0  0  0  0  0  0  0  0  0
   12.6062    5.7261   33.9723 C   0  0  0  0  0  0  0  0  0  0  0  0
   13.7321    6.4964   33.6964 C   0  0  0  0  0  0  0  0  0  0  0  0
   14.5634    6.9822   34.7604 C   0  0  0  0  0  0  0  0  0  0  0  0
   15.2415    7.3918   35.6109 N   0  0  0  0  0  0  0  0  0  0  0  0
  1  2  1  0
  2  3  1  0
  3  4  2  0
  4  5  1  0
  3  6  1  0
  6  7  2  0
  7  8  1  0
  8  9  1  0
  9 10  3  0
  8  5  2  0
M  END
$$$$
