
     RDKit          3D

 10 10  0  0  0  0  0  0  0  0999 V2000
   -4.9820   -0.9408   27.5838 C   0  0  0  0  0  0  0  0  0  0  0  0
   -5.6049   -2.2002   27.7268 O   0  0  0  0  0  0  0  0  0  0  0  0
   -5.6567   -2.7909   29.0061 C   0  0  0  0  0  0  0  0  0  0  0  0
   -5.1307   -2.1301   30.0936 C   0  0  0  0  0  0  0  0  0  0  0  0
   -5.1813   -2.7069   31.3424 C   0  0  0  0  0  0  0  0  0  0  0  0
   -6.2292   -4.0272   29.1857 C   0  0  0  0  0  0  0  0  0  0  0  0
   -6.2739   -4.5923   30.4354 C   0  0  0  0  0  0  0  0  0  0  0  0
   -5.7514   -3.9506   31.5546 C   0  0  0  0  0  0  0  0  0  0  0  0
   -5.8147   -4.5699   32.8475 C   0  0  0  0  0  0  0  0  0  0  0  0
   -5.8848   -5.0645   33.8969 N   0  0  0  0  0  0  0  0  0  0  0  0
  1  2  1  0
  2  3  1  0
  3  4  2  0
  4  5  1  0
  3  6  1  0
  6  7  2  0
  7  8  1  0
  8  9  1  0
  9 10  3  0
  8  5  2  0
M  END
$$$$
