
     RDKit          3D

 10 10  0  0  0  0  0  0  0  0999 V2000
   -6.6603   22.4876   -8.6551 C   0  0  0  0  0  0  0  0  0  0  0  0
   -7.2241   21.1999   -8.5191 O   0  0  0  0  0  0  0  0  0  0  0  0
   -6.4470   20.1759   -7.9397 C   0  0  0  0  0  0  0  0  0  0  0  0
   -5.2495   20.4784   -7.3311 C   0  0  0  0  0  0  0  0  0  0  0  0
   -4.4909   19.4786   -6.7655 C   0  0  0  0  0  0  0  0  0  0  0  0
   -6.8703   18.8690   -7.9736 C   0  0  0  0  0  0  0  0  0  0  0  0
   -6.1056   17.8808   -7.4064 C   0  0  0  0  0  0  0  0  0  0  0  0
   -4.8909   18.1533   -6.7838 C   0  0  0  0  0  0  0  0  0  0  0  0
   -4.1158   17.0960   -6.2005 C   0  0  0  0  0  0  0  0  0  0  0  0
   -3.4962   16.2265   -5.7411 N   0  0  0  0  0  0  0  0  0  0  0  0
  1  2  1  0
  2  3  1  0
  3  4  2  0
  4  5  1  0
  3  6  1  0
  6  7  2  0
  7  8  1  0
  8  9  1  0
  9 10  3  0
  8  5  2  0
M  END
$$$$
