
     RDKit          3D

 10 10  0  0  0  0  0  0  0  0999 V2000
    8.9970   27.6483  -11.2649 C   0  0  0  0  0  0  0  0  0  0  0  0
    8.7445   28.2792  -12.5030 O   0  0  0  0  0  0  0  0  0  0  0  0
    9.8384   28.7115  -13.2805 C   0  0  0  0  0  0  0  0  0  0  0  0
   11.0888   28.1737  -13.0725 C   0  0  0  0  0  0  0  0  0  0  0  0
   12.1567   28.5959  -13.8316 C   0  0  0  0  0  0  0  0  0  0  0  0
    9.6743   29.6700  -14.2514 C   0  0  0  0  0  0  0  0  0  0  0  0
   10.7462   30.0831  -15.0020 C   0  0  0  0  0  0  0  0  0  0  0  0
   12.0225   29.5596  -14.8166 C   0  0  0  0  0  0  0  0  0  0  0  0
   13.1219   30.0138  -15.6191 C   0  0  0  0  0  0  0  0  0  0  0  0
   14.0149   30.3629  -16.2760 N   0  0  0  0  0  0  0  0  0  0  0  0
  1  2  1  0
  2  3  1  0
  3  4  2  0
  4  5  1  0
  3  6  1  0
  6  7  2  0
  7  8  1  0
  8  9  1  0
  9 10  3  0
  8  5  2  0
M  END
$$$$
