
     RDKit          3D

 10 10  0  0  0  0  0  0  0  0999 V2000
   -4.8231   -0.2742   27.8577 C   0  0  0  0  0  0  0  0  0  0  0  0
   -5.7473   -1.3404   27.7992 O   0  0  0  0  0  0  0  0  0  0  0  0
   -5.8323   -2.2264   28.8928 C   0  0  0  0  0  0  0  0  0  0  0  0
   -5.0451   -2.0280   30.0050 C   0  0  0  0  0  0  0  0  0  0  0  0
   -5.1282   -2.8930   31.0725 C   0  0  0  0  0  0  0  0  0  0  0  0
   -6.6964   -3.2945   28.8653 C   0  0  0  0  0  0  0  0  0  0  0  0
   -6.7706   -4.1503   29.9355 C   0  0  0  0  0  0  0  0  0  0  0  0
   -5.9889   -3.9775   31.0741 C   0  0  0  0  0  0  0  0  0  0  0  0
   -6.0912   -4.8911   32.1758 C   0  0  0  0  0  0  0  0  0  0  0  0
   -6.1787   -5.6156   33.0804 N   0  0  0  0  0  0  0  0  0  0  0  0
  1  2  1  0
  2  3  1  0
  3  4  2  0
  4  5  1  0
  3  6  1  0
  6  7  2  0
  7  8  1  0
  8  9  1  0
  9 10  3  0
  8  5  2  0
M  END
$$$$
