
     RDKit          3D

 10 10  0  0  0  0  0  0  0  0999 V2000
   13.5659  -27.2009   27.5508 C   0  0  0  0  0  0  0  0  0  0  0  0
   14.3159  -26.0042   27.5440 O   0  0  0  0  0  0  0  0  0  0  0  0
   14.4688  -25.2916   28.7510 C   0  0  0  0  0  0  0  0  0  0  0  0
   15.1211  -24.0790   28.7590 C   0  0  0  0  0  0  0  0  0  0  0  0
   15.2704  -23.3834   29.9375 C   0  0  0  0  0  0  0  0  0  0  0  0
   13.9724  -25.7933   29.9301 C   0  0  0  0  0  0  0  0  0  0  0  0
   14.1272  -25.0909   31.0987 C   0  0  0  0  0  0  0  0  0  0  0  0
   14.7813  -23.8630   31.1406 C   0  0  0  0  0  0  0  0  0  0  0  0
   14.9259  -23.1544   32.3800 C   0  0  0  0  0  0  0  0  0  0  0  0
   15.0605  -22.5727   33.3772 N   0  0  0  0  0  0  0  0  0  0  0  0
  1  2  1  0
  2  3  1  0
  3  4  2  0
  4  5  1  0
  3  6  1  0
  6  7  2  0
  7  8  1  0
  8  9  1  0
  9 10  3  0
  8  5  2  0
M  END
$$$$
