
     RDKit          3D

 10 10  0  0  0  0  0  0  0  0999 V2000
   -5.6216   23.1691   -9.7295 C   0  0  0  0  0  0  0  0  0  0  0  0
   -6.6166   22.1832   -9.5495 O   0  0  0  0  0  0  0  0  0  0  0  0
   -6.2807   20.9957   -8.8675 C   0  0  0  0  0  0  0  0  0  0  0  0
   -5.1178   20.9265   -8.1334 C   0  0  0  0  0  0  0  0  0  0  0  0
   -4.7900   19.7671   -7.4676 C   0  0  0  0  0  0  0  0  0  0  0  0
   -7.1035   19.8966   -8.9247 C   0  0  0  0  0  0  0  0  0  0  0  0
   -6.7663   18.7462   -8.2568 C   0  0  0  0  0  0  0  0  0  0  0  0
   -5.5985   18.6439   -7.5064 C   0  0  0  0  0  0  0  0  0  0  0  0
   -5.2758   17.4258   -6.8200 C   0  0  0  0  0  0  0  0  0  0  0  0
   -5.0101   16.4305   -6.2819 N   0  0  0  0  0  0  0  0  0  0  0  0
  1  2  1  0
  2  3  1  0
  3  4  2  0
  4  5  1  0
  3  6  1  0
  6  7  2  0
  7  8  1  0
  8  9  1  0
  9 10  3  0
  8  5  2  0
M  END
$$$$
