
     RDKit          3D

 10 10  0  0  0  0  0  0  0  0999 V2000
   -7.6518   -6.5433   29.4681 C   0  0  0  0  0  0  0  0  0  0  0  0
   -7.2172   -5.2156   29.2605 O   0  0  0  0  0  0  0  0  0  0  0  0
   -6.6815   -4.4981   30.3497 C   0  0  0  0  0  0  0  0  0  0  0  0
   -6.5660   -5.0996   31.5829 C   0  0  0  0  0  0  0  0  0  0  0  0
   -6.0430   -4.3990   32.6462 C   0  0  0  0  0  0  0  0  0  0  0  0
   -6.2692   -3.1961   30.1979 C   0  0  0  0  0  0  0  0  0  0  0  0
   -5.7493   -2.5077   31.2651 C   0  0  0  0  0  0  0  0  0  0  0  0
   -5.6193   -3.0866   32.5241 C   0  0  0  0  0  0  0  0  0  0  0  0
   -5.0713   -2.3383   33.6190 C   0  0  0  0  0  0  0  0  0  0  0  0
   -4.6278   -1.7154   34.4944 N   0  0  0  0  0  0  0  0  0  0  0  0
  1  2  1  0
  2  3  1  0
  3  4  2  0
  4  5  1  0
  3  6  1  0
  6  7  2  0
  7  8  1  0
  8  9  1  0
  9 10  3  0
  8  5  2  0
M  END
$$$$
