
     RDKit          3D

 38 40  0  0  0  0  0  0  0  0999 V2000
  -21.0217  -47.1840  -10.4919 C   0  0  0  0  0  0  0  0  0  0  0  0
  -20.7153  -45.8858  -10.8475 O   0  0  0  0  0  0  0  0  0  0  0  0
  -21.2745  -44.9621  -10.0104 C   0  0  0  0  0  0  0  0  0  0  0  0
  -20.2408  -44.2584   -9.2158 C   0  0  0  0  0  0  0  0  0  0  0  0
  -20.0505  -44.4836   -7.8792 C   0  0  0  0  0  0  0  0  0  0  0  0
  -19.0483  -43.8214   -7.1213 C   0  0  0  0  0  0  0  0  0  0  0  0
  -18.2053  -42.9078   -7.7086 C   0  0  0  0  0  0  0  0  0  0  0  0
  -18.3721  -42.6557   -9.0594 C   0  0  0  0  0  0  0  0  0  0  0  0
  -19.3893  -43.3436   -9.7694 C   0  0  0  0  0  0  0  0  0  0  0  0
  -17.6595  -41.7382   -9.9680 C   0  0  0  0  0  0  0  0  0  0  0  0
  -17.4574  -42.2332  -11.1740 O   0  0  0  0  0  0  0  0  0  0  0  0
  -17.1345  -40.4475   -9.8695 N   0  0  0  0  0  0  0  0  0  0  0  0
  -17.6086  -39.2881   -9.1891 C   0  0  1  0  0  0  0  0  0  0  0  0
  -18.9139  -38.7207   -9.6348 C   0  0  0  0  0  0  0  0  0  0  0  0
  -20.1390  -39.4645   -9.2667 C   0  0  2  0  0  0  0  0  0  0  0  0
  -20.8628  -39.7979  -10.5820 C   0  0  0  0  0  0  0  0  0  0  0  0
  -21.0999  -38.5317   -8.5149 C   0  0  0  0  0  0  0  0  0  0  0  0
  -21.6945  -39.2473   -7.3182 C   0  0  0  0  0  0  0  0  0  0  0  0
  -20.7750  -40.0716   -6.7140 O   0  0  0  0  0  0  0  0  0  0  0  0
  -21.2906  -41.0676   -5.9254 C   0  0  0  0  0  0  0  0  0  0  0  0
  -20.4175  -41.3950   -4.7362 C   0  0  0  0  0  0  0  0  0  0  0  0
  -20.4472  -42.8198   -4.3119 C   0  0  0  0  0  0  0  0  0  0  0  0
  -19.1401  -43.5450   -4.5189 C   0  0  0  0  0  0  0  0  0  0  0  0
  -19.1539  -44.2813   -5.7543 N   0  0  0  0  0  0  0  0  0  0  0  0
  -17.5147  -39.3401   -7.6838 C   0  0  2  0  0  0  0  0  0  0  0  0
  -18.6849  -38.6986   -7.2090 O   0  0  0  0  0  0  0  0  0  0  0  0
  -16.3655  -38.4387   -7.2796 C   0  0  0  0  0  0  0  0  0  0  0  0
  -16.1099  -37.5657   -8.4368 N   0  0  0  0  0  0  0  0  0  0  0  0
  -14.7337  -37.6906   -8.8715 C   0  0  0  0  0  0  0  0  0  0  0  0
  -14.6495  -37.1579  -10.2547 C   0  0  0  0  0  0  0  0  0  0  0  0
  -13.4621  -37.1504  -10.9712 C   0  0  0  0  0  0  0  0  0  0  0  0
  -13.3565  -36.6652  -12.2457 C   0  0  0  0  0  0  0  0  0  0  0  0
  -14.4883  -36.1577  -12.8491 C   0  0  0  0  0  0  0  0  0  0  0  0
  -15.6869  -36.1402  -12.1887 C   0  0  0  0  0  0  0  0  0  0  0  0
  -15.7475  -36.6384  -10.9080 C   0  0  0  0  0  0  0  0  0  0  0  0
  -12.0765  -36.6619  -13.0068 C   0  0  0  0  0  0  0  0  0  0  0  0
  -12.0256  -35.5364  -14.0228 C   0  0  0  0  0  0  0  0  0  0  0  0
  -11.8444  -37.9865  -13.7007 C   0  0  0  0  0  0  0  0  0  0  0  0
  1  2  1  0
  2  3  1  0
  3  4  1  0
  4  5  2  0
  5  6  1  0
  6  7  2  0
  7  8  1  0
  8  9  2  0
  8 10  1  0
 10 11  2  0
 10 12  1  0
 12 13  1  0
 13 14  1  1
 14 15  1  0
 15 16  1  6
 15 17  1  0
 17 18  1  0
 18 19  1  0
 19 20  1  0
 20 21  1  0
 21 22  1  0
 22 23  1  0
 23 24  1  0
 13 25  1  0
 25 26  1  1
 25 27  1  0
 27 28  1  0
 28 29  1  0
 29 30  1  0
 30 31  2  0
 31 32  1  0
 32 33  2  0
 33 34  1  0
 34 35  2  0
 32 36  1  0
 36 37  1  0
 36 38  1  0
  9  4  1  0
 24  6  1  0
 35 30  1  0
M  END
$$$$
