
     RDKit          3D

 38 40  0  0  0  0  0  0  0  0999 V2000
  -10.6308  -36.8431   -8.7007 C   0  0  0  0  0  0  0  0  0  0  0  0
  -11.2879  -37.0292   -9.9004 O   0  0  0  0  0  0  0  0  0  0  0  0
  -11.2180  -38.3184  -10.3473 C   0  0  0  0  0  0  0  0  0  0  0  0
  -12.3758  -39.1154   -9.8790 C   0  0  0  0  0  0  0  0  0  0  0  0
  -12.5988  -40.4059  -10.2769 C   0  0  0  0  0  0  0  0  0  0  0  0
  -13.6994  -41.1755   -9.8146 C   0  0  0  0  0  0  0  0  0  0  0  0
  -14.6075  -40.6489   -8.9266 C   0  0  0  0  0  0  0  0  0  0  0  0
  -14.4118  -39.3451   -8.5051 C   0  0  0  0  0  0  0  0  0  0  0  0
  -13.2968  -38.6202   -8.9986 C   0  0  0  0  0  0  0  0  0  0  0  0
  -15.1966  -38.4957   -7.5899 C   0  0  0  0  0  0  0  0  0  0  0  0
  -14.4584  -37.7312   -6.8080 O   0  0  0  0  0  0  0  0  0  0  0  0
  -16.5556  -38.2924   -7.3389 N   0  0  0  0  0  0  0  0  0  0  0  0
  -17.6799  -38.2607   -8.2146 C   0  0  1  0  0  0  0  0  0  0  0  0
  -17.7118  -37.1841   -9.2461 C   0  0  0  0  0  0  0  0  0  0  0  0
  -16.7915  -37.3186  -10.3971 C   0  0  2  0  0  0  0  0  0  0  0  0
  -15.9132  -36.0564  -10.4076 C   0  0  0  0  0  0  0  0  0  0  0  0
  -17.5923  -37.2510  -11.7058 C   0  0  0  0  0  0  0  0  0  0  0  0
  -17.1070  -38.3138  -12.6716 C   0  0  0  0  0  0  0  0  0  0  0  0
  -16.7764  -39.4774  -12.0184 O   0  0  0  0  0  0  0  0  0  0  0  0
  -15.9407  -40.3277  -12.6955 C   0  0  0  0  0  0  0  0  0  0  0  0
  -16.2183  -41.7853  -12.4096 C   0  0  0  0  0  0  0  0  0  0  0  0
  -15.0214  -42.6672  -12.4376 C   0  0  0  0  0  0  0  0  0  0  0  0
  -14.6611  -43.2489  -11.0926 C   0  0  0  0  0  0  0  0  0  0  0  0
  -13.6330  -42.4694  -10.4571 N   0  0  0  0  0  0  0  0  0  0  0  0
  -18.0825  -39.5940   -8.7957 C   0  0  2  0  0  0  0  0  0  0  0  0
  -18.9055  -39.2894   -9.9076 O   0  0  0  0  0  0  0  0  0  0  0  0
  -18.9951  -40.2606   -7.7861 C   0  0  0  0  0  0  0  0  0  0  0  0
  -19.7634  -39.1745   -7.1563 N   0  0  0  0  0  0  0  0  0  0  0  0
  -20.0072  -39.4703   -5.7594 C   0  0  0  0  0  0  0  0  0  0  0  0
  -21.0829  -40.4917   -5.6977 C   0  0  0  0  0  0  0  0  0  0  0  0
  -22.2082  -40.4276   -6.5057 C   0  0  0  0  0  0  0  0  0  0  0  0
  -23.2137  -41.3541   -6.4685 C   0  0  0  0  0  0  0  0  0  0  0  0
  -23.1030  -42.4056   -5.5826 C   0  0  0  0  0  0  0  0  0  0  0  0
  -22.0141  -42.5187   -4.7613 C   0  0  0  0  0  0  0  0  0  0  0  0
  -21.0263  -41.5640   -4.8321 C   0  0  0  0  0  0  0  0  0  0  0  0
  -24.4182  -41.2765   -7.3408 C   0  0  0  0  0  0  0  0  0  0  0  0
  -25.6082  -40.6831   -6.6103 C   0  0  0  0  0  0  0  0  0  0  0  0
  -24.7858  -42.6357   -7.8953 C   0  0  0  0  0  0  0  0  0  0  0  0
  1  2  1  0
  2  3  1  0
  3  4  1  0
  4  5  2  0
  5  6  1  0
  6  7  2  0
  7  8  1  0
  8  9  2  0
  8 10  1  0
 10 11  2  0
 10 12  1  0
 12 13  1  0
 13 14  1  6
 14 15  1  0
 15 16  1  6
 15 17  1  0
 17 18  1  0
 18 19  1  0
 19 20  1  0
 20 21  1  0
 21 22  1  0
 22 23  1  0
 23 24  1  0
 13 25  1  0
 25 26  1  6
 25 27  1  0
 27 28  1  0
 28 29  1  0
 29 30  1  0
 30 31  2  0
 31 32  1  0
 32 33  2  0
 33 34  1  0
 34 35  2  0
 32 36  1  0
 36 37  1  0
 36 38  1  0
  9  4  1  0
 24  6  1  0
 35 30  1  0
M  END
$$$$
