
     RDKit          3D

 38 40  0  0  0  0  0  0  0  0999 V2000
  -14.1857  -41.5440   -5.1517 C   0  0  0  0  0  0  0  0  0  0  0  0
  -15.2624  -40.9818   -4.4957 O   0  0  0  0  0  0  0  0  0  0  0  0
  -15.5665  -39.7311   -4.9538 C   0  0  0  0  0  0  0  0  0  0  0  0
  -16.7955  -39.7436   -5.7811 C   0  0  0  0  0  0  0  0  0  0  0  0
  -18.0365  -39.4720   -5.2717 C   0  0  0  0  0  0  0  0  0  0  0  0
  -19.2123  -39.4672   -6.0684 C   0  0  0  0  0  0  0  0  0  0  0  0
  -19.1554  -39.7382   -7.4151 C   0  0  0  0  0  0  0  0  0  0  0  0
  -17.9152  -40.0186   -7.9620 C   0  0  0  0  0  0  0  0  0  0  0  0
  -16.7726  -40.0112   -7.1214 C   0  0  0  0  0  0  0  0  0  0  0  0
  -17.5205  -40.3609   -9.3412 C   0  0  0  0  0  0  0  0  0  0  0  0
  -16.3787  -39.8186   -9.7187 O   0  0  0  0  0  0  0  0  0  0  0  0
  -18.0643  -41.1336  -10.3700 N   0  0  0  0  0  0  0  0  0  0  0  0
  -18.7740  -42.3695  -10.3444 C   0  0  1  0  0  0  0  0  0  0  0  0
  -18.0437  -43.5660   -9.8351 C   0  0  0  0  0  0  0  0  0  0  0  0
  -17.8062  -43.6469   -8.3768 C   0  0  2  0  0  0  0  0  0  0  0  0
  -16.2845  -43.7576   -8.1846 C   0  0  0  0  0  0  0  0  0  0  0  0
  -18.3678  -44.9708   -7.8376 C   0  0  0  0  0  0  0  0  0  0  0  0
  -19.1096  -44.7334   -6.5371 C   0  0  0  0  0  0  0  0  0  0  0  0
  -19.7993  -43.5445   -6.5583 O   0  0  0  0  0  0  0  0  0  0  0  0
  -20.1342  -43.0244   -5.3348 C   0  0  0  0  0  0  0  0  0  0  0  0
  -21.4501  -42.2815   -5.3456 C   0  0  0  0  0  0  0  0  0  0  0  0
  -21.5248  -41.1277   -4.4107 C   0  0  0  0  0  0  0  0  0  0  0  0
  -21.6241  -39.7893   -5.1006 C   0  0  0  0  0  0  0  0  0  0  0  0
  -20.3306  -39.1687   -5.2014 N   0  0  0  0  0  0  0  0  0  0  0  0
  -20.1738  -42.2979   -9.7849 C   0  0  2  0  0  0  0  0  0  0  0  0
  -20.6042  -43.6424   -9.6683 O   0  0  0  0  0  0  0  0  0  0  0  0
  -21.0496  -41.6834  -10.8582 C   0  0  0  0  0  0  0  0  0  0  0  0
  -20.5763  -40.2994  -11.0231 N   0  0  0  0  0  0  0  0  0  0  0  0
  -21.6789  -39.4242  -11.3645 C   0  0  0  0  0  0  0  0  0  0  0  0
  -21.7471  -39.3444  -12.8455 C   0  0  0  0  0  0  0  0  0  0  0  0
  -20.6824  -38.8908  -13.6096 C   0  0  0  0  0  0  0  0  0  0  0  0
  -20.7190  -38.8065  -14.9743 C   0  0  0  0  0  0  0  0  0  0  0  0
  -21.8731  -39.1924  -15.6236 C   0  0  0  0  0  0  0  0  0  0  0  0
  -22.9547  -39.6481  -14.9196 C   0  0  0  0  0  0  0  0  0  0  0  0
  -22.8742  -39.7163  -13.5481 C   0  0  0  0  0  0  0  0  0  0  0  0
  -19.5699  -38.3181  -15.7859 C   0  0  0  0  0  0  0  0  0  0  0  0
  -18.8116  -39.4595  -16.4370 C   0  0  0  0  0  0  0  0  0  0  0  0
  -18.6207  -37.4850  -14.9522 C   0  0  0  0  0  0  0  0  0  0  0  0
  1  2  1  0
  2  3  1  0
  3  4  1  0
  4  5  2  0
  5  6  1  0
  6  7  2  0
  7  8  1  0
  8  9  2  0
  8 10  1  0
 10 11  2  0
 10 12  1  0
 12 13  1  0
 13 14  1  1
 14 15  1  0
 15 16  1  6
 15 17  1  0
 17 18  1  0
 18 19  1  0
 19 20  1  0
 20 21  1  0
 21 22  1  0
 22 23  1  0
 23 24  1  0
 13 25  1  0
 25 26  1  6
 25 27  1  0
 27 28  1  0
 28 29  1  0
 29 30  1  0
 30 31  2  0
 31 32  1  0
 32 33  2  0
 33 34  1  0
 34 35  2  0
 32 36  1  0
 36 37  1  0
 36 38  1  0
  9  4  1  0
 24  6  1  0
 35 30  1  0
M  END
$$$$
