
     RDKit          3D

 38 40  0  0  0  0  0  0  0  0999 V2000
  -14.9183  -35.0784  -11.6745 C   0  0  0  0  0  0  0  0  0  0  0  0
  -14.2584  -35.7305  -10.6523 O   0  0  0  0  0  0  0  0  0  0  0  0
  -14.9435  -35.6914   -9.4709 C   0  0  0  0  0  0  0  0  0  0  0  0
  -15.4383  -37.0348   -9.0894 C   0  0  0  0  0  0  0  0  0  0  0  0
  -14.9223  -37.7457   -8.0397 C   0  0  0  0  0  0  0  0  0  0  0  0
  -15.4082  -39.0262   -7.6634 C   0  0  0  0  0  0  0  0  0  0  0  0
  -16.4413  -39.6203   -8.3490 C   0  0  0  0  0  0  0  0  0  0  0  0
  -16.9850  -38.9283   -9.4174 C   0  0  0  0  0  0  0  0  0  0  0  0
  -16.4617  -37.6530   -9.7518 C   0  0  0  0  0  0  0  0  0  0  0  0
  -18.0688  -39.2860  -10.3516 C   0  0  0  0  0  0  0  0  0  0  0  0
  -18.8497  -38.2729  -10.6745 O   0  0  0  0  0  0  0  0  0  0  0  0
  -18.4837  -40.4542  -10.9952 N   0  0  0  0  0  0  0  0  0  0  0  0
  -17.7413  -41.5327  -11.5589 C   0  0  1  0  0  0  0  0  0  0  0  0
  -16.8479  -41.2181  -12.7108 C   0  0  0  0  0  0  0  0  0  0  0  0
  -15.5982  -40.4811  -12.4198 C   0  0  2  0  0  0  0  0  0  0  0  0
  -15.6381  -39.1970  -13.2649 C   0  0  0  0  0  0  0  0  0  0  0  0
  -14.3979  -41.2711  -12.9618 C   0  0  0  0  0  0  0  0  0  0  0  0
  -13.2717  -41.2732  -11.9471 C   0  0  0  0  0  0  0  0  0  0  0  0
  -13.7498  -41.3650  -10.6615 O   0  0  0  0  0  0  0  0  0  0  0  0
  -12.8959  -40.9470   -9.6736 C   0  0  0  0  0  0  0  0  0  0  0  0
  -13.0422  -41.7324   -8.3910 C   0  0  0  0  0  0  0  0  0  0  0  0
  -12.7877  -40.9552   -7.1491 C   0  0  0  0  0  0  0  0  0  0  0  0
  -14.0122  -40.7632   -6.2883 C   0  0  0  0  0  0  0  0  0  0  0  0
  -14.6195  -39.4843   -6.5412 N   0  0  0  0  0  0  0  0  0  0  0  0
  -17.0585  -42.4363  -10.5615 C   0  0  2  0  0  0  0  0  0  0  0  0
  -16.4144  -43.4340  -11.3335 O   0  0  0  0  0  0  0  0  0  0  0  0
  -18.1499  -43.1571   -9.7962 C   0  0  0  0  0  0  0  0  0  0  0  0
  -19.3083  -43.2158  -10.7023 N   0  0  0  0  0  0  0  0  0  0  0  0
  -19.9324  -41.9132  -10.8120 C   0  0  0  0  0  0  0  0  0  0  0  0
  -21.2225  -41.9701  -10.0795 C   0  0  0  0  0  0  0  0  0  0  0  0
  -22.2314  -42.8546  -10.4302 C   0  0  0  0  0  0  0  0  0  0  0  0
  -23.4290  -42.9272   -9.7733 C   0  0  0  0  0  0  0  0  0  0  0  0
  -23.6442  -42.0778   -8.7081 C   0  0  0  0  0  0  0  0  0  0  0  0
  -22.6832  -41.1847   -8.3183 C   0  0  0  0  0  0  0  0  0  0  0  0
  -21.4934  -41.1457   -9.0075 C   0  0  0  0  0  0  0  0  0  0  0  0
  -24.5062  -43.8810  -10.1577 C   0  0  0  0  0  0  0  0  0  0  0  0
  -25.3142  -44.3355   -8.9568 C   0  0  0  0  0  0  0  0  0  0  0  0
  -23.9437  -45.0860  -10.8798 C   0  0  0  0  0  0  0  0  0  0  0  0
  1  2  1  0
  2  3  1  0
  3  4  1  0
  4  5  2  0
  5  6  1  0
  6  7  2  0
  7  8  1  0
  8  9  2  0
  8 10  1  0
 10 11  2  0
 10 12  1  0
 12 13  1  0
 13 14  1  6
 14 15  1  0
 15 16  1  6
 15 17  1  0
 17 18  1  0
 18 19  1  0
 19 20  1  0
 20 21  1  0
 21 22  1  0
 22 23  1  0
 23 24  1  0
 13 25  1  0
 25 26  1  6
 25 27  1  0
 27 28  1  0
 28 29  1  0
 29 30  1  0
 30 31  2  0
 31 32  1  0
 32 33  2  0
 33 34  1  0
 34 35  2  0
 32 36  1  0
 36 37  1  0
 36 38  1  0
  9  4  1  0
 24  6  1  0
 35 30  1  0
M  END
$$$$
