
     RDKit          3D

 38 40  0  0  0  0  0  0  0  0999 V2000
  -21.7192  -38.5643  -14.0830 C   0  0  0  0  0  0  0  0  0  0  0  0
  -21.6703  -39.9195  -13.8249 O   0  0  0  0  0  0  0  0  0  0  0  0
  -21.9409  -40.2194  -12.5197 C   0  0  0  0  0  0  0  0  0  0  0  0
  -20.7129  -40.6142  -11.7910 C   0  0  0  0  0  0  0  0  0  0  0  0
  -20.4367  -41.9104  -11.4489 C   0  0  0  0  0  0  0  0  0  0  0  0
  -19.2513  -42.2911  -10.7654 C   0  0  0  0  0  0  0  0  0  0  0  0
  -18.3075  -41.3560  -10.4115 C   0  0  0  0  0  0  0  0  0  0  0  0
  -18.5568  -40.0351  -10.7415 C   0  0  0  0  0  0  0  0  0  0  0  0
  -19.7571  -39.7088  -11.4234 C   0  0  0  0  0  0  0  0  0  0  0  0
  -17.7719  -38.8110  -10.4949 C   0  0  0  0  0  0  0  0  0  0  0  0
  -17.7956  -37.9523  -11.4961 O   0  0  0  0  0  0  0  0  0  0  0  0
  -16.9937  -38.3220   -9.4431 N   0  0  0  0  0  0  0  0  0  0  0  0
  -17.1564  -38.4143   -8.0300 C   0  0  1  0  0  0  0  0  0  0  0  0
  -18.3611  -37.7649   -7.4374 C   0  0  0  0  0  0  0  0  0  0  0  0
  -19.6659  -38.4288   -7.6530 C   0  0  2  0  0  0  0  0  0  0  0  0
  -20.5710  -37.4021   -8.3541 C   0  0  0  0  0  0  0  0  0  0  0  0
  -20.3410  -38.6872   -6.2980 C   0  0  0  0  0  0  0  0  0  0  0  0
  -20.9415  -40.0788   -6.2696 C   0  0  0  0  0  0  0  0  0  0  0  0
  -20.1478  -40.9854   -6.9313 O   0  0  0  0  0  0  0  0  0  0  0  0
  -20.7683  -42.1367   -7.3425 C   0  0  0  0  0  0  0  0  0  0  0  0
  -19.8618  -43.3452   -7.3061 C   0  0  0  0  0  0  0  0  0  0  0  0
  -20.1310  -44.3609   -8.3582 C   0  0  0  0  0  0  0  0  0  0  0  0
  -19.0220  -44.4967   -9.3726 C   0  0  0  0  0  0  0  0  0  0  0  0
  -19.3071  -43.7198  -10.5489 N   0  0  0  0  0  0  0  0  0  0  0  0
  -16.9226  -39.7845   -7.4420 C   0  0  2  0  0  0  0  0  0  0  0  0
  -16.2464  -39.5607   -6.2176 O   0  0  0  0  0  0  0  0  0  0  0  0
  -15.9204  -40.4858   -8.3365 C   0  0  0  0  0  0  0  0  0  0  0  0
  -14.7116  -39.6459   -8.3262 N   0  0  0  0  0  0  0  0  0  0  0  0
  -13.5713  -40.3930   -8.8158 C   0  0  0  0  0  0  0  0  0  0  0  0
  -13.0809  -39.7126  -10.0408 C   0  0  0  0  0  0  0  0  0  0  0  0
  -13.4403  -38.4107  -10.3556 C   0  0  0  0  0  0  0  0  0  0  0  0
  -13.0039  -37.7609  -11.4773 C   0  0  0  0  0  0  0  0  0  0  0  0
  -12.1636  -38.4345  -12.3391 C   0  0  0  0  0  0  0  0  0  0  0  0
  -11.7764  -39.7210  -12.0782 C   0  0  0  0  0  0  0  0  0  0  0  0
  -12.2394  -40.3361  -10.9383 C   0  0  0  0  0  0  0  0  0  0  0  0
  -13.3955  -36.3623  -11.8062 C   0  0  0  0  0  0  0  0  0  0  0  0
  -13.4712  -36.1335  -13.3041 C   0  0  0  0  0  0  0  0  0  0  0  0
  -12.4443  -35.3628  -11.1848 C   0  0  0  0  0  0  0  0  0  0  0  0
  1  2  1  0
  2  3  1  0
  3  4  1  0
  4  5  2  0
  5  6  1  0
  6  7  2  0
  7  8  1  0
  8  9  2  0
  8 10  1  0
 10 11  2  0
 10 12  1  0
 12 13  1  0
 13 14  1  6
 14 15  1  0
 15 16  1  6
 15 17  1  0
 17 18  1  0
 18 19  1  0
 19 20  1  0
 20 21  1  0
 21 22  1  0
 22 23  1  0
 23 24  1  0
 13 25  1  0
 25 26  1  1
 25 27  1  0
 27 28  1  0
 28 29  1  0
 29 30  1  0
 30 31  2  0
 31 32  1  0
 32 33  2  0
 33 34  1  0
 34 35  2  0
 32 36  1  0
 36 37  1  0
 36 38  1  0
  9  4  1  0
 24  6  1  0
 35 30  1  0
M  END
$$$$
