
     RDKit          3D

 38 40  0  0  0  0  0  0  0  0999 V2000
  -25.2025  -40.7135  -10.5138 C   0  0  0  0  0  0  0  0  0  0  0  0
  -23.8946  -40.8935  -10.1103 O   0  0  0  0  0  0  0  0  0  0  0  0
  -23.2255  -41.8054  -10.8766 C   0  0  0  0  0  0  0  0  0  0  0  0
  -21.7600  -41.6972  -10.6878 C   0  0  0  0  0  0  0  0  0  0  0  0
  -20.9119  -42.7617  -10.8327 C   0  0  0  0  0  0  0  0  0  0  0  0
  -19.5052  -42.6541  -10.6684 C   0  0  0  0  0  0  0  0  0  0  0  0
  -18.9200  -41.4507  -10.3524 C   0  0  0  0  0  0  0  0  0  0  0  0
  -19.7499  -40.3539  -10.1972 C   0  0  0  0  0  0  0  0  0  0  0  0
  -21.1483  -40.5165  -10.3714 C   0  0  0  0  0  0  0  0  0  0  0  0
  -19.4478  -38.9531   -9.8485 C   0  0  0  0  0  0  0  0  0  0  0  0
  -20.1774  -38.0715  -10.5049 O   0  0  0  0  0  0  0  0  0  0  0  0
  -18.5640  -38.3120   -8.9772 N   0  0  0  0  0  0  0  0  0  0  0  0
  -18.1158  -38.6575   -7.6689 C   0  0  1  0  0  0  0  0  0  0  0  0
  -19.1413  -38.7088   -6.5872 C   0  0  0  0  0  0  0  0  0  0  0  0
  -20.0776  -39.8546   -6.5927 C   0  0  2  0  0  0  0  0  0  0  0  0
  -21.4953  -39.2635   -6.6682 C   0  0  0  0  0  0  0  0  0  0  0  0
  -20.0220  -40.5701   -5.2349 C   0  0  0  0  0  0  0  0  0  0  0  0
  -19.9993  -42.0724   -5.4357 C   0  0  0  0  0  0  0  0  0  0  0  0
  -19.2514  -42.4243   -6.5343 O   0  0  0  0  0  0  0  0  0  0  0  0
  -19.5063  -43.6646   -7.0600 C   0  0  0  0  0  0  0  0  0  0  0  0
  -18.2790  -44.3258   -7.6432 C   0  0  0  0  0  0  0  0  0  0  0  0
  -18.5381  -45.2014   -8.8167 C   0  0  0  0  0  0  0  0  0  0  0  0
  -17.9488  -44.6834  -10.1058 C   0  0  0  0  0  0  0  0  0  0  0  0
  -18.9365  -43.9685  -10.8687 N   0  0  0  0  0  0  0  0  0  0  0  0
  -17.1801  -39.8395   -7.5988 C   0  0  2  0  0  0  0  0  0  0  0  0
  -16.7205  -39.8797   -6.2596 O   0  0  0  0  0  0  0  0  0  0  0  0
  -15.9644  -39.4929   -8.4346 C   0  0  0  0  0  0  0  0  0  0  0  0
  -15.4800  -40.7664   -8.9915 N   0  0  0  0  0  0  0  0  0  0  0  0
  -14.6553  -40.5282  -10.1583 C   0  0  0  0  0  0  0  0  0  0  0  0
  -14.6437  -39.0649  -10.4090 C   0  0  0  0  0  0  0  0  0  0  0  0
  -15.3382  -38.4917  -11.4637 C   0  0  0  0  0  0  0  0  0  0  0  0
  -15.3438  -37.1477  -11.7176 C   0  0  0  0  0  0  0  0  0  0  0  0
  -14.6223  -36.3203  -10.8823 C   0  0  0  0  0  0  0  0  0  0  0  0
  -13.9184  -36.8318   -9.8260 C   0  0  0  0  0  0  0  0  0  0  0  0
  -13.9406  -38.1897   -9.6076 C   0  0  0  0  0  0  0  0  0  0  0  0
  -16.0932  -36.5418  -12.8530 C   0  0  0  0  0  0  0  0  0  0  0  0
  -17.5379  -36.2559  -12.4887 C   0  0  0  0  0  0  0  0  0  0  0  0
  -16.0416  -37.4246  -14.0810 C   0  0  0  0  0  0  0  0  0  0  0  0
  1  2  1  0
  2  3  1  0
  3  4  1  0
  4  5  2  0
  5  6  1  0
  6  7  2  0
  7  8  1  0
  8  9  2  0
  8 10  1  0
 10 11  2  0
 10 12  1  0
 12 13  1  0
 13 14  1  1
 14 15  1  0
 15 16  1  1
 15 17  1  0
 17 18  1  0
 18 19  1  0
 19 20  1  0
 20 21  1  0
 21 22  1  0
 22 23  1  0
 23 24  1  0
 13 25  1  0
 25 26  1  1
 25 27  1  0
 27 28  1  0
 28 29  1  0
 29 30  1  0
 30 31  2  0
 31 32  1  0
 32 33  2  0
 33 34  1  0
 34 35  2  0
 32 36  1  0
 36 37  1  0
 36 38  1  0
  9  4  1  0
 24  6  1  0
 35 30  1  0
M  END
$$$$
