
     RDKit          3D

 38 40  0  0  0  0  0  0  0  0999 V2000
  -11.7058  -46.1251   -8.4117 C   0  0  0  0  0  0  0  0  0  0  0  0
  -12.4986  -45.1283   -7.8791 O   0  0  0  0  0  0  0  0  0  0  0  0
  -12.2416  -43.9013   -8.4220 C   0  0  0  0  0  0  0  0  0  0  0  0
  -13.4773  -43.2728   -8.9445 C   0  0  0  0  0  0  0  0  0  0  0  0
  -13.9308  -43.4742  -10.2201 C   0  0  0  0  0  0  0  0  0  0  0  0
  -15.1246  -42.8853  -10.7155 C   0  0  0  0  0  0  0  0  0  0  0  0
  -15.8955  -42.0719   -9.9189 C   0  0  0  0  0  0  0  0  0  0  0  0
  -15.4641  -41.8464   -8.6231 C   0  0  0  0  0  0  0  0  0  0  0  0
  -14.2639  -42.4581   -8.1790 C   0  0  0  0  0  0  0  0  0  0  0  0
  -16.0394  -41.0268   -7.5403 C   0  0  0  0  0  0  0  0  0  0  0  0
  -15.9352  -41.5745   -6.3447 O   0  0  0  0  0  0  0  0  0  0  0  0
  -16.6800  -39.7879   -7.4619 N   0  0  0  0  0  0  0  0  0  0  0  0
  -16.4625  -38.5695   -8.1691 C   0  0  1  0  0  0  0  0  0  0  0  0
  -15.1445  -37.8972   -7.9819 C   0  0  0  0  0  0  0  0  0  0  0  0
  -13.9689  -38.5127   -8.6369 C   0  0  2  0  0  0  0  0  0  0  0  0
  -12.9539  -38.8171   -7.5224 C   0  0  0  0  0  0  0  0  0  0  0  0
  -13.2741  -37.4725   -9.5278 C   0  0  0  0  0  0  0  0  0  0  0  0
  -12.8926  -38.0935  -10.8570 C   0  0  0  0  0  0  0  0  0  0  0  0
  -13.8477  -38.9809  -11.2931 O   0  0  0  0  0  0  0  0  0  0  0  0
  -13.4318  -39.9005  -12.2210 C   0  0  0  0  0  0  0  0  0  0  0  0
  -14.5093  -40.2715  -13.2134 C   0  0  0  0  0  0  0  0  0  0  0  0
  -14.4517  -41.6739  -13.7042 C   0  0  0  0  0  0  0  0  0  0  0  0
  -15.6179  -42.5232  -13.2615 C   0  0  0  0  0  0  0  0  0  0  0  0
  -15.2770  -43.2919  -12.0949 N   0  0  0  0  0  0  0  0  0  0  0  0
  -16.8731  -38.5846   -9.6212 C   0  0  2  0  0  0  0  0  0  0  0  0
  -16.7972  -37.2368  -10.0502 O   0  0  0  0  0  0  0  0  0  0  0  0
  -18.3454  -38.9411   -9.6622 C   0  0  0  0  0  0  0  0  0  0  0  0
  -19.0370  -37.8925   -8.8949 N   0  0  0  0  0  0  0  0  0  0  0  0
  -20.4587  -38.1633   -8.8342 C   0  0  0  0  0  0  0  0  0  0  0  0
  -20.6937  -39.0743   -7.6856 C   0  0  0  0  0  0  0  0  0  0  0  0
  -21.9437  -39.6091   -7.4121 C   0  0  0  0  0  0  0  0  0  0  0  0
  -22.1878  -40.4495   -6.3609 C   0  0  0  0  0  0  0  0  0  0  0  0
  -21.1376  -40.7820   -5.5307 C   0  0  0  0  0  0  0  0  0  0  0  0
  -19.8828  -40.2833   -5.7535 C   0  0  0  0  0  0  0  0  0  0  0  0
  -19.6824  -39.4413   -6.8226 C   0  0  0  0  0  0  0  0  0  0  0  0
  -23.5340  -41.0189   -6.0758 C   0  0  0  0  0  0  0  0  0  0  0  0
  -24.6450  -40.1548   -6.6421 C   0  0  0  0  0  0  0  0  0  0  0  0
  -23.7465  -41.2144   -4.5903 C   0  0  0  0  0  0  0  0  0  0  0  0
  1  2  1  0
  2  3  1  0
  3  4  1  0
  4  5  2  0
  5  6  1  0
  6  7  2  0
  7  8  1  0
  8  9  2  0
  8 10  1  0
 10 11  2  0
 10 12  1  0
 12 13  1  0
 13 14  1  6
 14 15  1  0
 15 16  1  1
 15 17  1  0
 17 18  1  0
 18 19  1  0
 19 20  1  0
 20 21  1  0
 21 22  1  0
 22 23  1  0
 23 24  1  0
 13 25  1  0
 25 26  1  1
 25 27  1  0
 27 28  1  0
 28 29  1  0
 29 30  1  0
 30 31  2  0
 31 32  1  0
 32 33  2  0
 33 34  1  0
 34 35  2  0
 32 36  1  0
 36 37  1  0
 36 38  1  0
  9  4  1  0
 24  6  1  0
 35 30  1  0
M  END
$$$$
