
     RDKit          3D

 38 40  0  0  0  0  0  0  0  0999 V2000
  -10.6311  -45.7078   -8.2173 C   0  0  0  0  0  0  0  0  0  0  0  0
  -11.2722  -44.5110   -7.9677 O   0  0  0  0  0  0  0  0  0  0  0  0
  -11.9076  -44.0116   -9.0692 C   0  0  0  0  0  0  0  0  0  0  0  0
  -13.2250  -43.4330   -8.7161 C   0  0  0  0  0  0  0  0  0  0  0  0
  -14.4112  -44.0325   -9.0432 C   0  0  0  0  0  0  0  0  0  0  0  0
  -15.6738  -43.4864   -8.6898 C   0  0  0  0  0  0  0  0  0  0  0  0
  -15.7631  -42.3083   -7.9865 C   0  0  0  0  0  0  0  0  0  0  0  0
  -14.5816  -41.6753   -7.6411 C   0  0  0  0  0  0  0  0  0  0  0  0
  -13.3475  -42.2631   -8.0199 C   0  0  0  0  0  0  0  0  0  0  0  0
  -14.3350  -40.4142   -6.9174 C   0  0  0  0  0  0  0  0  0  0  0  0
  -13.3036  -40.4641   -6.0963 O   0  0  0  0  0  0  0  0  0  0  0  0
  -14.9323  -39.1519   -6.8839 N   0  0  0  0  0  0  0  0  0  0  0  0
  -15.5186  -38.3605   -7.9143 C   0  0  1  0  0  0  0  0  0  0  0  0
  -14.6248  -37.9056   -9.0181 C   0  0  0  0  0  0  0  0  0  0  0  0
  -14.1989  -38.9190  -10.0086 C   0  0  2  0  0  0  0  0  0  0  0  0
  -12.6613  -38.9365   -9.9864 C   0  0  0  0  0  0  0  0  0  0  0  0
  -14.5660  -38.4423  -11.4216 C   0  0  0  0  0  0  0  0  0  0  0  0
  -15.1561  -39.5860  -12.2227 C   0  0  0  0  0  0  0  0  0  0  0  0
  -15.9475  -40.3946  -11.4419 O   0  0  0  0  0  0  0  0  0  0  0  0
  -16.1709  -41.6588  -11.9231 C   0  0  0  0  0  0  0  0  0  0  0  0
  -17.5392  -42.1948  -11.5711 C   0  0  0  0  0  0  0  0  0  0  0  0
  -17.5991  -43.6650  -11.3570 C   0  0  0  0  0  0  0  0  0  0  0  0
  -17.9051  -44.0618   -9.9336 C   0  0  0  0  0  0  0  0  0  0  0  0
  -16.6961  -44.3637   -9.2157 N   0  0  0  0  0  0  0  0  0  0  0  0
  -16.8373  -38.8672   -8.4452 C   0  0  2  0  0  0  0  0  0  0  0  0
  -17.5149  -37.7221   -8.9311 O   0  0  0  0  0  0  0  0  0  0  0  0
  -17.6436  -39.3399   -7.2524 C   0  0  0  0  0  0  0  0  0  0  0  0
  -18.5322  -38.2219   -6.8960 N   0  0  0  0  0  0  0  0  0  0  0  0
  -19.2211  -37.7280   -8.0706 C   0  0  0  0  0  0  0  0  0  0  0  0
  -20.6074  -38.2581   -8.0344 C   0  0  0  0  0  0  0  0  0  0  0  0
  -21.0776  -39.0222   -6.9769 C   0  0  0  0  0  0  0  0  0  0  0  0
  -22.3490  -39.5233   -6.9188 C   0  0  0  0  0  0  0  0  0  0  0  0
  -23.2071  -39.2551   -7.9649 C   0  0  0  0  0  0  0  0  0  0  0  0
  -22.7963  -38.5063   -9.0343 C   0  0  0  0  0  0  0  0  0  0  0  0
  -21.5089  -38.0223   -9.0513 C   0  0  0  0  0  0  0  0  0  0  0  0
  -22.8444  -40.3427   -5.7782 C   0  0  0  0  0  0  0  0  0  0  0  0
  -23.8283  -39.5749   -4.9155 C   0  0  0  0  0  0  0  0  0  0  0  0
  -21.7014  -40.8463   -4.9238 C   0  0  0  0  0  0  0  0  0  0  0  0
  1  2  1  0
  2  3  1  0
  3  4  1  0
  4  5  2  0
  5  6  1  0
  6  7  2  0
  7  8  1  0
  8  9  2  0
  8 10  1  0
 10 11  2  0
 10 12  1  0
 12 13  1  0
 13 14  1  6
 14 15  1  0
 15 16  1  6
 15 17  1  0
 17 18  1  0
 18 19  1  0
 19 20  1  0
 20 21  1  0
 21 22  1  0
 22 23  1  0
 23 24  1  0
 13 25  1  0
 25 26  1  1
 25 27  1  0
 27 28  1  0
 28 29  1  0
 29 30  1  0
 30 31  2  0
 31 32  1  0
 32 33  2  0
 33 34  1  0
 34 35  2  0
 32 36  1  0
 36 37  1  0
 36 38  1  0
  9  4  1  0
 24  6  1  0
 35 30  1  0
M  END
$$$$
