
     RDKit          3D

 38 40  0  0  0  0  0  0  0  0999 V2000
  -11.9258  -34.9249  -13.0170 C   0  0  0  0  0  0  0  0  0  0  0  0
  -12.8648  -35.8461  -13.4356 O   0  0  0  0  0  0  0  0  0  0  0  0
  -12.4799  -37.1363  -13.2038 C   0  0  0  0  0  0  0  0  0  0  0  0
  -12.8572  -37.5752  -11.8400 C   0  0  0  0  0  0  0  0  0  0  0  0
  -11.9412  -37.7656  -10.8410 C   0  0  0  0  0  0  0  0  0  0  0  0
  -12.3047  -38.1698   -9.5289 C   0  0  0  0  0  0  0  0  0  0  0  0
  -13.6203  -38.3902   -9.1956 C   0  0  0  0  0  0  0  0  0  0  0  0
  -14.5724  -38.2079  -10.1837 C   0  0  0  0  0  0  0  0  0  0  0  0
  -14.1552  -37.8046  -11.4780 C   0  0  0  0  0  0  0  0  0  0  0  0
  -16.0375  -38.3751  -10.1587 C   0  0  0  0  0  0  0  0  0  0  0  0
  -16.6900  -37.4601  -10.8496 O   0  0  0  0  0  0  0  0  0  0  0  0
  -16.9268  -39.2804   -9.5749 N   0  0  0  0  0  0  0  0  0  0  0  0
  -16.8362  -40.6877   -9.3674 C   0  0  1  0  0  0  0  0  0  0  0  0
  -16.7550  -41.5528  -10.5795 C   0  0  0  0  0  0  0  0  0  0  0  0
  -15.4771  -41.5585  -11.3256 C   0  0  2  0  0  0  0  0  0  0  0  0
  -15.8060  -41.1250  -12.7640 C   0  0  0  0  0  0  0  0  0  0  0  0
  -14.9654  -43.0005  -11.4570 C   0  0  0  0  0  0  0  0  0  0  0  0
  -13.4752  -43.0537  -11.1845 C   0  0  0  0  0  0  0  0  0  0  0  0
  -13.1135  -42.1858  -10.1815 O   0  0  0  0  0  0  0  0  0  0  0  0
  -11.7899  -41.8298  -10.1460 C   0  0  0  0  0  0  0  0  0  0  0  0
  -11.2743  -41.6009   -8.7441 C   0  0  0  0  0  0  0  0  0  0  0  0
  -10.2215  -40.5574   -8.6274 C   0  0  0  0  0  0  0  0  0  0  0  0
  -10.6580  -39.3343   -7.8588 C   0  0  0  0  0  0  0  0  0  0  0  0
  -11.0901  -38.2949   -8.7540 N   0  0  0  0  0  0  0  0  0  0  0  0
  -15.8482  -41.1218   -8.3123 C   0  0  2  0  0  0  0  0  0  0  0  0
  -15.6917  -42.5181   -8.4918 O   0  0  0  0  0  0  0  0  0  0  0  0
  -16.5327  -40.9595   -6.9701 C   0  0  0  0  0  0  0  0  0  0  0  0
  -17.4278  -39.7994   -7.1100 N   0  0  0  0  0  0  0  0  0  0  0  0
  -18.3218  -39.7092   -5.9739 C   0  0  0  0  0  0  0  0  0  0  0  0
  -19.6958  -39.9922   -6.4598 C   0  0  0  0  0  0  0  0  0  0  0  0
  -20.4136  -39.0780   -7.2163 C   0  0  0  0  0  0  0  0  0  0  0  0
  -21.6803  -39.3128   -7.6757 C   0  0  0  0  0  0  0  0  0  0  0  0
  -22.2741  -40.5201   -7.3713 C   0  0  0  0  0  0  0  0  0  0  0  0
  -21.6119  -41.4594   -6.6282 C   0  0  0  0  0  0  0  0  0  0  0  0
  -20.3392  -41.1812   -6.1866 C   0  0  0  0  0  0  0  0  0  0  0  0
  -22.4428  -38.3244   -8.4876 C   0  0  0  0  0  0  0  0  0  0  0  0
  -23.5761  -37.6974   -7.6975 C   0  0  0  0  0  0  0  0  0  0  0  0
  -22.9886  -38.9530   -9.7514 C   0  0  0  0  0  0  0  0  0  0  0  0
  1  2  1  0
  2  3  1  0
  3  4  1  0
  4  5  2  0
  5  6  1  0
  6  7  2  0
  7  8  1  0
  8  9  2  0
  8 10  1  0
 10 11  2  0
 10 12  1  0
 12 13  1  0
 13 14  1  6
 14 15  1  0
 15 16  1  6
 15 17  1  0
 17 18  1  0
 18 19  1  0
 19 20  1  0
 20 21  1  0
 21 22  1  0
 22 23  1  0
 23 24  1  0
 13 25  1  0
 25 26  1  6
 25 27  1  0
 27 28  1  0
 28 29  1  0
 29 30  1  0
 30 31  2  0
 31 32  1  0
 32 33  2  0
 33 34  1  0
 34 35  2  0
 32 36  1  0
 36 37  1  0
 36 38  1  0
  9  4  1  0
 24  6  1  0
 35 30  1  0
M  END
$$$$
