
     RDKit          3D

 26 28  0  0  0  0  0  0  0  0999 V2000
  -14.0270  -34.9756  -12.6459 C   0  0  0  0  0  0  0  0  0  0  0  0
  -14.1511  -36.2154  -11.9764 O   0  0  0  0  0  0  0  0  0  0  0  0
  -15.3534  -36.5073  -11.3598 C   0  0  0  0  0  0  0  0  0  0  0  0
  -16.5453  -36.0202  -11.8188 C   0  0  0  0  0  0  0  0  0  0  0  0
  -17.7917  -36.3086  -11.1992 C   0  0  0  0  0  0  0  0  0  0  0  0
  -17.8474  -37.1121  -10.0779 C   0  0  0  0  0  0  0  0  0  0  0  0
  -16.6625  -37.6144   -9.5989 C   0  0  0  0  0  0  0  0  0  0  0  0
  -15.4420  -37.3007  -10.2504 C   0  0  0  0  0  0  0  0  0  0  0  0
  -16.3757  -38.5093   -8.4573 C   0  0  0  0  0  0  0  0  0  0  0  0
  -16.8989  -38.5687   -7.2868 N   0  0  0  0  0  0  0  0  0  0  0  0
  -17.2455  -39.9681   -6.9927 C   0  0  1  0  0  0  0  0  0  0  0  0
  -18.3999  -40.3637   -7.8730 C   0  0  0  0  0  0  0  0  0  0  0  0
  -19.7667  -40.0578   -7.2799 C   0  0  2  0  0  0  0  0  0  0  0  0
  -20.5216  -41.3509   -7.0962 C   0  0  0  0  0  0  0  0  0  0  0  0
  -20.5344  -39.1096   -8.1802 C   0  0  0  0  0  0  0  0  0  0  0  0
  -21.9868  -39.3639   -8.3057 C   0  0  0  0  0  0  0  0  0  0  0  0
  -22.5327  -38.7429   -9.5582 C   0  0  0  0  0  0  0  0  0  0  0  0
  -21.5924  -37.7473  -10.1353 C   0  0  0  0  0  0  0  0  0  0  0  0
  -22.2152  -36.7725  -11.1174 C   0  0  0  0  0  0  0  0  0  0  0  0
  -21.1419  -35.6925  -11.3377 C   0  0  0  0  0  0  0  0  0  0  0  0
  -20.1295  -36.1023  -12.3843 C   0  0  0  0  0  0  0  0  0  0  0  0
  -18.8289  -35.6542  -11.9481 N   0  0  0  0  0  0  0  0  0  0  0  0
  -16.0168  -40.6401   -7.5825 C   0  0  2  0  0  0  0  0  0  0  0  0
  -15.0342  -41.0405   -6.5022 C   0  0  0  0  0  0  0  0  0  0  0  0
  -13.7970  -40.4249   -6.6850 O   0  0  0  0  0  0  0  0  0  0  0  0
  -15.4227  -39.5833   -8.3084 O   0  0  0  0  0  0  0  0  0  0  0  0
  1  2  1  0
  2  3  1  0
  3  4  2  0
  4  5  1  0
  5  6  2  0
  6  7  1  0
  7  8  2  0
  7  9  1  0
  9 10  2  0
 10 11  1  0
 11 12  1  6
 12 13  1  0
 13 14  1  6
 13 15  1  0
 15 16  1  0
 16 17  1  0
 17 18  1  0
 18 19  1  0
 19 20  1  0
 20 21  1  0
 21 22  1  0
 11 23  1  0
 23 24  1  1
 24 25  1  0
 23 26  1  0
  8  3  1  0
 22  5  1  0
 26  9  1  0
M  END
$$$$
