
     RDKit          3D

 26 28  0  0  0  0  0  0  0  0999 V2000
  -17.9093  -36.8598  -14.8785 C   0  0  0  0  0  0  0  0  0  0  0  0
  -17.2958  -37.4756  -13.7626 O   0  0  0  0  0  0  0  0  0  0  0  0
  -18.0831  -37.7743  -12.6665 C   0  0  0  0  0  0  0  0  0  0  0  0
  -19.4342  -37.9565  -12.7671 C   0  0  0  0  0  0  0  0  0  0  0  0
  -20.2609  -38.2640  -11.6525 C   0  0  0  0  0  0  0  0  0  0  0  0
  -19.7163  -38.3918  -10.3903 C   0  0  0  0  0  0  0  0  0  0  0  0
  -18.3604  -38.2143  -10.2645 C   0  0  0  0  0  0  0  0  0  0  0  0
  -17.5741  -37.9095  -11.4052 C   0  0  0  0  0  0  0  0  0  0  0  0
  -17.4726  -38.3044   -9.0855 C   0  0  0  0  0  0  0  0  0  0  0  0
  -17.6551  -37.9385   -7.8688 N   0  0  0  0  0  0  0  0  0  0  0  0
  -17.2734  -39.0458   -6.9782 C   0  0  1  0  0  0  0  0  0  0  0  0
  -18.2886  -40.1459   -7.1308 C   0  0  0  0  0  0  0  0  0  0  0  0
  -19.4896  -40.0153   -6.2067 C   0  0  2  0  0  0  0  0  0  0  0  0
  -19.5341  -41.2118   -5.2890 C   0  0  0  0  0  0  0  0  0  0  0  0
  -20.7691  -39.9080   -7.0134 C   0  0  0  0  0  0  0  0  0  0  0  0
  -21.9474  -40.6131   -6.4618 C   0  0  0  0  0  0  0  0  0  0  0  0
  -22.9625  -40.8793   -7.5346 C   0  0  0  0  0  0  0  0  0  0  0  0
  -22.7075  -40.0632   -8.7500 C   0  0  0  0  0  0  0  0  0  0  0  0
  -23.8898  -39.9305   -9.6920 C   0  0  0  0  0  0  0  0  0  0  0  0
  -23.4812  -38.8311  -10.6877 C   0  0  0  0  0  0  0  0  0  0  0  0
  -22.6381  -39.3745  -11.8200 C   0  0  0  0  0  0  0  0  0  0  0  0
  -21.6125  -38.4043  -12.1195 N   0  0  0  0  0  0  0  0  0  0  0  0
  -16.0293  -39.5162   -7.7130 C   0  0  2  0  0  0  0  0  0  0  0  0
  -14.7682  -39.0222   -7.0360 C   0  0  0  0  0  0  0  0  0  0  0  0
  -14.0612  -38.1429   -7.8546 O   0  0  0  0  0  0  0  0  0  0  0  0
  -16.1343  -38.8263   -8.9418 O   0  0  0  0  0  0  0  0  0  0  0  0
  1  2  1  0
  2  3  1  0
  3  4  2  0
  4  5  1  0
  5  6  2  0
  6  7  1  0
  7  8  2  0
  7  9  1  0
  9 10  2  0
 10 11  1  0
 11 12  1  6
 12 13  1  0
 13 14  1  1
 13 15  1  0
 15 16  1  0
 16 17  1  0
 17 18  1  0
 18 19  1  0
 19 20  1  0
 20 21  1  0
 21 22  1  0
 11 23  1  0
 23 24  1  1
 24 25  1  0
 23 26  1  0
  8  3  1  0
 22  5  1  0
 26  9  1  0
M  END
$$$$
