
     RDKit          3D

 26 28  0  0  0  0  0  0  0  0999 V2000
  -20.3574  -43.3747   -2.6972 C   0  0  0  0  0  0  0  0  0  0  0  0
  -20.0120  -42.0261   -2.9477 O   0  0  0  0  0  0  0  0  0  0  0  0
  -20.2417  -41.5171   -4.2122 C   0  0  0  0  0  0  0  0  0  0  0  0
  -21.4947  -41.1901   -4.6501 C   0  0  0  0  0  0  0  0  0  0  0  0
  -21.7516  -40.6657   -5.9460 C   0  0  0  0  0  0  0  0  0  0  0  0
  -20.7171  -40.4630   -6.8376 C   0  0  0  0  0  0  0  0  0  0  0  0
  -19.4488  -40.7831   -6.4197 C   0  0  0  0  0  0  0  0  0  0  0  0
  -19.2393  -41.3030   -5.1165 C   0  0  0  0  0  0  0  0  0  0  0  0
  -18.1416  -40.6671   -7.1009 C   0  0  0  0  0  0  0  0  0  0  0  0
  -17.8131  -40.8715   -8.3247 N   0  0  0  0  0  0  0  0  0  0  0  0
  -17.0249  -39.7243   -8.8022 C   0  0  1  0  0  0  0  0  0  0  0  0
  -17.9416  -38.5367   -8.9173 C   0  0  0  0  0  0  0  0  0  0  0  0
  -18.6437  -38.4219  -10.2617 C   0  0  2  0  0  0  0  0  0  0  0  0
  -18.2239  -37.1339  -10.9253 C   0  0  0  0  0  0  0  0  0  0  0  0
  -20.1482  -38.4677  -10.0788 C   0  0  0  0  0  0  0  0  0  0  0  0
  -20.9376  -37.5723  -10.9535 C   0  0  0  0  0  0  0  0  0  0  0  0
  -22.2937  -37.3099  -10.3665 C   0  0  0  0  0  0  0  0  0  0  0  0
  -22.6267  -38.2804   -9.2915 C   0  0  0  0  0  0  0  0  0  0  0  0
  -24.1022  -38.3776   -8.9509 C   0  0  0  0  0  0  0  0  0  0  0  0
  -24.2200  -39.6212   -8.0528 C   0  0  0  0  0  0  0  0  0  0  0  0
  -23.9051  -39.3098   -6.6064 C   0  0  0  0  0  0  0  0  0  0  0  0
  -23.1628  -40.4208   -6.0611 N   0  0  0  0  0  0  0  0  0  0  0  0
  -16.1835  -39.4878   -7.5591 C   0  0  2  0  0  0  0  0  0  0  0  0
  -14.7862  -40.0477   -7.7233 C   0  0  0  0  0  0  0  0  0  0  0  0
  -14.2429  -40.4295   -6.4976 O   0  0  0  0  0  0  0  0  0  0  0  0
  -16.8399  -40.2929   -6.6012 O   0  0  0  0  0  0  0  0  0  0  0  0
  1  2  1  0
  2  3  1  0
  3  4  2  0
  4  5  1  0
  5  6  2  0
  6  7  1  0
  7  8  2  0
  7  9  1  0
  9 10  2  0
 10 11  1  0
 11 12  1  1
 12 13  1  0
 13 14  1  1
 13 15  1  0
 15 16  1  0
 16 17  1  0
 17 18  1  0
 18 19  1  0
 19 20  1  0
 20 21  1  0
 21 22  1  0
 11 23  1  0
 23 24  1  6
 24 25  1  0
 23 26  1  0
  8  3  1  0
 22  5  1  0
 26  9  1  0
M  END
$$$$
