
     RDKit          3D

 26 28  0  0  0  0  0  0  0  0999 V2000
  -12.8966  -36.4999  -10.1236 C   0  0  0  0  0  0  0  0  0  0  0  0
  -13.5982  -37.6650  -10.5121 O   0  0  0  0  0  0  0  0  0  0  0  0
  -14.8374  -37.9003   -9.9467 C   0  0  0  0  0  0  0  0  0  0  0  0
  -15.7658  -36.9099   -9.7867 C   0  0  0  0  0  0  0  0  0  0  0  0
  -17.0450  -37.1315   -9.2079 C   0  0  0  0  0  0  0  0  0  0  0  0
  -17.4079  -38.3898   -8.7709 C   0  0  0  0  0  0  0  0  0  0  0  0
  -16.4918  -39.4016   -8.9222 C   0  0  0  0  0  0  0  0  0  0  0  0
  -15.2271  -39.1343   -9.5066 C   0  0  0  0  0  0  0  0  0  0  0  0
  -16.5682  -40.8407   -8.5917 C   0  0  0  0  0  0  0  0  0  0  0  0
  -17.1015  -41.4440   -7.5922 N   0  0  0  0  0  0  0  0  0  0  0  0
  -17.9327  -42.5496   -8.0940 C   0  0  1  0  0  0  0  0  0  0  0  0
  -19.1342  -41.9618   -8.7834 C   0  0  0  0  0  0  0  0  0  0  0  0
  -20.3120  -41.6949   -7.8588 C   0  0  2  0  0  0  0  0  0  0  0  0
  -21.4840  -42.5342   -8.3036 C   0  0  0  0  0  0  0  0  0  0  0  0
  -20.6702  -40.2216   -7.8696 C   0  0  0  0  0  0  0  0  0  0  0  0
  -22.1144  -39.9025   -7.8191 C   0  0  0  0  0  0  0  0  0  0  0  0
  -22.3758  -38.5204   -8.3423 C   0  0  0  0  0  0  0  0  0  0  0  0
  -21.1296  -37.7144   -8.4181 C   0  0  0  0  0  0  0  0  0  0  0  0
  -21.3414  -36.2145   -8.5079 C   0  0  0  0  0  0  0  0  0  0  0  0
  -19.9479  -35.6036   -8.2797 C   0  0  0  0  0  0  0  0  0  0  0  0
  -19.1289  -35.5655   -9.5509 C   0  0  0  0  0  0  0  0  0  0  0  0
  -17.7632  -35.8869   -9.2128 N   0  0  0  0  0  0  0  0  0  0  0  0
  -17.0151  -43.0469   -9.1984 C   0  0  2  0  0  0  0  0  0  0  0  0
  -16.2635  -44.2909   -8.7736 C   0  0  0  0  0  0  0  0  0  0  0  0
  -15.1610  -44.5252   -9.5938 O   0  0  0  0  0  0  0  0  0  0  0  0
  -16.0669  -42.0028   -9.2863 O   0  0  0  0  0  0  0  0  0  0  0  0
  1  2  1  0
  2  3  1  0
  3  4  2  0
  4  5  1  0
  5  6  2  0
  6  7  1  0
  7  8  2  0
  7  9  1  0
  9 10  2  0
 10 11  1  0
 11 12  1  6
 12 13  1  0
 13 14  1  6
 13 15  1  0
 15 16  1  0
 16 17  1  0
 17 18  1  0
 18 19  1  0
 19 20  1  0
 20 21  1  0
 21 22  1  0
 11 23  1  0
 23 24  1  1
 24 25  1  0
 23 26  1  0
  8  3  1  0
 22  5  1  0
 26  9  1  0
M  END
$$$$
