
     RDKit          3D

 26 28  0  0  0  0  0  0  0  0999 V2000
  -12.7887  -41.0690   -8.4622 C   0  0  0  0  0  0  0  0  0  0  0  0
  -13.9657  -41.8428   -8.5908 O   0  0  0  0  0  0  0  0  0  0  0  0
  -15.1833  -41.2164   -8.4016 C   0  0  0  0  0  0  0  0  0  0  0  0
  -15.4779  -40.0086   -8.9700 C   0  0  0  0  0  0  0  0  0  0  0  0
  -16.7234  -39.3484   -8.7878 C   0  0  0  0  0  0  0  0  0  0  0  0
  -17.7098  -39.9163   -8.0064 C   0  0  0  0  0  0  0  0  0  0  0  0
  -17.4372  -41.1305   -7.4257 C   0  0  0  0  0  0  0  0  0  0  0  0
  -16.1802  -41.7534   -7.6362 C   0  0  0  0  0  0  0  0  0  0  0  0
  -18.2647  -42.0071   -6.5694 C   0  0  0  0  0  0  0  0  0  0  0  0
  -19.0965  -41.7224   -5.6343 N   0  0  0  0  0  0  0  0  0  0  0  0
  -20.3432  -42.4691   -5.8650 C   0  0  1  0  0  0  0  0  0  0  0  0
  -21.0228  -41.8908   -7.0765 C   0  0  0  0  0  0  0  0  0  0  0  0
  -21.9530  -40.7269   -6.7705 C   0  0  2  0  0  0  0  0  0  0  0  0
  -23.3577  -41.1042   -7.1708 C   0  0  0  0  0  0  0  0  0  0  0  0
  -21.5005  -39.4802   -7.5054 C   0  0  0  0  0  0  0  0  0  0  0  0
  -22.5743  -38.6203   -8.0507 C   0  0  0  0  0  0  0  0  0  0  0  0
  -22.0524  -37.7472   -9.1542 C   0  0  0  0  0  0  0  0  0  0  0  0
  -20.5673  -37.6951   -9.1608 C   0  0  0  0  0  0  0  0  0  0  0  0
  -19.9707  -36.5296   -9.9278 C   0  0  0  0  0  0  0  0  0  0  0  0
  -18.4799  -36.5270   -9.5475 C   0  0  0  0  0  0  0  0  0  0  0  0
  -17.6769  -37.4939  -10.3891 C   0  0  0  0  0  0  0  0  0  0  0  0
  -16.6967  -38.1220   -9.5362 N   0  0  0  0  0  0  0  0  0  0  0  0
  -19.7422  -43.7917   -6.3106 C   0  0  2  0  0  0  0  0  0  0  0  0
  -19.7676  -44.8140   -5.1938 C   0  0  0  0  0  0  0  0  0  0  0  0
  -18.8072  -45.8054   -5.3885 O   0  0  0  0  0  0  0  0  0  0  0  0
  -18.3886  -43.4446   -6.5205 O   0  0  0  0  0  0  0  0  0  0  0  0
  1  2  1  0
  2  3  1  0
  3  4  2  0
  4  5  1  0
  5  6  2  0
  6  7  1  0
  7  8  2  0
  7  9  1  0
  9 10  2  0
 10 11  1  0
 11 12  1  6
 12 13  1  0
 13 14  1  6
 13 15  1  0
 15 16  1  0
 16 17  1  0
 17 18  1  0
 18 19  1  0
 19 20  1  0
 20 21  1  0
 21 22  1  0
 11 23  1  0
 23 24  1  1
 24 25  1  0
 23 26  1  0
  8  3  1  0
 22  5  1  0
 26  9  1  0
M  END
$$$$
