
     RDKit          3D

 26 28  0  0  0  0  0  0  0  0999 V2000
  -20.5651  -42.1831   -1.7871 C   0  0  0  0  0  0  0  0  0  0  0  0
  -19.5396  -41.9063   -2.7212 O   0  0  0  0  0  0  0  0  0  0  0  0
  -19.9042  -41.5807   -4.0142 C   0  0  0  0  0  0  0  0  0  0  0  0
  -21.2050  -41.6071   -4.4335 C   0  0  0  0  0  0  0  0  0  0  0  0
  -21.6002  -41.2759   -5.7581 C   0  0  0  0  0  0  0  0  0  0  0  0
  -20.6592  -40.9069   -6.6985 C   0  0  0  0  0  0  0  0  0  0  0  0
  -19.3455  -40.8718   -6.3001 C   0  0  0  0  0  0  0  0  0  0  0  0
  -18.9973  -41.2095   -4.9670 C   0  0  0  0  0  0  0  0  0  0  0  0
  -18.1159  -40.5019   -7.0334 C   0  0  0  0  0  0  0  0  0  0  0  0
  -17.7643  -40.7265   -8.2472 N   0  0  0  0  0  0  0  0  0  0  0  0
  -17.2875  -39.4686   -8.8434 C   0  0  1  0  0  0  0  0  0  0  0  0
  -18.4685  -38.5536   -9.0229 C   0  0  0  0  0  0  0  0  0  0  0  0
  -19.1957  -38.7306  -10.3470 C   0  0  2  0  0  0  0  0  0  0  0  0
  -19.1131  -37.4422  -11.1273 C   0  0  0  0  0  0  0  0  0  0  0  0
  -20.6406  -39.1240  -10.1090 C   0  0  0  0  0  0  0  0  0  0  0  0
  -21.6371  -38.5269  -11.0257 C   0  0  0  0  0  0  0  0  0  0  0  0
  -23.0080  -38.5513  -10.4154 C   0  0  0  0  0  0  0  0  0  0  0  0
  -23.0784  -39.4760   -9.2542 C   0  0  0  0  0  0  0  0  0  0  0  0
  -24.4804  -39.8983   -8.8558 C   0  0  0  0  0  0  0  0  0  0  0  0
  -24.2779  -41.0500   -7.8560 C   0  0  0  0  0  0  0  0  0  0  0  0
  -24.0290  -40.5463   -6.4516 C   0  0  0  0  0  0  0  0  0  0  0  0
  -23.0299  -41.3919   -5.8437 N   0  0  0  0  0  0  0  0  0  0  0  0
  -16.5126  -38.9272   -7.6536 C   0  0  2  0  0  0  0  0  0  0  0  0
  -15.0232  -39.1434   -7.8200 C   0  0  0  0  0  0  0  0  0  0  0  0
  -14.4597  -39.7101   -6.6778 O   0  0  0  0  0  0  0  0  0  0  0  0
  -16.9387  -39.7808   -6.6112 O   0  0  0  0  0  0  0  0  0  0  0  0
  1  2  1  0
  2  3  1  0
  3  4  2  0
  4  5  1  0
  5  6  2  0
  6  7  1  0
  7  8  2  0
  7  9  1  0
  9 10  2  0
 10 11  1  0
 11 12  1  1
 12 13  1  0
 13 14  1  1
 13 15  1  0
 15 16  1  0
 16 17  1  0
 17 18  1  0
 18 19  1  0
 19 20  1  0
 20 21  1  0
 21 22  1  0
 11 23  1  0
 23 24  1  6
 24 25  1  0
 23 26  1  0
  8  3  1  0
 22  5  1  0
 26  9  1  0
M  END
$$$$
