
     RDKit          3D

 26 28  0  0  0  0  0  0  0  0999 V2000
  -19.3642  -42.0936   -2.9360 C   0  0  0  0  0  0  0  0  0  0  0  0
  -19.3718  -40.7236   -3.2878 O   0  0  0  0  0  0  0  0  0  0  0  0
  -19.5032  -40.3930   -4.6235 C   0  0  0  0  0  0  0  0  0  0  0  0
  -20.6864  -39.9615   -5.1549 C   0  0  0  0  0  0  0  0  0  0  0  0
  -20.8419  -39.6167   -6.5251 C   0  0  0  0  0  0  0  0  0  0  0  0
  -19.7749  -39.7092   -7.3963 C   0  0  0  0  0  0  0  0  0  0  0  0
  -18.5751  -40.1394   -6.8851 C   0  0  0  0  0  0  0  0  0  0  0  0
  -18.4660  -40.4717   -5.5103 C   0  0  0  0  0  0  0  0  0  0  0  0
  -17.2546  -40.3227   -7.5246 C   0  0  0  0  0  0  0  0  0  0  0  0
  -16.9411  -40.7632   -8.6887 N   0  0  0  0  0  0  0  0  0  0  0  0
  -15.9833  -39.8321   -9.3060 C   0  0  1  0  0  0  0  0  0  0  0  0
  -16.7109  -38.5576   -9.6381 C   0  0  0  0  0  0  0  0  0  0  0  0
  -17.3668  -38.5563  -11.0104 C   0  0  2  0  0  0  0  0  0  0  0  0
  -16.7494  -37.4637  -11.8475 C   0  0  0  0  0  0  0  0  0  0  0  0
  -18.8641  -38.3545  -10.8814 C   0  0  0  0  0  0  0  0  0  0  0  0
  -19.4974  -37.5039  -11.9134 C   0  0  0  0  0  0  0  0  0  0  0  0
  -20.8084  -36.9587  -11.4271 C   0  0  0  0  0  0  0  0  0  0  0  0
  -21.2991  -37.6887  -10.2293 C   0  0  0  0  0  0  0  0  0  0  0  0
  -22.7778  -37.5164   -9.9354 C   0  0  0  0  0  0  0  0  0  0  0  0
  -23.0937  -38.5723   -8.8620 C   0  0  0  0  0  0  0  0  0  0  0  0
  -22.7588  -38.0851   -7.4696 C   0  0  0  0  0  0  0  0  0  0  0  0
  -22.1989  -39.1916   -6.7313 N   0  0  0  0  0  0  0  0  0  0  0  0
  -15.1358  -39.5264   -8.0824 C   0  0  2  0  0  0  0  0  0  0  0  0
  -13.8351  -40.3014   -8.1039 C   0  0  0  0  0  0  0  0  0  0  0  0
  -13.5207  -40.8045   -6.8425 O   0  0  0  0  0  0  0  0  0  0  0  0
  -15.9198  -40.0666   -7.0382 O   0  0  0  0  0  0  0  0  0  0  0  0
  1  2  1  0
  2  3  1  0
  3  4  2  0
  4  5  1  0
  5  6  2  0
  6  7  1  0
  7  8  2  0
  7  9  1  0
  9 10  2  0
 10 11  1  0
 11 12  1  1
 12 13  1  0
 13 14  1  6
 13 15  1  0
 15 16  1  0
 16 17  1  0
 17 18  1  0
 18 19  1  0
 19 20  1  0
 20 21  1  0
 21 22  1  0
 11 23  1  0
 23 24  1  6
 24 25  1  0
 23 26  1  0
  8  3  1  0
 22  5  1  0
 26  9  1  0
M  END
$$$$
