
     RDKit          3D

 26 28  0  0  0  0  0  0  0  0999 V2000
  -18.7218  -47.7875   -6.3482 C   0  0  0  0  0  0  0  0  0  0  0  0
  -18.2313  -46.8678   -7.3045 O   0  0  0  0  0  0  0  0  0  0  0  0
  -18.8474  -45.6342   -7.4002 C   0  0  0  0  0  0  0  0  0  0  0  0
  -20.0162  -45.3505   -6.7506 C   0  0  0  0  0  0  0  0  0  0  0  0
  -20.6651  -44.0887   -6.8362 C   0  0  0  0  0  0  0  0  0  0  0  0
  -20.1261  -43.0741   -7.6017 C   0  0  0  0  0  0  0  0  0  0  0  0
  -18.9512  -43.3352   -8.2629 C   0  0  0  0  0  0  0  0  0  0  0  0
  -18.3382  -44.6093   -8.1476 C   0  0  0  0  0  0  0  0  0  0  0  0
  -18.1109  -42.4799   -9.1282 C   0  0  0  0  0  0  0  0  0  0  0  0
  -18.4343  -41.6006  -10.0055 N   0  0  0  0  0  0  0  0  0  0  0  0
  -17.6554  -40.3766   -9.7597 C   0  0  1  0  0  0  0  0  0  0  0  0
  -18.1532  -39.7478   -8.4866 C   0  0  0  0  0  0  0  0  0  0  0  0
  -19.3171  -38.7882   -8.6816 C   0  0  2  0  0  0  0  0  0  0  0  0
  -18.8949  -37.4095   -8.2381 C   0  0  0  0  0  0  0  0  0  0  0  0
  -20.5276  -39.2582   -7.8986 C   0  0  0  0  0  0  0  0  0  0  0  0
  -21.3376  -38.1999   -7.2553 C   0  0  0  0  0  0  0  0  0  0  0  0
  -22.1555  -38.7619   -6.1295 C   0  0  0  0  0  0  0  0  0  0  0  0
  -22.2315  -40.2448   -6.1896 C   0  0  0  0  0  0  0  0  0  0  0  0
  -23.3615  -40.8613   -5.3860 C   0  0  0  0  0  0  0  0  0  0  0  0
  -23.4100  -42.3320   -5.8350 C   0  0  0  0  0  0  0  0  0  0  0  0
  -22.4104  -43.1875   -5.0886 C   0  0  0  0  0  0  0  0  0  0  0  0
  -21.8476  -44.1343   -6.0210 N   0  0  0  0  0  0  0  0  0  0  0  0
  -16.3198  -41.0163   -9.4190 C   0  0  2  0  0  0  0  0  0  0  0  0
  -15.3619  -40.9517  -10.5900 C   0  0  0  0  0  0  0  0  0  0  0  0
  -14.5476  -42.0817  -10.6453 O   0  0  0  0  0  0  0  0  0  0  0  0
  -16.6767  -42.3735   -9.2533 O   0  0  0  0  0  0  0  0  0  0  0  0
  1  2  1  0
  2  3  1  0
  3  4  2  0
  4  5  1  0
  5  6  2  0
  6  7  1  0
  7  8  2  0
  7  9  1  0
  9 10  2  0
 10 11  1  0
 11 12  1  1
 12 13  1  0
 13 14  1  1
 13 15  1  0
 15 16  1  0
 16 17  1  0
 17 18  1  0
 18 19  1  0
 19 20  1  0
 20 21  1  0
 21 22  1  0
 11 23  1  0
 23 24  1  6
 24 25  1  0
 23 26  1  0
  8  3  1  0
 22  5  1  0
 26  9  1  0
M  END
$$$$
