
     RDKit          3D

 26 28  0  0  0  0  0  0  0  0999 V2000
  -12.5938  -37.7432   -9.8162 C   0  0  0  0  0  0  0  0  0  0  0  0
  -13.5607  -38.4089  -10.6054 O   0  0  0  0  0  0  0  0  0  0  0  0
  -14.8788  -38.3741  -10.1905 C   0  0  0  0  0  0  0  0  0  0  0  0
  -15.6763  -37.2813  -10.3864 C   0  0  0  0  0  0  0  0  0  0  0  0
  -17.0334  -37.2259   -9.9675 C   0  0  0  0  0  0  0  0  0  0  0  0
  -17.6135  -38.3026   -9.3270 C   0  0  0  0  0  0  0  0  0  0  0  0
  -16.8321  -39.4127   -9.1199 C   0  0  0  0  0  0  0  0  0  0  0  0
  -15.4823  -39.4237   -9.5562 C   0  0  0  0  0  0  0  0  0  0  0  0
  -17.1423  -40.7192   -8.5010 C   0  0  0  0  0  0  0  0  0  0  0  0
  -17.8679  -41.0137   -7.4840 N   0  0  0  0  0  0  0  0  0  0  0  0
  -18.7761  -42.1116   -7.8514 C   0  0  1  0  0  0  0  0  0  0  0  0
  -19.7957  -41.5768   -8.8202 C   0  0  0  0  0  0  0  0  0  0  0  0
  -21.0280  -40.9794   -8.1583 C   0  0  2  0  0  0  0  0  0  0  0  0
  -22.2419  -41.7705   -8.5782 C   0  0  0  0  0  0  0  0  0  0  0  0
  -21.1786  -39.5196   -8.5398 C   0  0  0  0  0  0  0  0  0  0  0  0
  -22.5616  -39.0469   -8.7719 C   0  0  0  0  0  0  0  0  0  0  0  0
  -22.5684  -37.8047   -9.6141 C   0  0  0  0  0  0  0  0  0  0  0  0
  -21.2240  -37.1747   -9.6786 C   0  0  0  0  0  0  0  0  0  0  0  0
  -21.2176  -35.7230  -10.1205 C   0  0  0  0  0  0  0  0  0  0  0  0
  -19.7912  -35.2264   -9.8278 C   0  0  0  0  0  0  0  0  0  0  0  0
  -18.8291  -35.5717  -10.9429 C   0  0  0  0  0  0  0  0  0  0  0  0
  -17.5699  -35.9479  -10.3467 N   0  0  0  0  0  0  0  0  0  0  0  0
  -17.8098  -42.9461   -8.6753 C   0  0  2  0  0  0  0  0  0  0  0  0
  -17.2904  -44.1294   -7.8861 C   0  0  0  0  0  0  0  0  0  0  0  0
  -16.1769  -44.7017   -8.4991 O   0  0  0  0  0  0  0  0  0  0  0  0
  -16.7248  -42.0571   -8.8467 O   0  0  0  0  0  0  0  0  0  0  0  0
  1  2  1  0
  2  3  1  0
  3  4  2  0
  4  5  1  0
  5  6  2  0
  6  7  1  0
  7  8  2  0
  7  9  1  0
  9 10  2  0
 10 11  1  0
 11 12  1  6
 12 13  1  0
 13 14  1  6
 13 15  1  0
 15 16  1  0
 16 17  1  0
 17 18  1  0
 18 19  1  0
 19 20  1  0
 20 21  1  0
 21 22  1  0
 11 23  1  0
 23 24  1  1
 24 25  1  0
 23 26  1  0
  8  3  1  0
 22  5  1  0
 26  9  1  0
M  END
$$$$
