
     RDKit          3D

 26 28  0  0  0  0  0  0  0  0999 V2000
  -15.3179  -35.5909  -12.6777 C   0  0  0  0  0  0  0  0  0  0  0  0
  -16.7140  -35.7584  -12.8312 O   0  0  0  0  0  0  0  0  0  0  0  0
  -17.4319  -36.2669  -11.7650 C   0  0  0  0  0  0  0  0  0  0  0  0
  -18.7985  -36.2986  -11.7550 C   0  0  0  0  0  0  0  0  0  0  0  0
  -19.5548  -36.8171  -10.6689 C   0  0  0  0  0  0  0  0  0  0  0  0
  -18.9206  -37.3203   -9.5506 C   0  0  0  0  0  0  0  0  0  0  0  0
  -17.5476  -37.3002   -9.5381 C   0  0  0  0  0  0  0  0  0  0  0  0
  -16.8339  -36.7739  -10.6454 C   0  0  0  0  0  0  0  0  0  0  0  0
  -16.5767  -37.7749   -8.5290 C   0  0  0  0  0  0  0  0  0  0  0  0
  -16.6104  -37.7290   -7.2467 N   0  0  0  0  0  0  0  0  0  0  0  0
  -16.2804  -39.0610   -6.7156 C   0  0  1  0  0  0  0  0  0  0  0  0
  -17.4227  -39.9897   -7.0267 C   0  0  0  0  0  0  0  0  0  0  0  0
  -18.5165  -40.0047   -5.9700 C   0  0  2  0  0  0  0  0  0  0  0  0
  -18.6160  -41.3926   -5.3873 C   0  0  0  0  0  0  0  0  0  0  0  0
  -19.8408  -39.5779   -6.5728 C   0  0  0  0  0  0  0  0  0  0  0  0
  -21.0388  -40.2992   -6.0887 C   0  0  0  0  0  0  0  0  0  0  0  0
  -22.1668  -40.1838   -7.0719 C   0  0  0  0  0  0  0  0  0  0  0  0
  -21.9277  -39.1008   -8.0610 C   0  0  0  0  0  0  0  0  0  0  0  0
  -23.1647  -38.6223   -8.7983 C   0  0  0  0  0  0  0  0  0  0  0  0
  -22.7225  -37.3385   -9.5217 C   0  0  0  0  0  0  0  0  0  0  0  0
  -22.0477  -37.6342  -10.8428 C   0  0  0  0  0  0  0  0  0  0  0  0
  -20.9490  -36.7117  -11.0001 N   0  0  0  0  0  0  0  0  0  0  0  0
  -15.1658  -39.4262   -7.6818 C   0  0  2  0  0  0  0  0  0  0  0  0
  -13.8030  -39.2395   -7.0487 C   0  0  0  0  0  0  0  0  0  0  0  0
  -12.8800  -38.7373   -7.9647 O   0  0  0  0  0  0  0  0  0  0  0  0
  -15.2985  -38.4298   -8.6750 O   0  0  0  0  0  0  0  0  0  0  0  0
  1  2  1  0
  2  3  1  0
  3  4  2  0
  4  5  1  0
  5  6  2  0
  6  7  1  0
  7  8  2  0
  7  9  1  0
  9 10  2  0
 10 11  1  0
 11 12  1  6
 12 13  1  0
 13 14  1  6
 13 15  1  0
 15 16  1  0
 16 17  1  0
 17 18  1  0
 18 19  1  0
 19 20  1  0
 20 21  1  0
 21 22  1  0
 11 23  1  0
 23 24  1  1
 24 25  1  0
 23 26  1  0
  8  3  1  0
 22  5  1  0
 26  9  1  0
M  END
$$$$
