
     RDKit          3D

 26 28  0  0  0  0  0  0  0  0999 V2000
  -14.1779  -36.3849  -11.2753 C   0  0  0  0  0  0  0  0  0  0  0  0
  -14.7808  -37.6261  -11.5862 O   0  0  0  0  0  0  0  0  0  0  0  0
  -15.8040  -38.0771  -10.7736 C   0  0  0  0  0  0  0  0  0  0  0  0
  -16.7858  -37.2472  -10.3089 C   0  0  0  0  0  0  0  0  0  0  0  0
  -17.8459  -37.6913   -9.4727 C   0  0  0  0  0  0  0  0  0  0  0  0
  -17.9256  -39.0140   -9.0852 C   0  0  0  0  0  0  0  0  0  0  0  0
  -16.9508  -39.8674   -9.5407 C   0  0  0  0  0  0  0  0  0  0  0  0
  -15.9118  -39.3799  -10.3746 C   0  0  0  0  0  0  0  0  0  0  0  0
  -16.7575  -41.3195   -9.3400 C   0  0  0  0  0  0  0  0  0  0  0  0
  -16.9489  -42.0555   -8.3060 N   0  0  0  0  0  0  0  0  0  0  0  0
  -17.7270  -43.2393   -8.7041 C   0  0  1  0  0  0  0  0  0  0  0  0
  -19.1256  -42.7952   -9.0365 C   0  0  0  0  0  0  0  0  0  0  0  0
  -20.0675  -42.7634   -7.8427 C   0  0  2  0  0  0  0  0  0  0  0  0
  -21.1937  -43.7384   -8.0810 C   0  0  0  0  0  0  0  0  0  0  0  0
  -20.6052  -41.3617   -7.6297 C   0  0  0  0  0  0  0  0  0  0  0  0
  -22.0225  -41.2643   -7.2152 C   0  0  0  0  0  0  0  0  0  0  0  0
  -22.5800  -39.9069   -7.5294 C   0  0  0  0  0  0  0  0  0  0  0  0
  -21.5048  -38.9217   -7.8154 C   0  0  0  0  0  0  0  0  0  0  0  0
  -21.9243  -37.4672   -7.7104 C   0  0  0  0  0  0  0  0  0  0  0  0
  -20.6084  -36.6713   -7.7548 C   0  0  0  0  0  0  0  0  0  0  0  0
  -20.1353  -36.4341   -9.1719 C   0  0  0  0  0  0  0  0  0  0  0  0
  -18.6986  -36.5692   -9.1922 N   0  0  0  0  0  0  0  0  0  0  0  0
  -17.0491  -43.5260  -10.0335 C   0  0  2  0  0  0  0  0  0  0  0  0
  -16.0623  -44.6684   -9.9152 C   0  0  0  0  0  0  0  0  0  0  0  0
  -15.4031  -44.8994  -11.1215 O   0  0  0  0  0  0  0  0  0  0  0  0
  -16.2942  -42.3493  -10.2393 O   0  0  0  0  0  0  0  0  0  0  0  0
  1  2  1  0
  2  3  1  0
  3  4  2  0
  4  5  1  0
  5  6  2  0
  6  7  1  0
  7  8  2  0
  7  9  1  0
  9 10  2  0
 10 11  1  0
 11 12  1  6
 12 13  1  0
 13 14  1  6
 13 15  1  0
 15 16  1  0
 16 17  1  0
 17 18  1  0
 18 19  1  0
 19 20  1  0
 20 21  1  0
 21 22  1  0
 11 23  1  0
 23 24  1  1
 24 25  1  0
 23 26  1  0
  8  3  1  0
 22  5  1  0
 26  9  1  0
M  END
$$$$
