
     RDKit          3D

 26 28  0  0  0  0  0  0  0  0999 V2000
  -20.6806  -42.8171   -2.4167 C   0  0  0  0  0  0  0  0  0  0  0  0
  -19.6325  -42.2009   -3.1397 O   0  0  0  0  0  0  0  0  0  0  0  0
  -19.9193  -41.6756   -4.3857 C   0  0  0  0  0  0  0  0  0  0  0  0
  -21.2009  -41.4537   -4.8061 C   0  0  0  0  0  0  0  0  0  0  0  0
  -21.5165  -40.9145   -6.0828 C   0  0  0  0  0  0  0  0  0  0  0  0
  -20.5130  -40.5872   -6.9727 C   0  0  0  0  0  0  0  0  0  0  0  0
  -19.2169  -40.8001   -6.5721 C   0  0  0  0  0  0  0  0  0  0  0  0
  -18.9489  -41.3396   -5.2878 C   0  0  0  0  0  0  0  0  0  0  0  0
  -17.9320  -40.5403   -7.2561 C   0  0  0  0  0  0  0  0  0  0  0  0
  -17.5960  -40.6737   -8.4877 N   0  0  0  0  0  0  0  0  0  0  0  0
  -16.9226  -39.4430   -8.9315 C   0  0  1  0  0  0  0  0  0  0  0  0
  -17.9473  -38.3435   -9.0030 C   0  0  0  0  0  0  0  0  0  0  0  0
  -18.6682  -38.2521  -10.3392 C   0  0  2  0  0  0  0  0  0  0  0  0
  -18.3763  -36.9098  -10.9627 C   0  0  0  0  0  0  0  0  0  0  0  0
  -20.1603  -38.4446  -10.1500 C   0  0  0  0  0  0  0  0  0  0  0  0
  -21.0372  -37.5998  -10.9908 C   0  0  0  0  0  0  0  0  0  0  0  0
  -22.4070  -37.4847  -10.3885 C   0  0  0  0  0  0  0  0  0  0  0  0
  -22.6387  -38.5160   -9.3440 C   0  0  0  0  0  0  0  0  0  0  0  0
  -24.0958  -38.7621   -8.9989 C   0  0  0  0  0  0  0  0  0  0  0  0
  -24.0893  -40.0393   -8.1413 C   0  0  0  0  0  0  0  0  0  0  0  0
  -23.7929  -39.7461   -6.6872 C   0  0  0  0  0  0  0  0  0  0  0  0
  -22.9454  -40.7995   -6.1823 N   0  0  0  0  0  0  0  0  0  0  0  0
  -16.0967  -39.1684   -7.6859 C   0  0  2  0  0  0  0  0  0  0  0  0
  -14.6546  -39.5893   -7.8756 C   0  0  0  0  0  0  0  0  0  0  0  0
  -14.1811  -40.2977   -6.7724 O   0  0  0  0  0  0  0  0  0  0  0  0
  -16.6669  -40.0619   -6.7513 O   0  0  0  0  0  0  0  0  0  0  0  0
  1  2  1  0
  2  3  1  0
  3  4  2  0
  4  5  1  0
  5  6  2  0
  6  7  1  0
  7  8  2  0
  7  9  1  0
  9 10  2  0
 10 11  1  0
 11 12  1  1
 12 13  1  0
 13 14  1  1
 13 15  1  0
 15 16  1  0
 16 17  1  0
 17 18  1  0
 18 19  1  0
 19 20  1  0
 20 21  1  0
 21 22  1  0
 11 23  1  0
 23 24  1  6
 24 25  1  0
 23 26  1  0
  8  3  1  0
 22  5  1  0
 26  9  1  0
M  END
$$$$
