
     RDKit          3D

 26 28  0  0  0  0  0  0  0  0999 V2000
  -15.5526  -33.7833  -11.1356 C   0  0  0  0  0  0  0  0  0  0  0  0
  -15.1143  -34.9683  -10.4996 O   0  0  0  0  0  0  0  0  0  0  0  0
  -16.0611  -35.7735   -9.8948 C   0  0  0  0  0  0  0  0  0  0  0  0
  -17.3935  -35.4680   -9.9072 C   0  0  0  0  0  0  0  0  0  0  0  0
  -18.3822  -36.2826   -9.2914 C   0  0  0  0  0  0  0  0  0  0  0  0
  -18.0247  -37.4445   -8.6371 C   0  0  0  0  0  0  0  0  0  0  0  0
  -16.6915  -37.7731   -8.6124 C   0  0  0  0  0  0  0  0  0  0  0  0
  -15.7396  -36.9303   -9.2416 C   0  0  0  0  0  0  0  0  0  0  0  0
  -15.9868  -38.9364   -8.0324 C   0  0  0  0  0  0  0  0  0  0  0  0
  -16.1873  -39.5782   -6.9391 N   0  0  0  0  0  0  0  0  0  0  0  0
  -16.2123  -41.0198   -7.2333 C   0  0  1  0  0  0  0  0  0  0  0  0
  -17.4657  -41.3218   -8.0091 C   0  0  0  0  0  0  0  0  0  0  0  0
  -18.6750  -41.6308   -7.1399 C   0  0  2  0  0  0  0  0  0  0  0  0
  -19.1348  -43.0394   -7.4231 C   0  0  0  0  0  0  0  0  0  0  0  0
  -19.7882  -40.6370   -7.4088 C   0  0  0  0  0  0  0  0  0  0  0  0
  -21.1632  -41.1839   -7.4076 C   0  0  0  0  0  0  0  0  0  0  0  0
  -22.0971  -40.2860   -8.1653 C   0  0  0  0  0  0  0  0  0  0  0  0
  -21.5079  -38.9402   -8.3890 C   0  0  0  0  0  0  0  0  0  0  0  0
  -22.5074  -37.8540   -8.7411 C   0  0  0  0  0  0  0  0  0  0  0  0
  -21.7172  -36.5385   -8.6320 C   0  0  0  0  0  0  0  0  0  0  0  0
  -20.9409  -36.2354   -9.8943 C   0  0  0  0  0  0  0  0  0  0  0  0
  -19.6663  -35.6766   -9.5122 N   0  0  0  0  0  0  0  0  0  0  0  0
  -15.0730  -41.0713   -8.2375 C   0  0  2  0  0  0  0  0  0  0  0  0
  -13.8016  -41.5954   -7.6037 C   0  0  0  0  0  0  0  0  0  0  0  0
  -12.6886  -40.8627   -8.0129 O   0  0  0  0  0  0  0  0  0  0  0  0
  -14.8612  -39.7017   -8.5135 O   0  0  0  0  0  0  0  0  0  0  0  0
  1  2  1  0
  2  3  1  0
  3  4  2  0
  4  5  1  0
  5  6  2  0
  6  7  1  0
  7  8  2  0
  7  9  1  0
  9 10  2  0
 10 11  1  0
 11 12  1  6
 12 13  1  0
 13 14  1  6
 13 15  1  0
 15 16  1  0
 16 17  1  0
 17 18  1  0
 18 19  1  0
 19 20  1  0
 20 21  1  0
 21 22  1  0
 11 23  1  0
 23 24  1  1
 24 25  1  0
 23 26  1  0
  8  3  1  0
 22  5  1  0
 26  9  1  0
M  END
$$$$
