
     RDKit          3D

 41 44  0  0  0  0  0  0  0  0999 V2000
  -11.6742  -35.5699  -14.1318 C   0  0  0  0  0  0  0  0  0  0  0  0
  -12.5316  -36.4963  -13.2863 C   0  0  0  0  0  0  0  0  0  0  0  0
  -12.3996  -36.0141  -11.8509 C   0  0  0  0  0  0  0  0  0  0  0  0
  -13.9536  -36.3522  -13.7794 C   0  0  0  0  0  0  0  0  0  0  0  0
  -12.0023  -37.8892  -13.4576 C   0  0  0  0  0  0  0  0  0  0  0  0
  -12.7703  -38.8979  -12.7071 C   0  0  0  0  0  0  0  0  0  0  0  0
  -12.4735  -39.2768  -11.3849 C   0  0  0  0  0  0  0  0  0  0  0  0
  -13.3741  -40.2244  -10.9974 C   0  0  0  0  0  0  0  0  0  0  0  0
  -14.1797  -40.4055  -12.0510 N   0  0  0  0  0  0  0  0  0  0  0  0
  -13.8005  -39.6161  -13.0325 O   0  0  0  0  0  0  0  0  0  0  0  0
  -13.5267  -40.9674   -9.6910 C   0  0  0  0  0  0  0  0  0  0  0  0
  -14.5119  -42.1093   -9.9468 C   0  0  0  0  0  0  0  0  0  0  0  0
  -12.1980  -41.5702   -9.3569 C   0  0  0  0  0  0  0  0  0  0  0  0
  -14.0582  -40.0331   -8.7657 N   0  0  0  0  0  0  0  0  0  0  0  0
  -15.2998  -39.4140   -9.0132 C   0  0  0  0  0  0  0  0  0  0  0  0
  -16.0957  -39.2031   -7.7893 C   0  0  1  0  0  0  0  0  0  0  0  0
  -16.4578  -37.8810   -7.5612 O   0  0  0  0  0  0  0  0  0  0  0  0
  -17.3410  -40.1107   -7.7248 C   0  0  2  0  0  0  0  0  0  0  0  0
  -18.2060  -39.8652   -6.5542 C   0  0  0  0  0  0  0  0  0  0  0  0
  -19.5212  -39.1890   -6.8272 C   0  0  0  0  0  0  0  0  0  0  0  0
  -20.5634  -39.5604   -7.6349 C   0  0  0  0  0  0  0  0  0  0  0  0
  -21.6926  -38.7525   -7.6691 C   0  0  0  0  0  0  0  0  0  0  0  0
  -21.7520  -37.5800   -6.8911 C   0  0  0  0  0  0  0  0  0  0  0  0
  -20.7253  -37.1823   -6.0751 C   0  0  0  0  0  0  0  0  0  0  0  0
  -19.6330  -37.9985   -6.0628 C   0  0  0  0  0  0  0  0  0  0  0  0
  -22.8570  -38.9221   -8.3956 O   0  0  0  0  0  0  0  0  0  0  0  0
  -23.8518  -39.8945   -8.4795 C   0  0  0  0  0  0  0  0  0  0  0  0
  -23.6522  -41.0841   -7.5765 C   0  0  0  0  0  0  0  0  0  0  0  0
  -24.2075  -42.2951   -8.2542 C   0  0  0  0  0  0  0  0  0  0  0  0
  -23.1307  -42.9539   -9.0574 C   0  0  0  0  0  0  0  0  0  0  0  0
  -22.2974  -43.8236   -8.3497 O   0  0  0  0  0  0  0  0  0  0  0  0
  -21.1154  -43.6666   -7.6349 C   0  0  0  0  0  0  0  0  0  0  0  0
  -21.2962  -44.0542   -6.2933 C   0  0  0  0  0  0  0  0  0  0  0  0
  -20.2928  -43.9963   -5.3688 C   0  0  0  0  0  0  0  0  0  0  0  0
  -20.5015  -44.4738   -3.7015 Cl  0  0  0  0  0  0  0  0  0  0  0  0
  -19.0895  -43.5341   -5.8304 C   0  0  0  0  0  0  0  0  0  0  0  0
  -18.8637  -43.1331   -7.1749 C   0  0  0  0  0  0  0  0  0  0  0  0
  -19.8923  -43.2046   -8.0851 C   0  0  0  0  0  0  0  0  0  0  0  0
  -17.4722  -42.6557   -7.3129 C   0  0  0  0  0  0  0  0  0  0  0  0
  -16.6069  -43.4738   -6.7554 O   0  0  0  0  0  0  0  0  0  0  0  0
  -16.9538  -41.4877   -7.9328 N   0  0  0  0  0  0  0  0  0  0  0  0
  1  2  1  0
  2  3  1  0
  2  4  1  0
  2  5  1  0
  5  6  1  0
  6  7  2  0
  7  8  1  0
  8  9  2  0
  9 10  1  0
  8 11  1  0
 11 12  1  0
 11 13  1  0
 11 14  1  0
 14 15  1  0
 15 16  1  0
 16 17  1  6
 16 18  1  0
 18 19  1  1
 19 20  1  0
 20 21  2  0
 21 22  1  0
 22 23  2  0
 23 24  1  0
 24 25  2  0
 22 26  1  0
 26 27  1  0
 27 28  1  0
 28 29  1  0
 29 30  1  0
 30 31  1  0
 31 32  1  0
 32 33  2  0
 33 34  1  0
 34 35  1  0
 34 36  2  0
 36 37  1  0
 37 38  2  0
 37 39  1  0
 39 40  2  0
 39 41  1  0
 10  6  1  0
 25 20  1  0
 38 32  1  0
 41 18  1  0
M  END
$$$$
