
     RDKit          3D

 41 44  0  0  0  0  0  0  0  0999 V2000
  -14.8843  -45.6632  -11.4503 C   0  0  0  0  0  0  0  0  0  0  0  0
  -15.4355  -44.3113  -11.0298 C   0  0  0  0  0  0  0  0  0  0  0  0
  -16.8655  -44.2518  -11.5414 C   0  0  0  0  0  0  0  0  0  0  0  0
  -15.3967  -44.2707   -9.5190 C   0  0  0  0  0  0  0  0  0  0  0  0
  -14.5748  -43.2542  -11.6554 C   0  0  0  0  0  0  0  0  0  0  0  0
  -14.4111  -42.0617  -10.8059 C   0  0  0  0  0  0  0  0  0  0  0  0
  -14.5410  -40.7438  -11.2813 C   0  0  0  0  0  0  0  0  0  0  0  0
  -14.3290  -39.8890  -10.2403 C   0  0  0  0  0  0  0  0  0  0  0  0
  -14.0807  -40.6688   -9.1810 N   0  0  0  0  0  0  0  0  0  0  0  0
  -14.1363  -41.9317   -9.5448 O   0  0  0  0  0  0  0  0  0  0  0  0
  -14.3517  -38.3798  -10.1803 C   0  0  0  0  0  0  0  0  0  0  0  0
  -12.8934  -37.9180  -10.1702 C   0  0  0  0  0  0  0  0  0  0  0  0
  -14.9831  -37.8873  -11.4449 C   0  0  0  0  0  0  0  0  0  0  0  0
  -15.0016  -38.0431   -8.9655 N   0  0  0  0  0  0  0  0  0  0  0  0
  -15.2823  -39.0391   -8.0087 C   0  0  0  0  0  0  0  0  0  0  0  0
  -16.4923  -38.7544   -7.2145 C   0  0  1  0  0  0  0  0  0  0  0  0
  -16.9890  -37.4657   -7.3678 O   0  0  0  0  0  0  0  0  0  0  0  0
  -17.6153  -39.7851   -7.4495 C   0  0  2  0  0  0  0  0  0  0  0  0
  -18.7775  -39.6251   -6.5537 C   0  0  0  0  0  0  0  0  0  0  0  0
  -20.0344  -39.0889   -7.1816 C   0  0  0  0  0  0  0  0  0  0  0  0
  -20.7858  -39.5688   -8.2217 C   0  0  0  0  0  0  0  0  0  0  0  0
  -21.9399  -38.8815   -8.5746 C   0  0  0  0  0  0  0  0  0  0  0  0
  -22.3167  -37.7182   -7.8758 C   0  0  0  0  0  0  0  0  0  0  0  0
  -21.5849  -37.2137   -6.8325 C   0  0  0  0  0  0  0  0  0  0  0  0
  -20.4597  -37.9132   -6.5101 C   0  0  0  0  0  0  0  0  0  0  0  0
  -22.8497  -39.1728   -9.5744 O   0  0  0  0  0  0  0  0  0  0  0  0
  -23.6869  -40.2428   -9.8852 C   0  0  0  0  0  0  0  0  0  0  0  0
  -23.6161  -41.4019   -8.9251 C   0  0  0  0  0  0  0  0  0  0  0  0
  -23.8519  -42.6663   -9.6866 C   0  0  0  0  0  0  0  0  0  0  0  0
  -22.5424  -43.2140  -10.1599 C   0  0  0  0  0  0  0  0  0  0  0  0
  -21.8433  -43.9905   -9.2326 O   0  0  0  0  0  0  0  0  0  0  0  0
  -20.9123  -43.7100   -8.2390 C   0  0  0  0  0  0  0  0  0  0  0  0
  -21.4007  -44.1087   -6.9799 C   0  0  0  0  0  0  0  0  0  0  0  0
  -20.6865  -43.9443   -5.8276 C   0  0  0  0  0  0  0  0  0  0  0  0
  -21.2785  -44.4340   -4.2588 Cl  0  0  0  0  0  0  0  0  0  0  0  0
  -19.4556  -43.3626   -5.9729 C   0  0  0  0  0  0  0  0  0  0  0  0
  -18.9246  -42.9458   -7.2234 C   0  0  0  0  0  0  0  0  0  0  0  0
  -19.6653  -43.1264   -8.3681 C   0  0  0  0  0  0  0  0  0  0  0  0
  -17.5996  -42.3284   -7.0078 C   0  0  0  0  0  0  0  0  0  0  0  0
  -16.8354  -43.0509   -6.2186 O   0  0  0  0  0  0  0  0  0  0  0  0
  -17.0538  -41.1158   -7.5066 N   0  0  0  0  0  0  0  0  0  0  0  0
  1  2  1  0
  2  3  1  0
  2  4  1  0
  2  5  1  0
  5  6  1  0
  6  7  2  0
  7  8  1  0
  8  9  2  0
  9 10  1  0
  8 11  1  0
 11 12  1  0
 11 13  1  0
 11 14  1  0
 14 15  1  0
 15 16  1  0
 16 17  1  6
 16 18  1  0
 18 19  1  1
 19 20  1  0
 20 21  2  0
 21 22  1  0
 22 23  2  0
 23 24  1  0
 24 25  2  0
 22 26  1  0
 26 27  1  0
 27 28  1  0
 28 29  1  0
 29 30  1  0
 30 31  1  0
 31 32  1  0
 32 33  2  0
 33 34  1  0
 34 35  1  0
 34 36  2  0
 36 37  1  0
 37 38  2  0
 37 39  1  0
 39 40  2  0
 39 41  1  0
 10  6  1  0
 25 20  1  0
 38 32  1  0
 41 18  1  0
M  END
$$$$
