
     RDKit          3D

 41 44  0  0  0  0  0  0  0  0999 V2000
  -15.7371  -35.2130  -10.7567 C   0  0  0  0  0  0  0  0  0  0  0  0
  -15.5834  -34.9668  -12.2480 C   0  0  0  0  0  0  0  0  0  0  0  0
  -16.9902  -34.8794  -12.8169 C   0  0  0  0  0  0  0  0  0  0  0  0
  -14.8515  -33.6532  -12.4043 C   0  0  0  0  0  0  0  0  0  0  0  0
  -14.8198  -36.1222  -12.8238 C   0  0  0  0  0  0  0  0  0  0  0  0
  -15.1064  -37.4005  -12.1498 C   0  0  0  0  0  0  0  0  0  0  0  0
  -14.2929  -37.9476  -11.1405 C   0  0  0  0  0  0  0  0  0  0  0  0
  -14.8437  -39.1282  -10.7378 C   0  0  0  0  0  0  0  0  0  0  0  0
  -15.9467  -39.2809  -11.4807 N   0  0  0  0  0  0  0  0  0  0  0  0
  -16.0715  -38.2552  -12.2948 O   0  0  0  0  0  0  0  0  0  0  0  0
  -14.3975  -40.1207   -9.6902 C   0  0  0  0  0  0  0  0  0  0  0  0
  -14.3542  -41.4897  -10.3713 C   0  0  0  0  0  0  0  0  0  0  0  0
  -13.0008  -39.7590   -9.2917 C   0  0  0  0  0  0  0  0  0  0  0  0
  -15.3837  -40.0890   -8.6714 N   0  0  0  0  0  0  0  0  0  0  0  0
  -15.2013  -39.2840   -7.5291 C   0  0  0  0  0  0  0  0  0  0  0  0
  -16.4059  -39.1995   -6.6819 C   0  0  1  0  0  0  0  0  0  0  0  0
  -16.9070  -37.9130   -6.5240 O   0  0  0  0  0  0  0  0  0  0  0  0
  -17.5280  -40.1505   -7.1454 C   0  0  2  0  0  0  0  0  0  0  0  0
  -18.3999  -40.6306   -6.0555 C   0  0  0  0  0  0  0  0  0  0  0  0
  -19.7926  -40.0643   -6.0172 C   0  0  0  0  0  0  0  0  0  0  0  0
  -20.7922  -40.0929   -6.9535 C   0  0  0  0  0  0  0  0  0  0  0  0
  -22.0132  -39.5133   -6.6336 C   0  0  0  0  0  0  0  0  0  0  0  0
  -22.2063  -38.9102   -5.3756 C   0  0  0  0  0  0  0  0  0  0  0  0
  -21.2251  -38.8651   -4.4198 C   0  0  0  0  0  0  0  0  0  0  0  0
  -20.0401  -39.4448   -4.7646 C   0  0  0  0  0  0  0  0  0  0  0  0
  -23.1578  -39.4242   -7.4044 O   0  0  0  0  0  0  0  0  0  0  0  0
  -24.0255  -40.3271   -8.0159 C   0  0  0  0  0  0  0  0  0  0  0  0
  -23.6673  -41.7781   -7.8249 C   0  0  0  0  0  0  0  0  0  0  0  0
  -24.0779  -42.5350   -9.0467 C   0  0  0  0  0  0  0  0  0  0  0  0
  -22.9393  -42.5699  -10.0168 C   0  0  0  0  0  0  0  0  0  0  0  0
  -21.9946  -43.5763   -9.8016 O   0  0  0  0  0  0  0  0  0  0  0  0
  -20.8311  -43.6683   -9.0464 C   0  0  0  0  0  0  0  0  0  0  0  0
  -20.9434  -44.6983   -8.0928 C   0  0  0  0  0  0  0  0  0  0  0  0
  -19.9417  -45.0014   -7.2153 C   0  0  0  0  0  0  0  0  0  0  0  0
  -20.0658  -46.2760   -6.0273 Cl  0  0  0  0  0  0  0  0  0  0  0  0
  -18.8117  -44.2356   -7.3206 C   0  0  0  0  0  0  0  0  0  0  0  0
  -18.6565  -43.1875   -8.2677 C   0  0  0  0  0  0  0  0  0  0  0  0
  -19.6812  -42.9061   -9.1408 C   0  0  0  0  0  0  0  0  0  0  0  0
  -17.3370  -42.5507   -8.0765 C   0  0  0  0  0  0  0  0  0  0  0  0
  -16.3691  -43.4334   -7.9633 O   0  0  0  0  0  0  0  0  0  0  0  0
  -16.9763  -41.1792   -7.9980 N   0  0  0  0  0  0  0  0  0  0  0  0
  1  2  1  0
  2  3  1  0
  2  4  1  0
  2  5  1  0
  5  6  1  0
  6  7  2  0
  7  8  1  0
  8  9  2  0
  9 10  1  0
  8 11  1  0
 11 12  1  0
 11 13  1  0
 11 14  1  0
 14 15  1  0
 15 16  1  0
 16 17  1  6
 16 18  1  0
 18 19  1  1
 19 20  1  0
 20 21  2  0
 21 22  1  0
 22 23  2  0
 23 24  1  0
 24 25  2  0
 22 26  1  0
 26 27  1  0
 27 28  1  0
 28 29  1  0
 29 30  1  0
 30 31  1  0
 31 32  1  0
 32 33  2  0
 33 34  1  0
 34 35  1  0
 34 36  2  0
 36 37  1  0
 37 38  2  0
 37 39  1  0
 39 40  2  0
 39 41  1  0
 10  6  1  0
 25 20  1  0
 38 32  1  0
 41 18  1  0
M  END
$$$$
