
     RDKit          3D

 41 44  0  0  0  0  0  0  0  0999 V2000
  -11.8590  -35.4319  -11.8724 C   0  0  0  0  0  0  0  0  0  0  0  0
  -13.1053  -35.1878  -12.7063 C   0  0  0  0  0  0  0  0  0  0  0  0
  -13.9142  -34.1310  -11.9719 C   0  0  0  0  0  0  0  0  0  0  0  0
  -12.6417  -34.6791  -14.0524 C   0  0  0  0  0  0  0  0  0  0  0  0
  -13.8472  -36.4874  -12.8074 C   0  0  0  0  0  0  0  0  0  0  0  0
  -13.6604  -37.3550  -11.6314 C   0  0  0  0  0  0  0  0  0  0  0  0
  -14.4129  -38.5205  -11.3968 C   0  0  0  0  0  0  0  0  0  0  0  0
  -13.9859  -39.0795  -10.2287 C   0  0  0  0  0  0  0  0  0  0  0  0
  -13.0132  -38.2760   -9.7813 N   0  0  0  0  0  0  0  0  0  0  0  0
  -12.8477  -37.2788  -10.6231 O   0  0  0  0  0  0  0  0  0  0  0  0
  -14.4344  -40.3297   -9.5092 C   0  0  0  0  0  0  0  0  0  0  0  0
  -15.6537  -40.8594  -10.2660 C   0  0  0  0  0  0  0  0  0  0  0  0
  -13.3379  -41.3408   -9.6351 C   0  0  0  0  0  0  0  0  0  0  0  0
  -14.7857  -39.9246   -8.1961 N   0  0  0  0  0  0  0  0  0  0  0  0
  -15.6016  -38.7932   -7.9948 C   0  0  0  0  0  0  0  0  0  0  0  0
  -16.6412  -39.0042   -6.9698 C   0  0  1  0  0  0  0  0  0  0  0  0
  -17.2164  -37.8350   -6.4870 O   0  0  0  0  0  0  0  0  0  0  0  0
  -17.7406  -39.9834   -7.4291 C   0  0  2  0  0  0  0  0  0  0  0  0
  -18.8318  -40.1662   -6.4520 C   0  0  0  0  0  0  0  0  0  0  0  0
  -20.1543  -39.5434   -6.8053 C   0  0  0  0  0  0  0  0  0  0  0  0
  -20.9689  -39.7367   -7.8896 C   0  0  0  0  0  0  0  0  0  0  0  0
  -22.1724  -39.0455   -7.9427 C   0  0  0  0  0  0  0  0  0  0  0  0
  -22.5343  -38.1667   -6.9032 C   0  0  0  0  0  0  0  0  0  0  0  0
  -21.7399  -37.9522   -5.8073 C   0  0  0  0  0  0  0  0  0  0  0  0
  -20.5672  -38.6476   -5.7850 C   0  0  0  0  0  0  0  0  0  0  0  0
  -23.1486  -39.0803   -8.9215 O   0  0  0  0  0  0  0  0  0  0  0  0
  -23.9680  -40.0575   -9.4836 C   0  0  0  0  0  0  0  0  0  0  0  0
  -23.7770  -41.4431   -8.9232 C   0  0  0  0  0  0  0  0  0  0  0  0
  -24.0266  -42.4360  -10.0122 C   0  0  0  0  0  0  0  0  0  0  0  0
  -22.7402  -42.7396  -10.7135 C   0  0  0  0  0  0  0  0  0  0  0  0
  -21.9403  -43.7134  -10.1107 O   0  0  0  0  0  0  0  0  0  0  0  0
  -20.9431  -43.6857   -9.1425 C   0  0  0  0  0  0  0  0  0  0  0  0
  -21.3132  -44.4687   -8.0322 C   0  0  0  0  0  0  0  0  0  0  0  0
  -20.5148  -44.6116   -6.9334 C   0  0  0  0  0  0  0  0  0  0  0  0
  -20.9596  -45.5794   -5.5489 Cl  0  0  0  0  0  0  0  0  0  0  0  0
  -19.3220  -43.9409   -6.9780 C   0  0  0  0  0  0  0  0  0  0  0  0
  -18.9095  -43.1408   -8.0777 C   0  0  0  0  0  0  0  0  0  0  0  0
  -19.7331  -43.0170   -9.1721 C   0  0  0  0  0  0  0  0  0  0  0  0
  -17.5952  -42.5376   -7.7743 C   0  0  0  0  0  0  0  0  0  0  0  0
  -16.7436  -43.4150   -7.2910 O   0  0  0  0  0  0  0  0  0  0  0  0
  -17.1367  -41.2013   -7.9204 N   0  0  0  0  0  0  0  0  0  0  0  0
  1  2  1  0
  2  3  1  0
  2  4  1  0
  2  5  1  0
  5  6  1  0
  6  7  2  0
  7  8  1  0
  8  9  2  0
  9 10  1  0
  8 11  1  0
 11 12  1  0
 11 13  1  0
 11 14  1  0
 14 15  1  0
 15 16  1  0
 16 17  1  6
 16 18  1  0
 18 19  1  1
 19 20  1  0
 20 21  2  0
 21 22  1  0
 22 23  2  0
 23 24  1  0
 24 25  2  0
 22 26  1  0
 26 27  1  0
 27 28  1  0
 28 29  1  0
 29 30  1  0
 30 31  1  0
 31 32  1  0
 32 33  2  0
 33 34  1  0
 34 35  1  0
 34 36  2  0
 36 37  1  0
 37 38  2  0
 37 39  1  0
 39 40  2  0
 39 41  1  0
 10  6  1  0
 25 20  1  0
 38 32  1  0
 41 18  1  0
M  END
$$$$
