
     RDKit          3D

 41 44  0  0  0  0  0  0  0  0999 V2000
  -23.0752  -42.9027   -7.0599 C   0  0  0  0  0  0  0  0  0  0  0  0
  -22.9761  -43.2637   -5.5875 C   0  0  0  0  0  0  0  0  0  0  0  0
  -22.9955  -41.9514   -4.8206 C   0  0  0  0  0  0  0  0  0  0  0  0
  -24.1890  -44.1038   -5.2576 C   0  0  0  0  0  0  0  0  0  0  0  0
  -21.6896  -44.0080   -5.3867 C   0  0  0  0  0  0  0  0  0  0  0  0
  -20.5011  -43.2256   -5.7687 C   0  0  0  0  0  0  0  0  0  0  0  0
  -19.4970  -43.7057   -6.6295 C   0  0  0  0  0  0  0  0  0  0  0  0
  -18.5507  -42.7340   -6.7696 C   0  0  0  0  0  0  0  0  0  0  0  0
  -18.9744  -41.7101   -6.0186 N   0  0  0  0  0  0  0  0  0  0  0  0
  -20.1158  -42.0291   -5.4478 O   0  0  0  0  0  0  0  0  0  0  0  0
  -17.2721  -42.7080   -7.5735 C   0  0  0  0  0  0  0  0  0  0  0  0
  -16.7966  -44.1572   -7.6907 C   0  0  0  0  0  0  0  0  0  0  0  0
  -17.6127  -42.2214   -8.9474 C   0  0  0  0  0  0  0  0  0  0  0  0
  -16.3523  -41.9283   -6.8266 N   0  0  0  0  0  0  0  0  0  0  0  0
  -15.2442  -41.3327   -7.4618 C   0  0  0  0  0  0  0  0  0  0  0  0
  -15.3659  -39.8678   -7.5849 C   0  0  1  0  0  0  0  0  0  0  0  0
  -14.2296  -39.2371   -8.0769 O   0  0  0  0  0  0  0  0  0  0  0  0
  -16.6030  -39.4392   -8.4001 C   0  0  2  0  0  0  0  0  0  0  0  0
  -17.0068  -38.0352   -8.1898 C   0  0  0  0  0  0  0  0  0  0  0  0
  -16.7425  -37.0878   -9.3274 C   0  0  0  0  0  0  0  0  0  0  0  0
  -17.1744  -37.1136  -10.6272 C   0  0  0  0  0  0  0  0  0  0  0  0
  -16.8021  -36.0723  -11.4674 C   0  0  0  0  0  0  0  0  0  0  0  0
  -15.9964  -35.0226  -10.9851 C   0  0  0  0  0  0  0  0  0  0  0  0
  -15.5484  -34.9703   -9.6910 C   0  0  0  0  0  0  0  0  0  0  0  0
  -15.9335  -36.0061   -8.8922 C   0  0  0  0  0  0  0  0  0  0  0  0
  -17.1159  -35.8808  -12.8006 O   0  0  0  0  0  0  0  0  0  0  0  0
  -18.2866  -35.7336  -13.5421 C   0  0  0  0  0  0  0  0  0  0  0  0
  -19.5585  -35.7982  -12.7370 C   0  0  0  0  0  0  0  0  0  0  0  0
  -20.6267  -36.4134  -13.5823 C   0  0  0  0  0  0  0  0  0  0  0  0
  -20.6346  -37.8951  -13.3742 C   0  0  0  0  0  0  0  0  0  0  0  0
  -21.3568  -38.3443  -12.2659 O   0  0  0  0  0  0  0  0  0  0  0  0
  -21.0452  -38.5598  -10.9283 C   0  0  0  0  0  0  0  0  0  0  0  0
  -21.8482  -37.7528  -10.0996 C   0  0  0  0  0  0  0  0  0  0  0  0
  -21.7453  -37.7644   -8.7378 C   0  0  0  0  0  0  0  0  0  0  0  0
  -22.7341  -36.7696   -7.6967 Cl  0  0  0  0  0  0  0  0  0  0  0  0
  -20.8051  -38.6164   -8.2233 C   0  0  0  0  0  0  0  0  0  0  0  0
  -19.9747  -39.4477   -9.0225 C   0  0  0  0  0  0  0  0  0  0  0  0
  -20.1022  -39.4170  -10.3916 C   0  0  0  0  0  0  0  0  0  0  0  0
  -19.0557  -40.2035   -8.1464 C   0  0  0  0  0  0  0  0  0  0  0  0
  -19.6767  -40.7468   -7.1228 O   0  0  0  0  0  0  0  0  0  0  0  0
  -17.6550  -40.4180   -8.2435 N   0  0  0  0  0  0  0  0  0  0  0  0
  1  2  1  0
  2  3  1  0
  2  4  1  0
  2  5  1  0
  5  6  1  0
  6  7  2  0
  7  8  1  0
  8  9  2  0
  9 10  1  0
  8 11  1  0
 11 12  1  0
 11 13  1  0
 11 14  1  0
 14 15  1  0
 15 16  1  0
 16 17  1  6
 16 18  1  0
 18 19  1  1
 19 20  1  0
 20 21  2  0
 21 22  1  0
 22 23  2  0
 23 24  1  0
 24 25  2  0
 22 26  1  0
 26 27  1  0
 27 28  1  0
 28 29  1  0
 29 30  1  0
 30 31  1  0
 31 32  1  0
 32 33  2  0
 33 34  1  0
 34 35  1  0
 34 36  2  0
 36 37  1  0
 37 38  2  0
 37 39  1  0
 39 40  2  0
 39 41  1  0
 10  6  1  0
 25 20  1  0
 38 32  1  0
 41 18  1  0
M  END
$$$$
