
     RDKit          3D

 41 44  0  0  0  0  0  0  0  0999 V2000
  -11.4177  -34.4199  -14.2747 C   0  0  0  0  0  0  0  0  0  0  0  0
  -11.6166  -35.6518  -13.4080 C   0  0  0  0  0  0  0  0  0  0  0  0
  -11.8503  -36.8140  -14.3594 C   0  0  0  0  0  0  0  0  0  0  0  0
  -10.3424  -35.8443  -12.6175 C   0  0  0  0  0  0  0  0  0  0  0  0
  -12.8062  -35.4028  -12.5291 C   0  0  0  0  0  0  0  0  0  0  0  0
  -13.4843  -36.6405  -12.1063 C   0  0  0  0  0  0  0  0  0  0  0  0
  -13.3322  -37.2143  -10.8306 C   0  0  0  0  0  0  0  0  0  0  0  0
  -14.0939  -38.3439  -10.7743 C   0  0  0  0  0  0  0  0  0  0  0  0
  -14.6796  -38.4415  -11.9740 N   0  0  0  0  0  0  0  0  0  0  0  0
  -14.3030  -37.4317  -12.7281 O   0  0  0  0  0  0  0  0  0  0  0  0
  -14.3092  -39.3361   -9.6558 C   0  0  0  0  0  0  0  0  0  0  0  0
  -14.7910  -40.6343  -10.3060 C   0  0  0  0  0  0  0  0  0  0  0  0
  -12.9778  -39.6019   -9.0258 C   0  0  0  0  0  0  0  0  0  0  0  0
  -15.3134  -38.7798   -8.8229 N   0  0  0  0  0  0  0  0  0  0  0  0
  -16.6469  -39.2252   -8.9214 C   0  0  0  0  0  0  0  0  0  0  0  0
  -17.2820  -39.4460   -7.6085 C   0  0  1  0  0  0  0  0  0  0  0  0
  -17.9138  -38.3263   -7.0813 O   0  0  0  0  0  0  0  0  0  0  0  0
  -18.2492  -40.6473   -7.6092 C   0  0  2  0  0  0  0  0  0  0  0  0
  -18.8428  -40.9442   -6.2907 C   0  0  0  0  0  0  0  0  0  0  0  0
  -20.2994  -40.6091   -6.1247 C   0  0  0  0  0  0  0  0  0  0  0  0
  -21.3981  -41.0418   -6.8192 C   0  0  0  0  0  0  0  0  0  0  0  0
  -22.6503  -40.5921   -6.4208 C   0  0  0  0  0  0  0  0  0  0  0  0
  -22.7751  -39.7096   -5.3302 C   0  0  0  0  0  0  0  0  0  0  0  0
  -21.6948  -39.2588   -4.6175 C   0  0  0  0  0  0  0  0  0  0  0  0
  -20.4811  -39.7210   -5.0328 C   0  0  0  0  0  0  0  0  0  0  0  0
  -23.8890  -40.8905   -6.9583 O   0  0  0  0  0  0  0  0  0  0  0  0
  -24.6403  -42.0468   -7.1598 C   0  0  0  0  0  0  0  0  0  0  0  0
  -23.9790  -43.3200   -6.6995 C   0  0  0  0  0  0  0  0  0  0  0  0
  -24.4040  -44.4315   -7.6039 C   0  0  0  0  0  0  0  0  0  0  0  0
  -23.4330  -44.5510   -8.7360 C   0  0  0  0  0  0  0  0  0  0  0  0
  -22.2873  -45.3050   -8.4704 O   0  0  0  0  0  0  0  0  0  0  0  0
  -21.0320  -45.0106   -7.9505 C   0  0  0  0  0  0  0  0  0  0  0  0
  -20.8001  -45.7504   -6.7751 C   0  0  0  0  0  0  0  0  0  0  0  0
  -19.6425  -45.6487   -6.0577 C   0  0  0  0  0  0  0  0  0  0  0  0
  -19.3399  -46.5598   -4.5984 Cl  0  0  0  0  0  0  0  0  0  0  0  0
  -18.7130  -44.7754   -6.5559 C   0  0  0  0  0  0  0  0  0  0  0  0
  -18.9060  -44.0101   -7.7376 C   0  0  0  0  0  0  0  0  0  0  0  0
  -20.0811  -44.1348   -8.4413 C   0  0  0  0  0  0  0  0  0  0  0  0
  -17.7246  -43.1506   -7.9588 C   0  0  0  0  0  0  0  0  0  0  0  0
  -16.5956  -43.8108   -7.8242 O   0  0  0  0  0  0  0  0  0  0  0  0
  -17.6342  -41.7701   -8.2802 N   0  0  0  0  0  0  0  0  0  0  0  0
  1  2  1  0
  2  3  1  0
  2  4  1  0
  2  5  1  0
  5  6  1  0
  6  7  2  0
  7  8  1  0
  8  9  2  0
  9 10  1  0
  8 11  1  0
 11 12  1  0
 11 13  1  0
 11 14  1  0
 14 15  1  0
 15 16  1  0
 16 17  1  6
 16 18  1  0
 18 19  1  1
 19 20  1  0
 20 21  2  0
 21 22  1  0
 22 23  2  0
 23 24  1  0
 24 25  2  0
 22 26  1  0
 26 27  1  0
 27 28  1  0
 28 29  1  0
 29 30  1  0
 30 31  1  0
 31 32  1  0
 32 33  2  0
 33 34  1  0
 34 35  1  0
 34 36  2  0
 36 37  1  0
 37 38  2  0
 37 39  1  0
 39 40  2  0
 39 41  1  0
 10  6  1  0
 25 20  1  0
 38 32  1  0
 41 18  1  0
M  END
$$$$
