
     RDKit          3D

 41 44  0  0  0  0  0  0  0  0999 V2000
  -14.0317  -35.8518  -11.5472 C   0  0  0  0  0  0  0  0  0  0  0  0
  -14.5456  -36.4561  -12.8429 C   0  0  0  0  0  0  0  0  0  0  0  0
  -16.0555  -36.5582  -12.7009 C   0  0  0  0  0  0  0  0  0  0  0  0
  -14.1675  -35.5028  -13.9538 C   0  0  0  0  0  0  0  0  0  0  0  0
  -13.9079  -37.8045  -13.0007 C   0  0  0  0  0  0  0  0  0  0  0  0
  -14.1983  -38.7181  -11.8820 C   0  0  0  0  0  0  0  0  0  0  0  0
  -13.2672  -39.0382  -10.8769 C   0  0  0  0  0  0  0  0  0  0  0  0
  -13.8579  -39.9034  -10.0041 C   0  0  0  0  0  0  0  0  0  0  0  0
  -15.0977  -40.0936  -10.4717 N   0  0  0  0  0  0  0  0  0  0  0  0
  -15.2646  -39.3874  -11.5689 O   0  0  0  0  0  0  0  0  0  0  0  0
  -13.3276  -40.5590   -8.7508 C   0  0  0  0  0  0  0  0  0  0  0  0
  -13.9373  -41.9609   -8.6959 C   0  0  0  0  0  0  0  0  0  0  0  0
  -11.8466  -40.7056   -8.9103 C   0  0  0  0  0  0  0  0  0  0  0  0
  -13.7804  -39.7632   -7.6675 N   0  0  0  0  0  0  0  0  0  0  0  0
  -14.8062  -40.2304   -6.8215 C   0  0  0  0  0  0  0  0  0  0  0  0
  -15.9923  -39.3534   -6.8112 C   0  0  1  0  0  0  0  0  0  0  0  0
  -15.7870  -38.1040   -7.3836 O   0  0  0  0  0  0  0  0  0  0  0  0
  -17.2337  -40.0230   -7.4351 C   0  0  2  0  0  0  0  0  0  0  0  0
  -18.3672  -40.1791   -6.5027 C   0  0  0  0  0  0  0  0  0  0  0  0
  -19.5487  -39.2774   -6.7327 C   0  0  0  0  0  0  0  0  0  0  0  0
  -20.3536  -39.1259   -7.8308 C   0  0  0  0  0  0  0  0  0  0  0  0
  -21.4143  -38.2327   -7.7536 C   0  0  0  0  0  0  0  0  0  0  0  0
  -21.6450  -37.5029   -6.5713 C   0  0  0  0  0  0  0  0  0  0  0  0
  -20.8566  -37.6324   -5.4578 C   0  0  0  0  0  0  0  0  0  0  0  0
  -19.8259  -38.5186   -5.5659 C   0  0  0  0  0  0  0  0  0  0  0  0
  -22.3532  -37.9179   -8.7188 O   0  0  0  0  0  0  0  0  0  0  0  0
  -23.3158  -38.6171   -9.4446 C   0  0  0  0  0  0  0  0  0  0  0  0
  -23.3880  -40.0918   -9.1440 C   0  0  0  0  0  0  0  0  0  0  0  0
  -23.7778  -40.8141  -10.3932 C   0  0  0  0  0  0  0  0  0  0  0  0
  -22.5457  -41.2125  -11.1429 C   0  0  0  0  0  0  0  0  0  0  0  0
  -21.9474  -42.4050  -10.7288 O   0  0  0  0  0  0  0  0  0  0  0  0
  -20.9888  -42.7287   -9.7754 C   0  0  0  0  0  0  0  0  0  0  0  0
  -21.5224  -43.6181   -8.8230 C   0  0  0  0  0  0  0  0  0  0  0  0
  -20.7933  -44.0947   -7.7712 C   0  0  0  0  0  0  0  0  0  0  0  0
  -21.4408  -45.1984   -6.5821 Cl  0  0  0  0  0  0  0  0  0  0  0  0
  -19.5001  -43.6506   -7.6989 C   0  0  0  0  0  0  0  0  0  0  0  0
  -18.9220  -42.7541   -8.6378 C   0  0  0  0  0  0  0  0  0  0  0  0
  -19.6795  -42.2923   -9.6888 C   0  0  0  0  0  0  0  0  0  0  0  0
  -17.5311  -42.4591   -8.2358 C   0  0  0  0  0  0  0  0  0  0  0  0
  -16.8616  -43.5462   -7.9221 O   0  0  0  0  0  0  0  0  0  0  0  0
  -16.8402  -41.2218   -8.1404 N   0  0  0  0  0  0  0  0  0  0  0  0
  1  2  1  0
  2  3  1  0
  2  4  1  0
  2  5  1  0
  5  6  1  0
  6  7  2  0
  7  8  1  0
  8  9  2  0
  9 10  1  0
  8 11  1  0
 11 12  1  0
 11 13  1  0
 11 14  1  0
 14 15  1  0
 15 16  1  0
 16 17  1  6
 16 18  1  0
 18 19  1  1
 19 20  1  0
 20 21  2  0
 21 22  1  0
 22 23  2  0
 23 24  1  0
 24 25  2  0
 22 26  1  0
 26 27  1  0
 27 28  1  0
 28 29  1  0
 29 30  1  0
 30 31  1  0
 31 32  1  0
 32 33  2  0
 33 34  1  0
 34 35  1  0
 34 36  2  0
 36 37  1  0
 37 38  2  0
 37 39  1  0
 39 40  2  0
 39 41  1  0
 10  6  1  0
 25 20  1  0
 38 32  1  0
 41 18  1  0
M  END
$$$$
