
     RDKit          3D

 41 44  0  0  0  0  0  0  0  0999 V2000
  -13.9796  -34.8387  -13.8479 C   0  0  0  0  0  0  0  0  0  0  0  0
  -14.3804  -35.6668  -12.6388 C   0  0  0  0  0  0  0  0  0  0  0  0
  -14.0819  -34.8150  -11.4158 C   0  0  0  0  0  0  0  0  0  0  0  0
  -15.8624  -35.9388  -12.7630 C   0  0  0  0  0  0  0  0  0  0  0  0
  -13.5619  -36.9236  -12.6562 C   0  0  0  0  0  0  0  0  0  0  0  0
  -13.7500  -37.7551  -11.4547 C   0  0  0  0  0  0  0  0  0  0  0  0
  -12.8357  -38.7407  -11.0394 C   0  0  0  0  0  0  0  0  0  0  0  0
  -13.3131  -39.3161   -9.8991 C   0  0  0  0  0  0  0  0  0  0  0  0
  -14.4717  -38.6965   -9.6428 N   0  0  0  0  0  0  0  0  0  0  0  0
  -14.6978  -37.7907  -10.5695 O   0  0  0  0  0  0  0  0  0  0  0  0
  -12.7413  -40.4119   -9.0308 C   0  0  0  0  0  0  0  0  0  0  0  0
  -12.9716  -41.7283   -9.7752 C   0  0  0  0  0  0  0  0  0  0  0  0
  -11.2645  -40.1878   -8.9354 C   0  0  0  0  0  0  0  0  0  0  0  0
  -13.4750  -40.3771   -7.8175 N   0  0  0  0  0  0  0  0  0  0  0  0
  -14.5368  -39.4649   -7.6539 C   0  0  0  0  0  0  0  0  0  0  0  0
  -15.6845  -40.0371   -6.9250 C   0  0  1  0  0  0  0  0  0  0  0  0
  -15.8736  -39.5144   -5.6515 O   0  0  0  0  0  0  0  0  0  0  0  0
  -16.9988  -39.9600   -7.7284 C   0  0  2  0  0  0  0  0  0  0  0  0
  -17.9714  -41.0196   -7.3963 C   0  0  0  0  0  0  0  0  0  0  0  0
  -19.1861  -40.5903   -6.6206 C   0  0  0  0  0  0  0  0  0  0  0  0
  -20.1539  -39.6678   -6.9191 C   0  0  0  0  0  0  0  0  0  0  0  0
  -21.2016  -39.4968   -6.0235 C   0  0  0  0  0  0  0  0  0  0  0  0
  -21.2552  -40.2559   -4.8383 C   0  0  0  0  0  0  0  0  0  0  0  0
  -20.3015  -41.1846   -4.5123 C   0  0  0  0  0  0  0  0  0  0  0  0
  -19.2886  -41.3296   -5.4135 C   0  0  0  0  0  0  0  0  0  0  0  0
  -22.2833  -38.6395   -6.1097 O   0  0  0  0  0  0  0  0  0  0  0  0
  -23.3376  -38.4448   -7.0000 C   0  0  0  0  0  0  0  0  0  0  0  0
  -23.3426  -39.3716   -8.1880 C   0  0  0  0  0  0  0  0  0  0  0  0
  -23.9122  -38.6401   -9.3604 C   0  0  0  0  0  0  0  0  0  0  0  0
  -22.8066  -37.9726  -10.1158 C   0  0  0  0  0  0  0  0  0  0  0  0
  -22.1353  -38.7780  -11.0390 O   0  0  0  0  0  0  0  0  0  0  0  0
  -21.0359  -39.6258  -10.9670 C   0  0  0  0  0  0  0  0  0  0  0  0
  -21.4030  -40.9390  -11.3185 C   0  0  0  0  0  0  0  0  0  0  0  0
  -20.5129  -41.9747  -11.3276 C   0  0  0  0  0  0  0  0  0  0  0  0
  -20.9528  -43.6085  -11.7615 Cl  0  0  0  0  0  0  0  0  0  0  0  0
  -19.2302  -41.6550  -10.9709 C   0  0  0  0  0  0  0  0  0  0  0  0
  -18.8172  -40.3441  -10.6097 C   0  0  0  0  0  0  0  0  0  0  0  0
  -19.7350  -39.3198  -10.6118 C   0  0  0  0  0  0  0  0  0  0  0  0
  -17.3847  -40.3678  -10.2481 C   0  0  0  0  0  0  0  0  0  0  0  0
  -16.6601  -41.0276  -11.1246 O   0  0  0  0  0  0  0  0  0  0  0  0
  -16.7039  -39.8065   -9.1351 N   0  0  0  0  0  0  0  0  0  0  0  0
  1  2  1  0
  2  3  1  0
  2  4  1  0
  2  5  1  0
  5  6  1  0
  6  7  2  0
  7  8  1  0
  8  9  2  0
  9 10  1  0
  8 11  1  0
 11 12  1  0
 11 13  1  0
 11 14  1  0
 14 15  1  0
 15 16  1  0
 16 17  1  1
 16 18  1  0
 18 19  1  6
 19 20  1  0
 20 21  2  0
 21 22  1  0
 22 23  2  0
 23 24  1  0
 24 25  2  0
 22 26  1  0
 26 27  1  0
 27 28  1  0
 28 29  1  0
 29 30  1  0
 30 31  1  0
 31 32  1  0
 32 33  2  0
 33 34  1  0
 34 35  1  0
 34 36  2  0
 36 37  1  0
 37 38  2  0
 37 39  1  0
 39 40  2  0
 39 41  1  0
 10  6  1  0
 25 20  1  0
 38 32  1  0
 41 18  1  0
M  END
$$$$
