
     RDKit          3D

 41 44  0  0  0  0  0  0  0  0999 V2000
  -15.2758  -35.8654  -12.7851 C   0  0  0  0  0  0  0  0  0  0  0  0
  -14.0273  -36.2053  -13.5813 C   0  0  0  0  0  0  0  0  0  0  0  0
  -14.5043  -36.7576  -14.9146 C   0  0  0  0  0  0  0  0  0  0  0  0
  -13.2610  -34.9158  -13.7702 C   0  0  0  0  0  0  0  0  0  0  0  0
  -13.2528  -37.2249  -12.8002 C   0  0  0  0  0  0  0  0  0  0  0  0
  -14.0517  -37.8806  -11.7501 C   0  0  0  0  0  0  0  0  0  0  0  0
  -13.5178  -38.3132  -10.5223 C   0  0  0  0  0  0  0  0  0  0  0  0
  -14.5232  -38.8720   -9.7900 C   0  0  0  0  0  0  0  0  0  0  0  0
  -15.6185  -38.7769  -10.5537 N   0  0  0  0  0  0  0  0  0  0  0  0
  -15.3093  -38.1933  -11.6913 O   0  0  0  0  0  0  0  0  0  0  0  0
  -14.5172  -39.4860   -8.4099 C   0  0  0  0  0  0  0  0  0  0  0  0
  -15.2618  -40.8180   -8.5178 C   0  0  0  0  0  0  0  0  0  0  0  0
  -13.0937  -39.7806   -8.0532 C   0  0  0  0  0  0  0  0  0  0  0  0
  -15.2141  -38.5788   -7.5715 N   0  0  0  0  0  0  0  0  0  0  0  0
  -15.4138  -38.8789   -6.2090 C   0  0  0  0  0  0  0  0  0  0  0  0
  -16.2706  -40.0607   -5.9961 C   0  0  1  0  0  0  0  0  0  0  0  0
  -16.7601  -40.1887   -4.7019 O   0  0  0  0  0  0  0  0  0  0  0  0
  -17.4292  -40.1470   -7.0103 C   0  0  2  0  0  0  0  0  0  0  0  0
  -18.2489  -41.3684   -6.8867 C   0  0  0  0  0  0  0  0  0  0  0  0
  -19.6293  -41.1901   -6.3172 C   0  0  0  0  0  0  0  0  0  0  0  0
  -20.6775  -40.4193   -6.7460 C   0  0  0  0  0  0  0  0  0  0  0  0
  -21.8713  -40.4759   -6.0386 C   0  0  0  0  0  0  0  0  0  0  0  0
  -21.9888  -41.3060   -4.9069 C   0  0  0  0  0  0  0  0  0  0  0  0
  -20.9578  -42.0870   -4.4536 C   0  0  0  0  0  0  0  0  0  0  0  0
  -19.8011  -42.0100   -5.1717 C   0  0  0  0  0  0  0  0  0  0  0  0
  -23.0539  -39.8009   -6.2801 O   0  0  0  0  0  0  0  0  0  0  0  0
  -23.9657  -39.7240   -7.3313 C   0  0  0  0  0  0  0  0  0  0  0  0
  -23.6186  -40.5635   -8.5334 C   0  0  0  0  0  0  0  0  0  0  0  0
  -24.1042  -39.8621   -9.7607 C   0  0  0  0  0  0  0  0  0  0  0  0
  -23.0194  -38.9789  -10.2915 C   0  0  0  0  0  0  0  0  0  0  0  0
  -22.0791  -39.6063  -11.1125 O   0  0  0  0  0  0  0  0  0  0  0  0
  -20.8786  -40.2681  -10.8815 C   0  0  0  0  0  0  0  0  0  0  0  0
  -20.9549  -41.5989  -11.3354 C   0  0  0  0  0  0  0  0  0  0  0  0
  -19.9125  -42.4746  -11.2267 C   0  0  0  0  0  0  0  0  0  0  0  0
  -19.9917  -44.1278  -11.7852 Cl  0  0  0  0  0  0  0  0  0  0  0  0
  -18.7788  -41.9748  -10.6440 C   0  0  0  0  0  0  0  0  0  0  0  0
  -18.6591  -40.6394  -10.1727 C   0  0  0  0  0  0  0  0  0  0  0  0
  -19.7245  -39.7788  -10.2977 C   0  0  0  0  0  0  0  0  0  0  0  0
  -17.3223  -40.4540   -9.5712 C   0  0  0  0  0  0  0  0  0  0  0  0
  -16.3626  -40.9321  -10.3321 O   0  0  0  0  0  0  0  0  0  0  0  0
  -16.9383  -39.8605   -8.3393 N   0  0  0  0  0  0  0  0  0  0  0  0
  1  2  1  0
  2  3  1  0
  2  4  1  0
  2  5  1  0
  5  6  1  0
  6  7  2  0
  7  8  1  0
  8  9  2  0
  9 10  1  0
  8 11  1  0
 11 12  1  0
 11 13  1  0
 11 14  1  0
 14 15  1  0
 15 16  1  0
 16 17  1  1
 16 18  1  0
 18 19  1  6
 19 20  1  0
 20 21  2  0
 21 22  1  0
 22 23  2  0
 23 24  1  0
 24 25  2  0
 22 26  1  0
 26 27  1  0
 27 28  1  0
 28 29  1  0
 29 30  1  0
 30 31  1  0
 31 32  1  0
 32 33  2  0
 33 34  1  0
 34 35  1  0
 34 36  2  0
 36 37  1  0
 37 38  2  0
 37 39  1  0
 39 40  2  0
 39 41  1  0
 10  6  1  0
 25 20  1  0
 38 32  1  0
 41 18  1  0
M  END
$$$$
