
     RDKit          3D

 41 44  0  0  0  0  0  0  0  0999 V2000
  -12.5844  -36.7495  -14.8765 C   0  0  0  0  0  0  0  0  0  0  0  0
  -13.2279  -35.7006  -13.9854 C   0  0  0  0  0  0  0  0  0  0  0  0
  -12.7613  -34.3503  -14.5043 C   0  0  0  0  0  0  0  0  0  0  0  0
  -14.7245  -35.8531  -14.1362 C   0  0  0  0  0  0  0  0  0  0  0  0
  -12.7634  -35.9492  -12.5811 C   0  0  0  0  0  0  0  0  0  0  0  0
  -12.9144  -37.3530  -12.1601 C   0  0  0  0  0  0  0  0  0  0  0  0
  -13.4219  -37.7390  -10.9058 C   0  0  0  0  0  0  0  0  0  0  0  0
  -13.4264  -39.1012  -10.8452 C   0  0  0  0  0  0  0  0  0  0  0  0
  -12.9384  -39.5140  -12.0213 N   0  0  0  0  0  0  0  0  0  0  0  0
  -12.6493  -38.4690  -12.7661 O   0  0  0  0  0  0  0  0  0  0  0  0
  -13.8684  -40.0402   -9.7476 C   0  0  0  0  0  0  0  0  0  0  0  0
  -15.1302  -40.7430  -10.2516 C   0  0  0  0  0  0  0  0  0  0  0  0
  -12.7994  -41.0744   -9.5809 C   0  0  0  0  0  0  0  0  0  0  0  0
  -14.1537  -39.2253   -8.6224 N   0  0  0  0  0  0  0  0  0  0  0  0
  -14.1956  -39.7859   -7.3300 C   0  0  0  0  0  0  0  0  0  0  0  0
  -15.4378  -39.4677   -6.6010 C   0  0  1  0  0  0  0  0  0  0  0  0
  -15.6641  -38.1088   -6.4189 O   0  0  0  0  0  0  0  0  0  0  0  0
  -16.6819  -40.1315   -7.2257 C   0  0  2  0  0  0  0  0  0  0  0  0
  -17.9113  -39.9844   -6.4222 C   0  0  0  0  0  0  0  0  0  0  0  0
  -18.9518  -39.0423   -6.9620 C   0  0  0  0  0  0  0  0  0  0  0  0
  -19.6228  -39.0452   -8.1564 C   0  0  0  0  0  0  0  0  0  0  0  0
  -20.5750  -38.0594   -8.3811 C   0  0  0  0  0  0  0  0  0  0  0  0
  -20.8333  -37.0831   -7.3994 C   0  0  0  0  0  0  0  0  0  0  0  0
  -20.1775  -37.0539   -6.1964 C   0  0  0  0  0  0  0  0  0  0  0  0
  -19.2513  -38.0365   -6.0067 C   0  0  0  0  0  0  0  0  0  0  0  0
  -21.3724  -37.8633   -9.4938 O   0  0  0  0  0  0  0  0  0  0  0  0
  -22.3344  -38.6032  -10.1788 C   0  0  0  0  0  0  0  0  0  0  0  0
  -22.6066  -39.9707   -9.6076 C   0  0  0  0  0  0  0  0  0  0  0  0
  -22.9541  -40.8950  -10.7297 C   0  0  0  0  0  0  0  0  0  0  0  0
  -21.7097  -41.5538  -11.2356 C   0  0  0  0  0  0  0  0  0  0  0  0
  -21.2973  -42.6863  -10.5292 O   0  0  0  0  0  0  0  0  0  0  0  0
  -20.4803  -42.8953   -9.4240 C   0  0  0  0  0  0  0  0  0  0  0  0
  -21.2039  -43.5149   -8.3870 C   0  0  0  0  0  0  0  0  0  0  0  0
  -20.6411  -43.8309   -7.1835 C   0  0  0  0  0  0  0  0  0  0  0  0
  -21.5253  -44.5996   -5.8880 Cl  0  0  0  0  0  0  0  0  0  0  0  0
  -19.3183  -43.5054   -7.0458 C   0  0  0  0  0  0  0  0  0  0  0  0
  -18.5512  -42.8803   -8.0658 C   0  0  0  0  0  0  0  0  0  0  0  0
  -19.1438  -42.5759   -9.2690 C   0  0  0  0  0  0  0  0  0  0  0  0
  -17.1812  -42.6412   -7.5666 C   0  0  0  0  0  0  0  0  0  0  0  0
  -16.6764  -43.6985   -6.9699 O   0  0  0  0  0  0  0  0  0  0  0  0
  -16.3637  -41.4816   -7.6324 N   0  0  0  0  0  0  0  0  0  0  0  0
  1  2  1  0
  2  3  1  0
  2  4  1  0
  2  5  1  0
  5  6  1  0
  6  7  2  0
  7  8  1  0
  8  9  2  0
  9 10  1  0
  8 11  1  0
 11 12  1  0
 11 13  1  0
 11 14  1  0
 14 15  1  0
 15 16  1  0
 16 17  1  6
 16 18  1  0
 18 19  1  1
 19 20  1  0
 20 21  2  0
 21 22  1  0
 22 23  2  0
 23 24  1  0
 24 25  2  0
 22 26  1  0
 26 27  1  0
 27 28  1  0
 28 29  1  0
 29 30  1  0
 30 31  1  0
 31 32  1  0
 32 33  2  0
 33 34  1  0
 34 35  1  0
 34 36  2  0
 36 37  1  0
 37 38  2  0
 37 39  1  0
 39 40  2  0
 39 41  1  0
 10  6  1  0
 25 20  1  0
 38 32  1  0
 41 18  1  0
M  END
$$$$
