
     RDKit          3D

 41 44  0  0  0  0  0  0  0  0999 V2000
  -11.9448  -35.9758  -15.0845 C   0  0  0  0  0  0  0  0  0  0  0  0
  -12.1459  -36.3358  -13.6223 C   0  0  0  0  0  0  0  0  0  0  0  0
  -10.7720  -36.6815  -13.0715 C   0  0  0  0  0  0  0  0  0  0  0  0
  -12.7119  -35.1106  -12.9410 C   0  0  0  0  0  0  0  0  0  0  0  0
  -13.0801  -37.5078  -13.5663 C   0  0  0  0  0  0  0  0  0  0  0  0
  -13.4158  -37.9169  -12.1913 C   0  0  0  0  0  0  0  0  0  0  0  0
  -13.3901  -39.2523  -11.7485 C   0  0  0  0  0  0  0  0  0  0  0  0
  -13.7515  -39.2758  -10.4339 C   0  0  0  0  0  0  0  0  0  0  0  0
  -13.9852  -37.9998  -10.1036 N   0  0  0  0  0  0  0  0  0  0  0  0
  -13.7802  -37.2319  -11.1517 O   0  0  0  0  0  0  0  0  0  0  0  0
  -13.8849  -40.4277   -9.4660 C   0  0  0  0  0  0  0  0  0  0  0  0
  -13.6405  -41.7070  -10.2683 C   0  0  0  0  0  0  0  0  0  0  0  0
  -12.7869  -40.2988   -8.4570 C   0  0  0  0  0  0  0  0  0  0  0  0
  -15.2151  -40.3793   -8.9762 N   0  0  0  0  0  0  0  0  0  0  0  0
  -15.6009  -39.3783   -8.0622 C   0  0  0  0  0  0  0  0  0  0  0  0
  -16.5465  -39.8621   -7.0387 C   0  0  1  0  0  0  0  0  0  0  0  0
  -16.9946  -38.8813   -6.1623 O   0  0  0  0  0  0  0  0  0  0  0  0
  -17.7467  -40.6167   -7.6458 C   0  0  2  0  0  0  0  0  0  0  0  0
  -18.7921  -40.9738   -6.6668 C   0  0  0  0  0  0  0  0  0  0  0  0
  -20.0770  -40.1967   -6.7503 C   0  0  0  0  0  0  0  0  0  0  0  0
  -20.9648  -40.0510   -7.7833 C   0  0  0  0  0  0  0  0  0  0  0  0
  -22.1086  -39.2930   -7.5689 C   0  0  0  0  0  0  0  0  0  0  0  0
  -22.3378  -38.6900   -6.3169 C   0  0  0  0  0  0  0  0  0  0  0  0
  -21.4677  -38.8168   -5.2657 C   0  0  0  0  0  0  0  0  0  0  0  0
  -20.3566  -39.5690   -5.5086 C   0  0  0  0  0  0  0  0  0  0  0  0
  -23.1382  -39.0113   -8.4480 O   0  0  0  0  0  0  0  0  0  0  0  0
  -24.0655  -39.7556   -9.1749 C   0  0  0  0  0  0  0  0  0  0  0  0
  -23.9574  -41.2481   -8.9987 C   0  0  0  0  0  0  0  0  0  0  0  0
  -24.3488  -41.9088  -10.2810 C   0  0  0  0  0  0  0  0  0  0  0  0
  -23.1335  -42.1043  -11.1316 C   0  0  0  0  0  0  0  0  0  0  0  0
  -22.3832  -43.2502  -10.8566 O   0  0  0  0  0  0  0  0  0  0  0  0
  -21.3339  -43.5374   -9.9911 C   0  0  0  0  0  0  0  0  0  0  0  0
  -21.7035  -44.5542   -9.0898 C   0  0  0  0  0  0  0  0  0  0  0  0
  -20.8586  -45.0267   -8.1265 C   0  0  0  0  0  0  0  0  0  0  0  0
  -21.3021  -46.2874   -7.0016 Cl  0  0  0  0  0  0  0  0  0  0  0  0
  -19.6192  -44.4458   -8.0904 C   0  0  0  0  0  0  0  0  0  0  0  0
  -19.2055  -43.4180   -8.9803 C   0  0  0  0  0  0  0  0  0  0  0  0
  -20.0768  -42.9635   -9.9425 C   0  0  0  0  0  0  0  0  0  0  0  0
  -17.8310  -42.9997   -8.6348 C   0  0  0  0  0  0  0  0  0  0  0  0
  -17.0283  -44.0253   -8.4547 O   0  0  0  0  0  0  0  0  0  0  0  0
  -17.2735  -41.7035   -8.4731 N   0  0  0  0  0  0  0  0  0  0  0  0
  1  2  1  0
  2  3  1  0
  2  4  1  0
  2  5  1  0
  5  6  1  0
  6  7  2  0
  7  8  1  0
  8  9  2  0
  9 10  1  0
  8 11  1  0
 11 12  1  0
 11 13  1  0
 11 14  1  0
 14 15  1  0
 15 16  1  0
 16 17  1  6
 16 18  1  0
 18 19  1  1
 19 20  1  0
 20 21  2  0
 21 22  1  0
 22 23  2  0
 23 24  1  0
 24 25  2  0
 22 26  1  0
 26 27  1  0
 27 28  1  0
 28 29  1  0
 29 30  1  0
 30 31  1  0
 31 32  1  0
 32 33  2  0
 33 34  1  0
 34 35  1  0
 34 36  2  0
 36 37  1  0
 37 38  2  0
 37 39  1  0
 39 40  2  0
 39 41  1  0
 10  6  1  0
 25 20  1  0
 38 32  1  0
 41 18  1  0
M  END
$$$$
