
     RDKit          3D

 41 44  0  0  0  0  0  0  0  0999 V2000
  -11.1491  -38.5716  -14.4487 C   0  0  0  0  0  0  0  0  0  0  0  0
  -10.4425  -37.8254  -13.3297 C   0  0  0  0  0  0  0  0  0  0  0  0
   -8.9525  -37.9511  -13.6026 C   0  0  0  0  0  0  0  0  0  0  0  0
  -10.8900  -36.3836  -13.4108 C   0  0  0  0  0  0  0  0  0  0  0  0
  -10.8289  -38.4751  -12.0343 C   0  0  0  0  0  0  0  0  0  0  0  0
  -12.1611  -38.0670  -11.5554 C   0  0  0  0  0  0  0  0  0  0  0  0
  -13.2414  -38.9566  -11.4083 C   0  0  0  0  0  0  0  0  0  0  0  0
  -14.3160  -38.2547  -10.9480 C   0  0  0  0  0  0  0  0  0  0  0  0
  -13.8926  -36.9908  -10.8251 N   0  0  0  0  0  0  0  0  0  0  0  0
  -12.6304  -36.9150  -11.1875 O   0  0  0  0  0  0  0  0  0  0  0  0
  -15.7184  -38.7031  -10.6104 C   0  0  0  0  0  0  0  0  0  0  0  0
  -16.3412  -39.2155  -11.9103 C   0  0  0  0  0  0  0  0  0  0  0  0
  -15.6076  -39.8582   -9.6650 C   0  0  0  0  0  0  0  0  0  0  0  0
  -16.3981  -37.5510  -10.1389 N   0  0  0  0  0  0  0  0  0  0  0  0
  -17.5689  -37.6823   -9.3655 C   0  0  0  0  0  0  0  0  0  0  0  0
  -17.3342  -38.3419   -8.0671 C   0  0  1  0  0  0  0  0  0  0  0  0
  -17.4099  -37.4923   -6.9701 O   0  0  0  0  0  0  0  0  0  0  0  0
  -18.2430  -39.5687   -7.8491 C   0  0  2  0  0  0  0  0  0  0  0  0
  -18.4314  -39.9353   -6.4318 C   0  0  0  0  0  0  0  0  0  0  0  0
  -19.7851  -39.6481   -5.8431 C   0  0  0  0  0  0  0  0  0  0  0  0
  -21.0295  -40.0827   -6.2162 C   0  0  0  0  0  0  0  0  0  0  0  0
  -22.1227  -39.6846   -5.4577 C   0  0  0  0  0  0  0  0  0  0  0  0
  -21.9448  -38.8510   -4.3365 C   0  0  0  0  0  0  0  0  0  0  0  0
  -20.7131  -38.3996   -3.9399 C   0  0  0  0  0  0  0  0  0  0  0  0
  -19.6613  -38.8104   -4.7042 C   0  0  0  0  0  0  0  0  0  0  0  0
  -23.4586  -39.9954   -5.6344 O   0  0  0  0  0  0  0  0  0  0  0  0
  -24.2186  -41.1631   -5.6680 C   0  0  0  0  0  0  0  0  0  0  0  0
  -23.4342  -42.4350   -5.4748 C   0  0  0  0  0  0  0  0  0  0  0  0
  -24.0825  -43.5203   -6.2723 C   0  0  0  0  0  0  0  0  0  0  0  0
  -23.4730  -43.5666   -7.6379 C   0  0  0  0  0  0  0  0  0  0  0  0
  -22.2878  -44.2985   -7.7445 O   0  0  0  0  0  0  0  0  0  0  0  0
  -20.9410  -43.9905   -7.5897 C   0  0  0  0  0  0  0  0  0  0  0  0
  -20.3723  -44.7707   -6.5647 C   0  0  0  0  0  0  0  0  0  0  0  0
  -19.0598  -44.6659   -6.2019 C   0  0  0  0  0  0  0  0  0  0  0  0
  -18.3399  -45.6267   -4.9331 Cl  0  0  0  0  0  0  0  0  0  0  0  0
  -18.3244  -43.7475   -6.9022 C   0  0  0  0  0  0  0  0  0  0  0  0
  -18.8580  -42.9405   -7.9431 C   0  0  0  0  0  0  0  0  0  0  0  0
  -20.1829  -43.0693   -8.2889 C   0  0  0  0  0  0  0  0  0  0  0  0
  -17.8019  -42.0401   -8.4504 C   0  0  0  0  0  0  0  0  0  0  0  0
  -16.6715  -42.6735   -8.6734 O   0  0  0  0  0  0  0  0  0  0  0  0
  -17.8279  -40.6457   -8.7192 N   0  0  0  0  0  0  0  0  0  0  0  0
  1  2  1  0
  2  3  1  0
  2  4  1  0
  2  5  1  0
  5  6  1  0
  6  7  2  0
  7  8  1  0
  8  9  2  0
  9 10  1  0
  8 11  1  0
 11 12  1  0
 11 13  1  0
 11 14  1  0
 14 15  1  0
 15 16  1  0
 16 17  1  1
 16 18  1  0
 18 19  1  1
 19 20  1  0
 20 21  2  0
 21 22  1  0
 22 23  2  0
 23 24  1  0
 24 25  2  0
 22 26  1  0
 26 27  1  0
 27 28  1  0
 28 29  1  0
 29 30  1  0
 30 31  1  0
 31 32  1  0
 32 33  2  0
 33 34  1  0
 34 35  1  0
 34 36  2  0
 36 37  1  0
 37 38  2  0
 37 39  1  0
 39 40  2  0
 39 41  1  0
 10  6  1  0
 25 20  1  0
 38 32  1  0
 41 18  1  0
M  END
$$$$
