
     RDKit          3D

 41 44  0  0  0  0  0  0  0  0999 V2000
  -12.7459  -35.0184  -13.4700 C   0  0  0  0  0  0  0  0  0  0  0  0
  -12.1685  -36.4207  -13.3792 C   0  0  0  0  0  0  0  0  0  0  0  0
  -11.3649  -36.6383  -14.6510 C   0  0  0  0  0  0  0  0  0  0  0  0
  -11.2750  -36.4508  -12.1601 C   0  0  0  0  0  0  0  0  0  0  0  0
  -13.3167  -37.3799  -13.2741 C   0  0  0  0  0  0  0  0  0  0  0  0
  -13.5269  -37.8855  -11.9064 C   0  0  0  0  0  0  0  0  0  0  0  0
  -13.2234  -39.2003  -11.5075 C   0  0  0  0  0  0  0  0  0  0  0  0
  -13.5373  -39.3317  -10.1871 C   0  0  0  0  0  0  0  0  0  0  0  0
  -14.0119  -38.1380   -9.8109 N   0  0  0  0  0  0  0  0  0  0  0  0
  -13.9924  -37.3161  -10.8378 O   0  0  0  0  0  0  0  0  0  0  0  0
  -13.4121  -40.5132   -9.2543 C   0  0  0  0  0  0  0  0  0  0  0  0
  -14.0033  -41.7180   -9.9885 C   0  0  0  0  0  0  0  0  0  0  0  0
  -11.9525  -40.7706   -9.0455 C   0  0  0  0  0  0  0  0  0  0  0  0
  -14.1775  -40.1908   -8.1045 N   0  0  0  0  0  0  0  0  0  0  0  0
  -15.0651  -39.0963   -8.1245 C   0  0  0  0  0  0  0  0  0  0  0  0
  -16.0883  -39.1613   -7.0640 C   0  0  1  0  0  0  0  0  0  0  0  0
  -16.5180  -37.9221   -6.6047 O   0  0  0  0  0  0  0  0  0  0  0  0
  -17.3012  -40.0282   -7.4587 C   0  0  2  0  0  0  0  0  0  0  0  0
  -18.3988  -40.0144   -6.4719 C   0  0  0  0  0  0  0  0  0  0  0  0
  -19.6393  -39.2607   -6.8650 C   0  0  0  0  0  0  0  0  0  0  0  0
  -20.4797  -39.4238   -7.9345 C   0  0  0  0  0  0  0  0  0  0  0  0
  -21.5915  -38.5972   -8.0325 C   0  0  0  0  0  0  0  0  0  0  0  0
  -21.8369  -37.6159   -7.0525 C   0  0  0  0  0  0  0  0  0  0  0  0
  -21.0139  -37.4286   -5.9727 C   0  0  0  0  0  0  0  0  0  0  0  0
  -19.9334  -38.2576   -5.9052 C   0  0  0  0  0  0  0  0  0  0  0  0
  -22.5724  -38.5771   -9.0072 O   0  0  0  0  0  0  0  0  0  0  0  0
  -23.5079  -39.4825   -9.5046 C   0  0  0  0  0  0  0  0  0  0  0  0
  -23.4809  -40.8419   -8.8552 C   0  0  0  0  0  0  0  0  0  0  0  0
  -23.8567  -41.8656   -9.8774 C   0  0  0  0  0  0  0  0  0  0  0  0
  -22.6218  -42.3669  -10.5574 C   0  0  0  0  0  0  0  0  0  0  0  0
  -21.9403  -43.3892   -9.8925 O   0  0  0  0  0  0  0  0  0  0  0  0
  -20.9396  -43.4197   -8.9280 C   0  0  0  0  0  0  0  0  0  0  0  0
  -21.3926  -44.0789   -7.7691 C   0  0  0  0  0  0  0  0  0  0  0  0
  -20.6088  -44.2459   -6.6633 C   0  0  0  0  0  0  0  0  0  0  0  0
  -21.1562  -45.0615   -5.2189 Cl  0  0  0  0  0  0  0  0  0  0  0  0
  -19.3443  -43.7284   -6.7514 C   0  0  0  0  0  0  0  0  0  0  0  0
  -18.8470  -43.0566   -7.9007 C   0  0  0  0  0  0  0  0  0  0  0  0
  -19.6581  -42.9052   -9.0010 C   0  0  0  0  0  0  0  0  0  0  0  0
  -17.4672  -42.5982   -7.6370 C   0  0  0  0  0  0  0  0  0  0  0  0
  -16.7238  -43.5390   -7.0977 O   0  0  0  0  0  0  0  0  0  0  0  0
  -16.8522  -41.3393   -7.8697 N   0  0  0  0  0  0  0  0  0  0  0  0
  1  2  1  0
  2  3  1  0
  2  4  1  0
  2  5  1  0
  5  6  1  0
  6  7  2  0
  7  8  1  0
  8  9  2  0
  9 10  1  0
  8 11  1  0
 11 12  1  0
 11 13  1  0
 11 14  1  0
 14 15  1  0
 15 16  1  0
 16 17  1  6
 16 18  1  0
 18 19  1  1
 19 20  1  0
 20 21  2  0
 21 22  1  0
 22 23  2  0
 23 24  1  0
 24 25  2  0
 22 26  1  0
 26 27  1  0
 27 28  1  0
 28 29  1  0
 29 30  1  0
 30 31  1  0
 31 32  1  0
 32 33  2  0
 33 34  1  0
 34 35  1  0
 34 36  2  0
 36 37  1  0
 37 38  2  0
 37 39  1  0
 39 40  2  0
 39 41  1  0
 10  6  1  0
 25 20  1  0
 38 32  1  0
 41 18  1  0
M  END
$$$$
