
     RDKit          3D

 41 44  0  0  0  0  0  0  0  0999 V2000
  -13.6775  -33.5863  -14.0151 C   0  0  0  0  0  0  0  0  0  0  0  0
  -13.0264  -34.6917  -13.2012 C   0  0  0  0  0  0  0  0  0  0  0  0
  -12.6760  -35.7988  -14.1819 C   0  0  0  0  0  0  0  0  0  0  0  0
  -11.7810  -34.1039  -12.5775 C   0  0  0  0  0  0  0  0  0  0  0  0
  -14.0215  -35.1489  -12.1763 C   0  0  0  0  0  0  0  0  0  0  0  0
  -13.5060  -36.2183  -11.3038 C   0  0  0  0  0  0  0  0  0  0  0  0
  -14.0869  -37.4966  -11.2133 C   0  0  0  0  0  0  0  0  0  0  0  0
  -13.3656  -38.2338  -10.3214 C   0  0  0  0  0  0  0  0  0  0  0  0
  -12.3890  -37.4242   -9.8940 N   0  0  0  0  0  0  0  0  0  0  0  0
  -12.4990  -36.2552  -10.4868 O   0  0  0  0  0  0  0  0  0  0  0  0
  -13.5364  -39.6588   -9.8500 C   0  0  0  0  0  0  0  0  0  0  0  0
  -14.1155  -40.4452  -11.0274 C   0  0  0  0  0  0  0  0  0  0  0  0
  -12.1734  -40.2035   -9.5568 C   0  0  0  0  0  0  0  0  0  0  0  0
  -14.4536  -39.6095   -8.7693 N   0  0  0  0  0  0  0  0  0  0  0  0
  -14.5214  -40.6709   -7.8446 C   0  0  0  0  0  0  0  0  0  0  0  0
  -15.5663  -41.6589   -8.1730 C   0  0  1  0  0  0  0  0  0  0  0  0
  -15.3064  -42.9437   -7.7115 O   0  0  0  0  0  0  0  0  0  0  0  0
  -16.9722  -41.2107   -7.7243 C   0  0  2  0  0  0  0  0  0  0  0  0
  -18.0286  -41.4447   -8.7283 C   0  0  0  0  0  0  0  0  0  0  0  0
  -19.0012  -42.5514   -8.4271 C   0  0  0  0  0  0  0  0  0  0  0  0
  -19.8449  -42.7312   -7.3628 C   0  0  0  0  0  0  0  0  0  0  0  0
  -20.6757  -43.8441   -7.3596 C   0  0  0  0  0  0  0  0  0  0  0  0
  -20.6404  -44.7611   -8.4281 C   0  0  0  0  0  0  0  0  0  0  0  0
  -19.8067  -44.6085   -9.5050 C   0  0  0  0  0  0  0  0  0  0  0  0
  -19.0062  -43.5049   -9.4782 C   0  0  0  0  0  0  0  0  0  0  0  0
  -21.6029  -44.2299   -6.4089 O   0  0  0  0  0  0  0  0  0  0  0  0
  -22.7527  -43.6758   -5.8495 C   0  0  0  0  0  0  0  0  0  0  0  0
  -23.1176  -42.3111   -6.3737 C   0  0  0  0  0  0  0  0  0  0  0  0
  -23.7602  -41.5333   -5.2709 C   0  0  0  0  0  0  0  0  0  0  0  0
  -22.7129  -40.7670   -4.5263 C   0  0  0  0  0  0  0  0  0  0  0  0
  -22.3547  -39.5374   -5.0843 O   0  0  0  0  0  0  0  0  0  0  0  0
  -21.4114  -39.1370   -6.0237 C   0  0  0  0  0  0  0  0  0  0  0  0
  -22.0420  -38.5303   -7.1268 C   0  0  0  0  0  0  0  0  0  0  0  0
  -21.3465  -38.0480   -8.1987 C   0  0  0  0  0  0  0  0  0  0  0  0
  -22.1142  -37.2927   -9.5740 Cl  0  0  0  0  0  0  0  0  0  0  0  0
  -19.9865  -38.1921   -8.1343 C   0  0  0  0  0  0  0  0  0  0  0  0
  -19.3099  -38.7974   -7.0409 C   0  0  0  0  0  0  0  0  0  0  0  0
  -20.0361  -39.2719   -5.9737 C   0  0  0  0  0  0  0  0  0  0  0  0
  -17.8590  -38.8203   -7.3193 C   0  0  0  0  0  0  0  0  0  0  0  0
  -17.4172  -37.6625   -7.7585 O   0  0  0  0  0  0  0  0  0  0  0  0
  -16.9103  -39.8693   -7.1893 N   0  0  0  0  0  0  0  0  0  0  0  0
  1  2  1  0
  2  3  1  0
  2  4  1  0
  2  5  1  0
  5  6  1  0
  6  7  2  0
  7  8  1  0
  8  9  2  0
  9 10  1  0
  8 11  1  0
 11 12  1  0
 11 13  1  0
 11 14  1  0
 14 15  1  0
 15 16  1  0
 16 17  1  1
 16 18  1  0
 18 19  1  6
 19 20  1  0
 20 21  2  0
 21 22  1  0
 22 23  2  0
 23 24  1  0
 24 25  2  0
 22 26  1  0
 26 27  1  0
 27 28  1  0
 28 29  1  0
 29 30  1  0
 30 31  1  0
 31 32  1  0
 32 33  2  0
 33 34  1  0
 34 35  1  0
 34 36  2  0
 36 37  1  0
 37 38  2  0
 37 39  1  0
 39 40  2  0
 39 41  1  0
 10  6  1  0
 25 20  1  0
 38 32  1  0
 41 18  1  0
M  END
$$$$
