
     RDKit          3D

 41 44  0  0  0  0  0  0  0  0999 V2000
  -11.9821  -37.7256  -13.3864 C   0  0  0  0  0  0  0  0  0  0  0  0
  -10.7334  -37.3042  -12.6304 C   0  0  0  0  0  0  0  0  0  0  0  0
   -9.6468  -37.1014  -13.6737 C   0  0  0  0  0  0  0  0  0  0  0  0
  -11.0612  -36.0064  -11.9277 C   0  0  0  0  0  0  0  0  0  0  0  0
  -10.3880  -38.4053  -11.6723 C   0  0  0  0  0  0  0  0  0  0  0  0
  -11.4863  -38.7350  -10.7472 C   0  0  0  0  0  0  0  0  0  0  0  0
  -12.5145  -39.6455  -11.0531 C   0  0  0  0  0  0  0  0  0  0  0  0
  -13.3582  -39.7154   -9.9841 C   0  0  0  0  0  0  0  0  0  0  0  0
  -12.8520  -38.8760   -9.0725 N   0  0  0  0  0  0  0  0  0  0  0  0
  -11.7593  -38.3198   -9.5489 O   0  0  0  0  0  0  0  0  0  0  0  0
  -14.6113  -40.5301   -9.7656 C   0  0  0  0  0  0  0  0  0  0  0  0
  -14.2244  -41.9958   -9.9707 C   0  0  0  0  0  0  0  0  0  0  0  0
  -15.0191  -40.3561   -8.3360 C   0  0  0  0  0  0  0  0  0  0  0  0
  -15.5361  -40.1039  -10.7529 N   0  0  0  0  0  0  0  0  0  0  0  0
  -16.4821  -39.1022  -10.4566 C   0  0  0  0  0  0  0  0  0  0  0  0
  -16.8842  -39.0872   -9.0375 C   0  0  1  0  0  0  0  0  0  0  0  0
  -17.2198  -37.8301   -8.5495 O   0  0  0  0  0  0  0  0  0  0  0  0
  -18.0116  -40.0928   -8.7271 C   0  0  2  0  0  0  0  0  0  0  0  0
  -18.3549  -40.1905   -7.2949 C   0  0  0  0  0  0  0  0  0  0  0  0
  -19.6701  -39.5893   -6.8820 C   0  0  0  0  0  0  0  0  0  0  0  0
  -20.9455  -39.8627   -7.3008 C   0  0  0  0  0  0  0  0  0  0  0  0
  -21.9961  -39.1702   -6.7129 C   0  0  0  0  0  0  0  0  0  0  0  0
  -21.7443  -38.2095   -5.7142 C   0  0  0  0  0  0  0  0  0  0  0  0
  -20.4798  -37.9138   -5.2760 C   0  0  0  0  0  0  0  0  0  0  0  0
  -19.4718  -38.6127   -5.8715 C   0  0  0  0  0  0  0  0  0  0  0  0
  -23.3517  -39.2763   -6.9647 O   0  0  0  0  0  0  0  0  0  0  0  0
  -24.3060  -40.2898   -6.8970 C   0  0  0  0  0  0  0  0  0  0  0  0
  -23.7780  -41.6277   -6.4482 C   0  0  0  0  0  0  0  0  0  0  0  0
  -24.5580  -42.7022   -7.1346 C   0  0  0  0  0  0  0  0  0  0  0  0
  -23.8792  -43.0687   -8.4166 C   0  0  0  0  0  0  0  0  0  0  0  0
  -22.8410  -43.9967   -8.3050 O   0  0  0  0  0  0  0  0  0  0  0  0
  -21.4737  -43.8987   -8.0733 C   0  0  0  0  0  0  0  0  0  0  0  0
  -21.1230  -44.5888   -6.8970 C   0  0  0  0  0  0  0  0  0  0  0  0
  -19.8397  -44.6493   -6.4340 C   0  0  0  0  0  0  0  0  0  0  0  0
  -19.3890  -45.5014   -4.9772 Cl  0  0  0  0  0  0  0  0  0  0  0  0
  -18.9067  -43.9918   -7.1902 C   0  0  0  0  0  0  0  0  0  0  0  0
  -19.2170  -43.2841   -8.3828 C   0  0  0  0  0  0  0  0  0  0  0  0
  -20.5180  -43.2422   -8.8268 C   0  0  0  0  0  0  0  0  0  0  0  0
  -17.9851  -42.6671   -8.9168 C   0  0  0  0  0  0  0  0  0  0  0  0
  -16.9754  -43.5089   -8.9394 O   0  0  0  0  0  0  0  0  0  0  0  0
  -17.7417  -41.3496   -9.3881 N   0  0  0  0  0  0  0  0  0  0  0  0
  1  2  1  0
  2  3  1  0
  2  4  1  0
  2  5  1  0
  5  6  1  0
  6  7  2  0
  7  8  1  0
  8  9  2  0
  9 10  1  0
  8 11  1  0
 11 12  1  0
 11 13  1  0
 11 14  1  0
 14 15  1  0
 15 16  1  0
 16 17  1  6
 16 18  1  0
 18 19  1  1
 19 20  1  0
 20 21  2  0
 21 22  1  0
 22 23  2  0
 23 24  1  0
 24 25  2  0
 22 26  1  0
 26 27  1  0
 27 28  1  0
 28 29  1  0
 29 30  1  0
 30 31  1  0
 31 32  1  0
 32 33  2  0
 33 34  1  0
 34 35  1  0
 34 36  2  0
 36 37  1  0
 37 38  2  0
 37 39  1  0
 39 40  2  0
 39 41  1  0
 10  6  1  0
 25 20  1  0
 38 32  1  0
 41 18  1  0
M  END
$$$$
