
     RDKit          3D

 41 44  0  0  0  0  0  0  0  0999 V2000
  -11.3850  -34.5896  -12.9265 C   0  0  0  0  0  0  0  0  0  0  0  0
  -12.4407  -35.4220  -12.2187 C   0  0  0  0  0  0  0  0  0  0  0  0
  -12.3676  -35.0487  -10.7471 C   0  0  0  0  0  0  0  0  0  0  0  0
  -13.7766  -35.0354  -12.8117 C   0  0  0  0  0  0  0  0  0  0  0  0
  -12.1081  -36.8670  -12.4447 C   0  0  0  0  0  0  0  0  0  0  0  0
  -13.0993  -37.7883  -11.8625 C   0  0  0  0  0  0  0  0  0  0  0  0
  -12.9139  -38.4597  -10.6399 C   0  0  0  0  0  0  0  0  0  0  0  0
  -14.0159  -39.2258  -10.3992 C   0  0  0  0  0  0  0  0  0  0  0  0
  -14.8303  -39.0197  -11.4414 N   0  0  0  0  0  0  0  0  0  0  0  0
  -14.2659  -38.1755  -12.2775 O   0  0  0  0  0  0  0  0  0  0  0  0
  -14.3525  -40.1375   -9.2429 C   0  0  0  0  0  0  0  0  0  0  0  0
  -13.7671  -41.5101   -9.5800 C   0  0  0  0  0  0  0  0  0  0  0  0
  -13.6396  -39.6159   -8.0346 C   0  0  0  0  0  0  0  0  0  0  0  0
  -15.7685  -40.1886   -9.1800 N   0  0  0  0  0  0  0  0  0  0  0  0
  -16.5149  -40.6250  -10.2930 C   0  0  0  0  0  0  0  0  0  0  0  0
  -17.8547  -40.0125  -10.3677 C   0  0  1  0  0  0  0  0  0  0  0  0
  -18.5330  -40.2595  -11.5551 O   0  0  0  0  0  0  0  0  0  0  0  0
  -18.7457  -40.3801   -9.1637 C   0  0  2  0  0  0  0  0  0  0  0  0
  -19.9444  -39.5310   -9.0193 C   0  0  0  0  0  0  0  0  0  0  0  0
  -21.2616  -40.1745   -9.3547 C   0  0  0  0  0  0  0  0  0  0  0  0
  -21.8710  -41.2833   -8.8296 C   0  0  0  0  0  0  0  0  0  0  0  0
  -23.1258  -41.6364   -9.3090 C   0  0  0  0  0  0  0  0  0  0  0  0
  -23.7454  -40.8680  -10.3137 C   0  0  0  0  0  0  0  0  0  0  0  0
  -23.1601  -39.7551  -10.8588 C   0  0  0  0  0  0  0  0  0  0  0  0
  -21.9303  -39.4347  -10.3645 C   0  0  0  0  0  0  0  0  0  0  0  0
  -23.9287  -42.6981   -8.9342 O   0  0  0  0  0  0  0  0  0  0  0  0
  -24.5296  -43.1306   -7.7534 C   0  0  0  0  0  0  0  0  0  0  0  0
  -24.2631  -42.2612   -6.5520 C   0  0  0  0  0  0  0  0  0  0  0  0
  -24.2221  -43.1289   -5.3357 C   0  0  0  0  0  0  0  0  0  0  0  0
  -22.8164  -43.5804   -5.0934 C   0  0  0  0  0  0  0  0  0  0  0  0
  -22.0082  -42.6840   -4.3899 O   0  0  0  0  0  0  0  0  0  0  0  0
  -21.1822  -41.6284   -4.7587 C   0  0  0  0  0  0  0  0  0  0  0  0
  -21.6224  -40.4288   -4.1671 C   0  0  0  0  0  0  0  0  0  0  0  0
  -20.9911  -39.2344   -4.3671 C   0  0  0  0  0  0  0  0  0  0  0  0
  -21.5248  -37.7385   -3.6401 Cl  0  0  0  0  0  0  0  0  0  0  0  0
  -19.8942  -39.2753   -5.1855 C   0  0  0  0  0  0  0  0  0  0  0  0
  -19.4161  -40.4629   -5.8022 C   0  0  0  0  0  0  0  0  0  0  0  0
  -20.0705  -41.6521   -5.5808 C   0  0  0  0  0  0  0  0  0  0  0  0
  -18.2454  -40.1370   -6.6429 C   0  0  0  0  0  0  0  0  0  0  0  0
  -17.3797  -39.3709   -6.0166 O   0  0  0  0  0  0  0  0  0  0  0  0
  -17.9326  -40.5135   -7.9762 N   0  0  0  0  0  0  0  0  0  0  0  0
  1  2  1  0
  2  3  1  0
  2  4  1  0
  2  5  1  0
  5  6  1  0
  6  7  2  0
  7  8  1  0
  8  9  2  0
  9 10  1  0
  8 11  1  0
 11 12  1  0
 11 13  1  0
 11 14  1  0
 14 15  1  0
 15 16  1  0
 16 17  1  6
 16 18  1  0
 18 19  1  1
 19 20  1  0
 20 21  2  0
 21 22  1  0
 22 23  2  0
 23 24  1  0
 24 25  2  0
 22 26  1  0
 26 27  1  0
 27 28  1  0
 28 29  1  0
 29 30  1  0
 30 31  1  0
 31 32  1  0
 32 33  2  0
 33 34  1  0
 34 35  1  0
 34 36  2  0
 36 37  1  0
 37 38  2  0
 37 39  1  0
 39 40  2  0
 39 41  1  0
 10  6  1  0
 25 20  1  0
 38 32  1  0
 41 18  1  0
M  END
$$$$
