
     RDKit          3D

 41 44  0  0  0  0  0  0  0  0999 V2000
  -10.8143  -35.2676  -10.9661 C   0  0  0  0  0  0  0  0  0  0  0  0
  -10.8127  -35.5756  -12.4539 C   0  0  0  0  0  0  0  0  0  0  0  0
  -10.4013  -34.2931  -13.1583 C   0  0  0  0  0  0  0  0  0  0  0  0
   -9.7923  -36.6689  -12.6759 C   0  0  0  0  0  0  0  0  0  0  0  0
  -12.2007  -35.9993  -12.8326 C   0  0  0  0  0  0  0  0  0  0  0  0
  -12.6081  -37.2723  -12.2127 C   0  0  0  0  0  0  0  0  0  0  0  0
  -13.6351  -37.3788  -11.2568 C   0  0  0  0  0  0  0  0  0  0  0  0
  -13.7512  -38.6884  -10.8955 C   0  0  0  0  0  0  0  0  0  0  0  0
  -12.8259  -39.3408  -11.6097 N   0  0  0  0  0  0  0  0  0  0  0  0
  -12.1759  -38.4854  -12.3687 O   0  0  0  0  0  0  0  0  0  0  0  0
  -14.6858  -39.3658   -9.9211 C   0  0  0  0  0  0  0  0  0  0  0  0
  -14.1816  -40.8001   -9.7524 C   0  0  0  0  0  0  0  0  0  0  0  0
  -14.5462  -38.6695   -8.6035 C   0  0  0  0  0  0  0  0  0  0  0  0
  -15.9689  -39.3441  -10.5252 N   0  0  0  0  0  0  0  0  0  0  0  0
  -16.9622  -40.2577  -10.1190 C   0  0  0  0  0  0  0  0  0  0  0  0
  -18.2684  -39.6195   -9.8691 C   0  0  1  0  0  0  0  0  0  0  0  0
  -19.0756  -39.5051  -10.9943 O   0  0  0  0  0  0  0  0  0  0  0  0
  -19.0510  -40.2931   -8.7235 C   0  0  2  0  0  0  0  0  0  0  0  0
  -19.5525  -39.3532   -7.7018 C   0  0  0  0  0  0  0  0  0  0  0  0
  -21.0362  -39.1077   -7.6926 C   0  0  0  0  0  0  0  0  0  0  0  0
  -22.0825  -39.9783   -7.5376 C   0  0  0  0  0  0  0  0  0  0  0  0
  -23.3730  -39.4651   -7.5322 C   0  0  0  0  0  0  0  0  0  0  0  0
  -23.5891  -38.0820   -7.6872 C   0  0  0  0  0  0  0  0  0  0  0  0
  -22.5630  -37.1874   -7.8454 C   0  0  0  0  0  0  0  0  0  0  0  0
  -21.3092  -37.7233   -7.8437 C   0  0  0  0  0  0  0  0  0  0  0  0
  -24.5722  -40.1387   -7.3884 O   0  0  0  0  0  0  0  0  0  0  0  0
  -25.1544  -40.9495   -6.4159 C   0  0  0  0  0  0  0  0  0  0  0  0
  -24.3012  -41.1888   -5.1972 C   0  0  0  0  0  0  0  0  0  0  0  0
  -24.5897  -42.5594   -4.6753 C   0  0  0  0  0  0  0  0  0  0  0  0
  -23.6487  -43.5392   -5.3023 C   0  0  0  0  0  0  0  0  0  0  0  0
  -22.3980  -43.6502   -4.6900 O   0  0  0  0  0  0  0  0  0  0  0  0
  -21.1824  -42.9930   -4.8419 C   0  0  0  0  0  0  0  0  0  0  0  0
  -20.8080  -42.3658   -3.6381 C   0  0  0  0  0  0  0  0  0  0  0  0
  -19.6548  -41.6454   -3.5111 C   0  0  0  0  0  0  0  0  0  0  0  0
  -19.1766  -40.8621   -2.0248 Cl  0  0  0  0  0  0  0  0  0  0  0  0
  -18.8781  -41.5696   -4.6361 C   0  0  0  0  0  0  0  0  0  0  0  0
  -19.2179  -42.1870   -5.8702 C   0  0  0  0  0  0  0  0  0  0  0  0
  -20.3846  -42.9086   -5.9682 C   0  0  0  0  0  0  0  0  0  0  0  0
  -18.1811  -41.8702   -6.8742 C   0  0  0  0  0  0  0  0  0  0  0  0
  -16.9646  -42.0449   -6.4068 O   0  0  0  0  0  0  0  0  0  0  0  0
  -18.3019  -41.4202   -8.2159 N   0  0  0  0  0  0  0  0  0  0  0  0
  1  2  1  0
  2  3  1  0
  2  4  1  0
  2  5  1  0
  5  6  1  0
  6  7  2  0
  7  8  1  0
  8  9  2  0
  9 10  1  0
  8 11  1  0
 11 12  1  0
 11 13  1  0
 11 14  1  0
 14 15  1  0
 15 16  1  0
 16 17  1  6
 16 18  1  0
 18 19  1  1
 19 20  1  0
 20 21  2  0
 21 22  1  0
 22 23  2  0
 23 24  1  0
 24 25  2  0
 22 26  1  0
 26 27  1  0
 27 28  1  0
 28 29  1  0
 29 30  1  0
 30 31  1  0
 31 32  1  0
 32 33  2  0
 33 34  1  0
 34 35  1  0
 34 36  2  0
 36 37  1  0
 37 38  2  0
 37 39  1  0
 39 40  2  0
 39 41  1  0
 10  6  1  0
 25 20  1  0
 38 32  1  0
 41 18  1  0
M  END
$$$$
