
     RDKit          3D

 41 44  0  0  0  0  0  0  0  0999 V2000
  -10.7471  -38.7475  -14.1144 C   0  0  0  0  0  0  0  0  0  0  0  0
  -11.5461  -38.5503  -15.3915 C   0  0  0  0  0  0  0  0  0  0  0  0
  -11.4403  -37.0750  -15.7417 C   0  0  0  0  0  0  0  0  0  0  0  0
  -10.8974  -39.4088  -16.4535 C   0  0  0  0  0  0  0  0  0  0  0  0
  -12.9621  -38.9565  -15.1098 C   0  0  0  0  0  0  0  0  0  0  0  0
  -13.1962  -39.3031  -13.6971 C   0  0  0  0  0  0  0  0  0  0  0  0
  -13.7585  -38.4159  -12.7610 C   0  0  0  0  0  0  0  0  0  0  0  0
  -13.8339  -39.0525  -11.5575 C   0  0  0  0  0  0  0  0  0  0  0  0
  -13.3338  -40.2763  -11.7674 N   0  0  0  0  0  0  0  0  0  0  0  0
  -12.9708  -40.3906  -13.0266 O   0  0  0  0  0  0  0  0  0  0  0  0
  -14.3543  -38.5802  -10.2205 C   0  0  0  0  0  0  0  0  0  0  0  0
  -13.4932  -39.2535   -9.1504 C   0  0  0  0  0  0  0  0  0  0  0  0
  -14.1194  -37.1041  -10.1406 C   0  0  0  0  0  0  0  0  0  0  0  0
  -15.7003  -39.0206  -10.1432 N   0  0  0  0  0  0  0  0  0  0  0  0
  -16.7270  -38.1155   -9.8071 C   0  0  0  0  0  0  0  0  0  0  0  0
  -17.1931  -38.2597   -8.4150 C   0  0  1  0  0  0  0  0  0  0  0  0
  -17.7749  -37.1152   -7.8835 O   0  0  0  0  0  0  0  0  0  0  0  0
  -18.1323  -39.4679   -8.2233 C   0  0  2  0  0  0  0  0  0  0  0  0
  -18.6037  -39.6509   -6.8366 C   0  0  0  0  0  0  0  0  0  0  0  0
  -20.0471  -39.3202   -6.5740 C   0  0  0  0  0  0  0  0  0  0  0  0
  -21.1926  -39.8277   -7.1279 C   0  0  0  0  0  0  0  0  0  0  0  0
  -22.4145  -39.3591   -6.6630 C   0  0  0  0  0  0  0  0  0  0  0  0
  -22.4627  -38.3827   -5.6491 C   0  0  0  0  0  0  0  0  0  0  0  0
  -21.3342  -37.8557   -5.0771 C   0  0  0  0  0  0  0  0  0  0  0  0
  -20.1517  -38.3387   -5.5542 C   0  0  0  0  0  0  0  0  0  0  0  0
  -23.6887  -39.7204   -7.0608 O   0  0  0  0  0  0  0  0  0  0  0  0
  -24.4311  -40.8994   -7.0914 C   0  0  0  0  0  0  0  0  0  0  0  0
  -23.7069  -42.1172   -6.5787 C   0  0  0  0  0  0  0  0  0  0  0  0
  -24.1858  -43.3116   -7.3393 C   0  0  0  0  0  0  0  0  0  0  0  0
  -23.3139  -43.5216   -8.5369 C   0  0  0  0  0  0  0  0  0  0  0  0
  -22.1345  -44.2340   -8.3064 O   0  0  0  0  0  0  0  0  0  0  0  0
  -20.8453  -43.8781   -7.9272 C   0  0  0  0  0  0  0  0  0  0  0  0
  -20.4979  -44.5051   -6.7152 C   0  0  0  0  0  0  0  0  0  0  0  0
  -19.2850  -44.3243   -6.1141 C   0  0  0  0  0  0  0  0  0  0  0  0
  -18.8393  -45.0951   -4.6113 Cl  0  0  0  0  0  0  0  0  0  0  0  0
  -18.4198  -43.4885   -6.7681 C   0  0  0  0  0  0  0  0  0  0  0  0
  -18.7295  -42.8362   -7.9921 C   0  0  0  0  0  0  0  0  0  0  0  0
  -19.9581  -43.0390   -8.5760 C   0  0  0  0  0  0  0  0  0  0  0  0
  -17.5892  -41.9859   -8.3921 C   0  0  0  0  0  0  0  0  0  0  0  0
  -16.4397  -42.6172   -8.2986 O   0  0  0  0  0  0  0  0  0  0  0  0
  -17.5548  -40.6394   -8.8425 N   0  0  0  0  0  0  0  0  0  0  0  0
  1  2  1  0
  2  3  1  0
  2  4  1  0
  2  5  1  0
  5  6  1  0
  6  7  2  0
  7  8  1  0
  8  9  2  0
  9 10  1  0
  8 11  1  0
 11 12  1  0
 11 13  1  0
 11 14  1  0
 14 15  1  0
 15 16  1  0
 16 17  1  6
 16 18  1  0
 18 19  1  1
 19 20  1  0
 20 21  2  0
 21 22  1  0
 22 23  2  0
 23 24  1  0
 24 25  2  0
 22 26  1  0
 26 27  1  0
 27 28  1  0
 28 29  1  0
 29 30  1  0
 30 31  1  0
 31 32  1  0
 32 33  2  0
 33 34  1  0
 34 35  1  0
 34 36  2  0
 36 37  1  0
 37 38  2  0
 37 39  1  0
 39 40  2  0
 39 41  1  0
 10  6  1  0
 25 20  1  0
 38 32  1  0
 41 18  1  0
M  END
$$$$
