
     RDKit          3D

 35 37  0  0  0  0  0  0  0  0999 V2000
  -11.0267  -35.5572  -12.2620 C   0  0  0  0  0  0  0  0  0  0  0  0
  -12.4410  -35.7137  -11.7682 C   0  0  0  0  0  0  0  0  0  0  0  0
  -13.3524  -34.7826  -12.5740 C   0  0  0  0  0  0  0  0  0  0  0  0
  -12.9413  -37.1089  -11.8808 C   0  0  0  0  0  0  0  0  0  0  0  0
  -13.2262  -37.6576  -13.1143 C   0  0  0  0  0  0  0  0  0  0  0  0
  -13.7007  -38.9686  -13.2198 C   0  0  0  0  0  0  0  0  0  0  0  0
  -13.8900  -39.7280  -12.1013 C   0  0  0  0  0  0  0  0  0  0  0  0
  -13.6046  -39.1783  -10.8671 C   0  0  0  0  0  0  0  0  0  0  0  0
  -13.8186  -39.9983   -9.6600 C   0  0  0  0  0  0  0  0  0  0  0  0
  -14.7327  -39.3160   -8.7554 N   0  0  0  0  0  0  0  0  0  0  0  0
  -16.0925  -39.3887   -9.1828 C   0  0  0  0  0  0  0  0  0  0  0  0
  -17.0118  -38.5192   -8.3979 C   0  0  1  0  0  0  0  0  0  0  0  0
  -17.8058  -37.7358   -9.1999 O   0  0  0  0  0  0  0  0  0  0  0  0
  -17.7901  -39.2496   -7.3091 C   0  0  2  0  0  0  0  0  0  0  0  0
  -18.2658  -38.2933   -6.2851 C   0  0  0  0  0  0  0  0  0  0  0  0
  -19.7417  -38.1245   -6.1310 C   0  0  2  0  0  0  0  0  0  0  0  0
  -20.0504  -38.0167   -4.6530 C   0  0  0  0  0  0  0  0  0  0  0  0
  -20.4760  -39.2447   -6.7963 C   0  0  0  0  0  0  0  0  0  0  0  0
  -21.9603  -39.2203   -6.5557 C   0  0  0  0  0  0  0  0  0  0  0  0
  -22.7067  -40.0475   -7.3002 O   0  0  0  0  0  0  0  0  0  0  0  0
  -22.5100  -41.3790   -7.2963 C   0  0  0  0  0  0  0  0  0  0  0  0
  -22.2378  -42.0009   -8.6453 C   0  0  0  0  0  0  0  0  0  0  0  0
  -22.2470  -43.4863   -8.4600 C   0  0  0  0  0  0  0  0  0  0  0  0
  -21.0035  -44.0702   -8.3255 O   0  0  0  0  0  0  0  0  0  0  0  0
  -19.6935  -43.5791   -8.4582 C   0  0  0  0  0  0  0  0  0  0  0  0
  -18.9888  -42.7592   -7.5967 C   0  0  0  0  0  0  0  0  0  0  0  0
  -17.7155  -42.4088   -7.9549 C   0  0  0  0  0  0  0  0  0  0  0  0
  -17.2006  -42.9134   -9.1800 C   0  0  0  0  0  0  0  0  0  0  0  0
  -17.8999  -43.7297  -10.0327 C   0  0  0  0  0  0  0  0  0  0  0  0
  -17.2984  -44.2285  -11.2979 C   0  0  0  0  0  0  0  0  0  0  0  0
  -19.1233  -44.0278   -9.6325 N   0  0  0  0  0  0  0  0  0  0  0  0
  -16.7191  -41.5458   -7.3219 C   0  0  0  0  0  0  0  0  0  0  0  0
  -15.4681  -41.9194   -7.2301 O   0  0  0  0  0  0  0  0  0  0  0  0
  -16.8753  -40.2401   -6.7306 N   0  0  0  0  0  0  0  0  0  0  0  0
  -13.1396  -37.8946  -10.7579 C   0  0  0  0  0  0  0  0  0  0  0  0
  1  2  1  0
  2  3  1  0
  2  4  1  0
  4  5  2  0
  5  6  1  0
  6  7  2  0
  7  8  1  0
  8  9  1  0
  9 10  1  0
 10 11  1  0
 11 12  1  0
 12 13  1  6
 12 14  1  0
 14 15  1  1
 15 16  1  0
 16 17  1  1
 16 18  1  0
 18 19  1  0
 19 20  1  0
 20 21  1  0
 21 22  1  0
 22 23  1  0
 23 24  1  0
 24 25  1  0
 25 26  1  0
 26 27  2  0
 27 28  1  0
 28 29  2  0
 29 30  1  0
 29 31  1  0
 27 32  1  0
 32 33  2  0
 32 34  1  0
  8 35  2  0
 31 25  2  0
 34 14  1  0
 35  4  1  0
M  END
$$$$
