
     RDKit          3D

 35 37  0  0  0  0  0  0  0  0999 V2000
  -15.9594  -32.9657  -11.0219 C   0  0  0  0  0  0  0  0  0  0  0  0
  -15.2057  -34.1081  -11.6509 C   0  0  0  0  0  0  0  0  0  0  0  0
  -13.7683  -34.1040  -11.1209 C   0  0  0  0  0  0  0  0  0  0  0  0
  -15.8265  -35.4305  -11.3766 C   0  0  0  0  0  0  0  0  0  0  0  0
  -16.5462  -36.0869  -12.3539 C   0  0  0  0  0  0  0  0  0  0  0  0
  -17.1336  -37.3290  -12.0945 C   0  0  0  0  0  0  0  0  0  0  0  0
  -17.0038  -37.9131  -10.8675 C   0  0  0  0  0  0  0  0  0  0  0  0
  -16.2832  -37.2557   -9.8900 C   0  0  0  0  0  0  0  0  0  0  0  0
  -16.1524  -37.8852   -8.5627 C   0  0  0  0  0  0  0  0  0  0  0  0
  -17.4346  -37.8560   -7.8739 N   0  0  0  0  0  0  0  0  0  0  0  0
  -17.4840  -38.7430   -6.7569 C   0  0  0  0  0  0  0  0  0  0  0  0
  -17.3970  -40.1812   -7.1327 C   0  0  1  0  0  0  0  0  0  0  0  0
  -17.0878  -40.9855   -6.0628 O   0  0  0  0  0  0  0  0  0  0  0  0
  -18.5815  -40.6903   -7.9466 C   0  0  2  0  0  0  0  0  0  0  0  0
  -18.1125  -41.3300   -9.1956 C   0  0  0  0  0  0  0  0  0  0  0  0
  -18.3762  -42.7903   -9.3644 C   0  0  2  0  0  0  0  0  0  0  0  0
  -18.7785  -43.0317  -10.8036 C   0  0  0  0  0  0  0  0  0  0  0  0
  -19.4072  -43.2594   -8.3878 C   0  0  0  0  0  0  0  0  0  0  0  0
  -19.8312  -44.6870   -8.5970 C   0  0  0  0  0  0  0  0  0  0  0  0
  -20.5719  -45.2452   -7.6299 O   0  0  0  0  0  0  0  0  0  0  0  0
  -21.7529  -44.7236   -7.2493 C   0  0  0  0  0  0  0  0  0  0  0  0
  -21.8717  -44.3823   -5.7831 C   0  0  0  0  0  0  0  0  0  0  0  0
  -23.2992  -44.0112   -5.5273 C   0  0  0  0  0  0  0  0  0  0  0  0
  -23.5607  -42.6559   -5.5093 O   0  0  0  0  0  0  0  0  0  0  0  0
  -22.7359  -41.5190   -5.5501 C   0  0  0  0  0  0  0  0  0  0  0  0
  -22.0460  -40.9927   -6.6262 C   0  0  0  0  0  0  0  0  0  0  0  0
  -21.2958  -39.8689   -6.4098 C   0  0  0  0  0  0  0  0  0  0  0  0
  -21.2799  -39.3151   -5.1007 C   0  0  0  0  0  0  0  0  0  0  0  0
  -21.9676  -39.8365   -4.0342 C   0  0  0  0  0  0  0  0  0  0  0  0
  -21.9129  -39.2027   -2.6900 C   0  0  0  0  0  0  0  0  0  0  0  0
  -22.6689  -40.9227   -4.3070 N   0  0  0  0  0  0  0  0  0  0  0  0
  -20.4264  -39.0843   -7.2854 C   0  0  0  0  0  0  0  0  0  0  0  0
  -20.4796  -37.7766   -7.2879 O   0  0  0  0  0  0  0  0  0  0  0  0
  -19.4295  -39.5266   -8.2285 N   0  0  0  0  0  0  0  0  0  0  0  0
  -15.7059  -36.0388  -10.1386 C   0  0  0  0  0  0  0  0  0  0  0  0
  1  2  1  0
  2  3  1  0
  2  4  1  0
  4  5  2  0
  5  6  1  0
  6  7  2  0
  7  8  1  0
  8  9  1  0
  9 10  1  0
 10 11  1  0
 11 12  1  0
 12 13  1  1
 12 14  1  0
 14 15  1  6
 15 16  1  0
 16 17  1  6
 16 18  1  0
 18 19  1  0
 19 20  1  0
 20 21  1  0
 21 22  1  0
 22 23  1  0
 23 24  1  0
 24 25  1  0
 25 26  1  0
 26 27  2  0
 27 28  1  0
 28 29  2  0
 29 30  1  0
 29 31  1  0
 27 32  1  0
 32 33  2  0
 32 34  1  0
  8 35  2  0
 31 25  2  0
 34 14  1  0
 35  4  1  0
M  END
$$$$
