
     RDKit          3D

 35 37  0  0  0  0  0  0  0  0999 V2000
  -23.4967  -39.6006   -9.9562 C   0  0  0  0  0  0  0  0  0  0  0  0
  -23.3376  -38.5382  -11.0121 C   0  0  0  0  0  0  0  0  0  0  0  0
  -23.6327  -37.1711  -10.3869 C   0  0  0  0  0  0  0  0  0  0  0  0
  -21.9784  -38.5201  -11.6135 C   0  0  0  0  0  0  0  0  0  0  0  0
  -21.7981  -38.7892  -12.9547 C   0  0  0  0  0  0  0  0  0  0  0  0
  -20.5191  -38.7761  -13.5195 C   0  0  0  0  0  0  0  0  0  0  0  0
  -19.4262  -38.4963  -12.7509 C   0  0  0  0  0  0  0  0  0  0  0  0
  -19.6073  -38.2270  -11.4087 C   0  0  0  0  0  0  0  0  0  0  0  0
  -18.4236  -37.9338  -10.5791 C   0  0  0  0  0  0  0  0  0  0  0  0
  -17.6028  -39.1292  -10.4503 N   0  0  0  0  0  0  0  0  0  0  0  0
  -18.0083  -39.9658   -9.3674 C   0  0  0  0  0  0  0  0  0  0  0  0
  -17.3372  -39.6407   -8.0786 C   0  0  1  0  0  0  0  0  0  0  0  0
  -17.7329  -38.4264   -7.5724 O   0  0  0  0  0  0  0  0  0  0  0  0
  -17.3770  -40.7644   -7.0489 C   0  0  2  0  0  0  0  0  0  0  0  0
  -16.5630  -40.4090   -5.8655 C   0  0  0  0  0  0  0  0  0  0  0  0
  -17.2735  -40.2505   -4.5614 C   0  0  2  0  0  0  0  0  0  0  0  0
  -16.4118  -40.8653   -3.4793 C   0  0  0  0  0  0  0  0  0  0  0  0
  -18.6408  -40.8530   -4.6256 C   0  0  0  0  0  0  0  0  0  0  0  0
  -19.3590  -40.8620   -3.3044 C   0  0  0  0  0  0  0  0  0  0  0  0
  -20.6629  -41.1702   -3.3276 O   0  0  0  0  0  0  0  0  0  0  0  0
  -21.1073  -42.3406   -3.8220 C   0  0  0  0  0  0  0  0  0  0  0  0
  -22.1217  -42.2337   -4.9356 C   0  0  0  0  0  0  0  0  0  0  0  0
  -22.6323  -43.6147   -5.2059 C   0  0  0  0  0  0  0  0  0  0  0  0
  -22.0421  -44.2618   -6.2728 O   0  0  0  0  0  0  0  0  0  0  0  0
  -21.1367  -43.8477   -7.2645 C   0  0  0  0  0  0  0  0  0  0  0  0
  -19.7817  -43.6008   -7.1460 C   0  0  0  0  0  0  0  0  0  0  0  0
  -19.1108  -43.1958   -8.2677 C   0  0  0  0  0  0  0  0  0  0  0  0
  -19.8457  -43.0623   -9.4771 C   0  0  0  0  0  0  0  0  0  0  0  0
  -21.1899  -43.3107   -9.5943 C   0  0  0  0  0  0  0  0  0  0  0  0
  -21.8977  -43.1575  -10.8932 C   0  0  0  0  0  0  0  0  0  0  0  0
  -21.7803  -43.6939   -8.4760 N   0  0  0  0  0  0  0  0  0  0  0  0
  -17.7171  -42.8165   -8.4957 C   0  0  0  0  0  0  0  0  0  0  0  0
  -17.0621  -43.2604   -9.5382 O   0  0  0  0  0  0  0  0  0  0  0  0
  -16.8561  -41.9636   -7.7145 N   0  0  0  0  0  0  0  0  0  0  0  0
  -20.8579  -38.2385  -10.8502 C   0  0  0  0  0  0  0  0  0  0  0  0
  1  2  1  0
  2  3  1  0
  2  4  1  0
  4  5  2  0
  5  6  1  0
  6  7  2  0
  7  8  1  0
  8  9  1  0
  9 10  1  0
 10 11  1  0
 11 12  1  0
 12 13  1  1
 12 14  1  0
 14 15  1  1
 15 16  1  0
 16 17  1  1
 16 18  1  0
 18 19  1  0
 19 20  1  0
 20 21  1  0
 21 22  1  0
 22 23  1  0
 23 24  1  0
 24 25  1  0
 25 26  1  0
 26 27  2  0
 27 28  1  0
 28 29  2  0
 29 30  1  0
 29 31  1  0
 27 32  1  0
 32 33  2  0
 32 34  1  0
  8 35  2  0
 31 25  2  0
 34 14  1  0
 35  4  1  0
M  END
$$$$
