
     RDKit          3D

 35 37  0  0  0  0  0  0  0  0999 V2000
  -23.4642  -39.4747   -9.3066 C   0  0  0  0  0  0  0  0  0  0  0  0
  -23.1540  -38.4496   -8.2475 C   0  0  0  0  0  0  0  0  0  0  0  0
  -24.4709  -37.9075   -7.6828 C   0  0  0  0  0  0  0  0  0  0  0  0
  -22.3317  -38.9968   -7.1368 C   0  0  0  0  0  0  0  0  0  0  0  0
  -22.9299  -39.5123   -6.0053 C   0  0  0  0  0  0  0  0  0  0  0  0
  -22.1561  -40.0233   -4.9588 C   0  0  0  0  0  0  0  0  0  0  0  0
  -20.7934  -40.0201   -5.0404 C   0  0  0  0  0  0  0  0  0  0  0  0
  -20.1954  -39.5041   -6.1731 C   0  0  0  0  0  0  0  0  0  0  0  0
  -18.7227  -39.4939   -6.2543 C   0  0  0  0  0  0  0  0  0  0  0  0
  -18.2314  -40.8457   -6.4791 N   0  0  0  0  0  0  0  0  0  0  0  0
  -17.2708  -40.9182   -7.5321 C   0  0  0  0  0  0  0  0  0  0  0  0
  -16.4468  -39.6861   -7.6739 C   0  0  1  0  0  0  0  0  0  0  0  0
  -15.3653  -39.6776   -6.8268 O   0  0  0  0  0  0  0  0  0  0  0  0
  -16.0876  -39.3330   -9.1130 C   0  0  2  0  0  0  0  0  0  0  0  0
  -16.0345  -37.8644   -9.2860 C   0  0  0  0  0  0  0  0  0  0  0  0
  -14.7155  -37.2581   -9.6372 C   0  0  2  0  0  0  0  0  0  0  0  0
  -14.9567  -36.1692  -10.6607 C   0  0  0  0  0  0  0  0  0  0  0  0
  -13.7618  -38.3048  -10.1183 C   0  0  0  0  0  0  0  0  0  0  0  0
  -12.4619  -37.7477  -10.6294 C   0  0  0  0  0  0  0  0  0  0  0  0
  -11.4767  -38.6265  -10.8594 O   0  0  0  0  0  0  0  0  0  0  0  0
  -11.6251  -39.6506  -11.7201 C   0  0  0  0  0  0  0  0  0  0  0  0
  -11.3816  -41.0253  -11.1445 C   0  0  0  0  0  0  0  0  0  0  0  0
  -11.3981  -41.9943  -12.2854 C   0  0  0  0  0  0  0  0  0  0  0  0
  -12.5914  -42.6624  -12.4728 O   0  0  0  0  0  0  0  0  0  0  0  0
  -13.7811  -42.7287  -11.7279 C   0  0  0  0  0  0  0  0  0  0  0  0
  -14.7688  -41.7708  -11.5939 C   0  0  0  0  0  0  0  0  0  0  0  0
  -15.8402  -42.0722  -10.7978 C   0  0  0  0  0  0  0  0  0  0  0  0
  -15.8708  -43.3466  -10.1689 C   0  0  0  0  0  0  0  0  0  0  0  0
  -14.8914  -44.2977  -10.3052 C   0  0  0  0  0  0  0  0  0  0  0  0
  -14.9887  -45.6158   -9.6234 C   0  0  0  0  0  0  0  0  0  0  0  0
  -13.8830  -43.9447  -11.0826 N   0  0  0  0  0  0  0  0  0  0  0  0
  -17.0201  -41.3027  -10.4055 C   0  0  0  0  0  0  0  0  0  0  0  0
  -18.2108  -41.8456  -10.4185 O   0  0  0  0  0  0  0  0  0  0  0  0
  -17.1208  -39.9338   -9.9640 N   0  0  0  0  0  0  0  0  0  0  0  0
  -20.9484  -39.0022   -7.2011 C   0  0  0  0  0  0  0  0  0  0  0  0
  1  2  1  0
  2  3  1  0
  2  4  1  0
  4  5  2  0
  5  6  1  0
  6  7  2  0
  7  8  1  0
  8  9  1  0
  9 10  1  0
 10 11  1  0
 11 12  1  0
 12 13  1  1
 12 14  1  0
 14 15  1  1
 15 16  1  0
 16 17  1  6
 16 18  1  0
 18 19  1  0
 19 20  1  0
 20 21  1  0
 21 22  1  0
 22 23  1  0
 23 24  1  0
 24 25  1  0
 25 26  1  0
 26 27  2  0
 27 28  1  0
 28 29  2  0
 29 30  1  0
 29 31  1  0
 27 32  1  0
 32 33  2  0
 32 34  1  0
  8 35  2  0
 31 25  2  0
 34 14  1  0
 35  4  1  0
M  END
$$$$
