
     RDKit          3D

 35 37  0  0  0  0  0  0  0  0999 V2000
  -24.8542  -40.0380   -6.3064 C   0  0  0  0  0  0  0  0  0  0  0  0
  -23.5734  -40.4619   -5.6365 C   0  0  0  0  0  0  0  0  0  0  0  0
  -23.6621  -41.9534   -5.2981 C   0  0  0  0  0  0  0  0  0  0  0  0
  -22.3730  -40.2200   -6.4791 C   0  0  0  0  0  0  0  0  0  0  0  0
  -22.3039  -40.7150   -7.7652 C   0  0  0  0  0  0  0  0  0  0  0  0
  -21.1729  -40.4909   -8.5562 C   0  0  0  0  0  0  0  0  0  0  0  0
  -20.1170  -39.7770   -8.0673 C   0  0  0  0  0  0  0  0  0  0  0  0
  -20.1869  -39.2818   -6.7802 C   0  0  0  0  0  0  0  0  0  0  0  0
  -19.0407  -38.5187   -6.2518 C   0  0  0  0  0  0  0  0  0  0  0  0
  -17.8326  -39.3274   -6.3266 N   0  0  0  0  0  0  0  0  0  0  0  0
  -17.4980  -39.7016   -7.6626 C   0  0  0  0  0  0  0  0  0  0  0  0
  -16.1680  -39.2007   -8.1071 C   0  0  1  0  0  0  0  0  0  0  0  0
  -15.1446  -40.0482   -7.7584 O   0  0  0  0  0  0  0  0  0  0  0  0
  -16.1174  -38.7639   -9.5670 C   0  0  2  0  0  0  0  0  0  0  0  0
  -16.2239  -37.2916   -9.6690 C   0  0  0  0  0  0  0  0  0  0  0  0
  -15.0514  -36.5516  -10.2243 C   0  0  2  0  0  0  0  0  0  0  0  0
  -15.5732  -35.4542  -11.1269 C   0  0  0  0  0  0  0  0  0  0  0  0
  -14.1190  -37.4860  -10.9272 C   0  0  0  0  0  0  0  0  0  0  0  0
  -12.9910  -36.7910  -11.6386 C   0  0  0  0  0  0  0  0  0  0  0  0
  -11.9949  -37.5644  -12.0920 O   0  0  0  0  0  0  0  0  0  0  0  0
  -12.2141  -38.5663  -12.9636 C   0  0  0  0  0  0  0  0  0  0  0  0
  -11.7498  -39.9318  -12.5161 C   0  0  0  0  0  0  0  0  0  0  0  0
  -11.8973  -40.8564  -13.6841 C   0  0  0  0  0  0  0  0  0  0  0  0
  -13.0428  -41.6267  -13.6838 O   0  0  0  0  0  0  0  0  0  0  0  0
  -14.0612  -41.8313  -12.7373 C   0  0  0  0  0  0  0  0  0  0  0  0
  -15.0845  -40.9761  -12.3735 C   0  0  0  0  0  0  0  0  0  0  0  0
  -15.9572  -41.4054  -11.4109 C   0  0  0  0  0  0  0  0  0  0  0  0
  -15.7596  -42.6988  -10.8553 C   0  0  0  0  0  0  0  0  0  0  0  0
  -14.7454  -43.5480  -11.2196 C   0  0  0  0  0  0  0  0  0  0  0  0
  -14.5994  -44.8930  -10.6022 C   0  0  0  0  0  0  0  0  0  0  0  0
  -13.9353  -43.0739  -12.1494 N   0  0  0  0  0  0  0  0  0  0  0  0
  -17.1038  -40.7649  -10.7682 C   0  0  0  0  0  0  0  0  0  0  0  0
  -18.2248  -41.4166  -10.5906 O   0  0  0  0  0  0  0  0  0  0  0  0
  -17.2368  -39.4283  -10.2440 N   0  0  0  0  0  0  0  0  0  0  0  0
  -21.2922  -39.4984   -6.0009 C   0  0  0  0  0  0  0  0  0  0  0  0
  1  2  1  0
  2  3  1  0
  2  4  1  0
  4  5  2  0
  5  6  1  0
  6  7  2  0
  7  8  1  0
  8  9  1  0
  9 10  1  0
 10 11  1  0
 11 12  1  0
 12 13  1  6
 12 14  1  0
 14 15  1  1
 15 16  1  0
 16 17  1  6
 16 18  1  0
 18 19  1  0
 19 20  1  0
 20 21  1  0
 21 22  1  0
 22 23  1  0
 23 24  1  0
 24 25  1  0
 25 26  1  0
 26 27  2  0
 27 28  1  0
 28 29  2  0
 29 30  1  0
 29 31  1  0
 27 32  1  0
 32 33  2  0
 32 34  1  0
  8 35  2  0
 31 25  2  0
 34 14  1  0
 35  4  1  0
M  END
$$$$
