
     RDKit          3D

 35 37  0  0  0  0  0  0  0  0999 V2000
  -24.5169  -40.0432   -6.3083 C   0  0  0  0  0  0  0  0  0  0  0  0
  -23.6009  -40.6279   -5.2653 C   0  0  0  0  0  0  0  0  0  0  0  0
  -23.3692  -42.1084   -5.5840 C   0  0  0  0  0  0  0  0  0  0  0  0
  -22.2903  -39.9306   -5.1908 C   0  0  0  0  0  0  0  0  0  0  0  0
  -21.6698  -39.7254   -3.9756 C   0  0  0  0  0  0  0  0  0  0  0  0
  -20.4390  -39.0659   -3.9052 C   0  0  0  0  0  0  0  0  0  0  0  0
  -19.8304  -38.6137   -5.0404 C   0  0  0  0  0  0  0  0  0  0  0  0
  -20.4519  -38.8195   -6.2563 C   0  0  0  0  0  0  0  0  0  0  0  0
  -19.7961  -38.3218   -7.4800 C   0  0  0  0  0  0  0  0  0  0  0  0
  -18.3511  -38.3298   -7.3039 N   0  0  0  0  0  0  0  0  0  0  0  0
  -17.7140  -39.4014   -7.9987 C   0  0  0  0  0  0  0  0  0  0  0  0
  -16.2269  -39.3397   -7.9558 C   0  0  1  0  0  0  0  0  0  0  0  0
  -15.7082  -39.9488   -6.8390 O   0  0  0  0  0  0  0  0  0  0  0  0
  -15.5430  -39.7698   -9.2489 C   0  0  2  0  0  0  0  0  0  0  0  0
  -14.5491  -38.7571   -9.6685 C   0  0  0  0  0  0  0  0  0  0  0  0
  -13.1137  -39.1685   -9.6953 C   0  0  2  0  0  0  0  0  0  0  0  0
  -12.4749  -38.5647  -10.9276 C   0  0  0  0  0  0  0  0  0  0  0  0
  -12.9879  -40.6580   -9.6478 C   0  0  0  0  0  0  0  0  0  0  0  0
  -11.5774  -41.1503   -9.8203 C   0  0  0  0  0  0  0  0  0  0  0  0
  -11.3536  -42.4457   -9.5607 O   0  0  0  0  0  0  0  0  0  0  0  0
  -12.0047  -43.4243  -10.2166 C   0  0  0  0  0  0  0  0  0  0  0  0
  -12.7650  -44.3969   -9.3469 C   0  0  0  0  0  0  0  0  0  0  0  0
  -13.2443  -45.5045  -10.2325 C   0  0  0  0  0  0  0  0  0  0  0  0
  -14.5535  -45.3945  -10.6561 O   0  0  0  0  0  0  0  0  0  0  0  0
  -15.5990  -44.5164  -10.3235 C   0  0  0  0  0  0  0  0  0  0  0  0
  -15.7621  -43.1930  -10.6880 C   0  0  0  0  0  0  0  0  0  0  0  0
  -16.8731  -42.5408  -10.2265 C   0  0  0  0  0  0  0  0  0  0  0  0
  -17.7856  -43.2648   -9.4118 C   0  0  0  0  0  0  0  0  0  0  0  0
  -17.6242  -44.5793   -9.0534 C   0  0  0  0  0  0  0  0  0  0  0  0
  -18.6222  -45.2803   -8.2023 C   0  0  0  0  0  0  0  0  0  0  0  0
  -16.5310  -45.1506   -9.5269 N   0  0  0  0  0  0  0  0  0  0  0  0
  -17.3355  -41.1617  -10.3756 C   0  0  0  0  0  0  0  0  0  0  0  0
  -18.5860  -40.8996  -10.6594 O   0  0  0  0  0  0  0  0  0  0  0  0
  -16.6016  -39.9267  -10.2526 N   0  0  0  0  0  0  0  0  0  0  0  0
  -21.6577  -39.4648   -6.3310 C   0  0  0  0  0  0  0  0  0  0  0  0
  1  2  1  0
  2  3  1  0
  2  4  1  0
  4  5  2  0
  5  6  1  0
  6  7  2  0
  7  8  1  0
  8  9  1  0
  9 10  1  0
 10 11  1  0
 11 12  1  0
 12 13  1  1
 12 14  1  0
 14 15  1  6
 15 16  1  0
 16 17  1  6
 16 18  1  0
 18 19  1  0
 19 20  1  0
 20 21  1  0
 21 22  1  0
 22 23  1  0
 23 24  1  0
 24 25  1  0
 25 26  1  0
 26 27  2  0
 27 28  1  0
 28 29  2  0
 29 30  1  0
 29 31  1  0
 27 32  1  0
 32 33  2  0
 32 34  1  0
  8 35  2  0
 31 25  2  0
 34 14  1  0
 35  4  1  0
M  END
$$$$
