
     RDKit          3D

 35 37  0  0  0  0  0  0  0  0999 V2000
  -21.9635  -37.9296  -10.8356 C   0  0  0  0  0  0  0  0  0  0  0  0
  -21.2111  -37.5971   -9.5738 C   0  0  0  0  0  0  0  0  0  0  0  0
  -21.6496  -36.2124   -9.0866 C   0  0  0  0  0  0  0  0  0  0  0  0
  -21.4311  -38.5912   -8.4909 C   0  0  0  0  0  0  0  0  0  0  0  0
  -22.7087  -38.9586   -8.1210 C   0  0  0  0  0  0  0  0  0  0  0  0
  -22.9156  -39.8907   -7.0995 C   0  0  0  0  0  0  0  0  0  0  0  0
  -21.8543  -40.4531   -6.4507 C   0  0  0  0  0  0  0  0  0  0  0  0
  -20.5761  -40.0851   -6.8214 C   0  0  0  0  0  0  0  0  0  0  0  0
  -19.4318  -40.6878   -6.1124 C   0  0  0  0  0  0  0  0  0  0  0  0
  -18.2215  -39.9294   -6.3941 N   0  0  0  0  0  0  0  0  0  0  0  0
  -17.4666  -40.4725   -7.4767 C   0  0  0  0  0  0  0  0  0  0  0  0
  -16.2404  -39.6919   -7.7997 C   0  0  1  0  0  0  0  0  0  0  0  0
  -15.1012  -40.2723   -7.2971 O   0  0  0  0  0  0  0  0  0  0  0  0
  -16.1173  -39.2946   -9.2666 C   0  0  2  0  0  0  0  0  0  0  0  0
  -16.3472  -37.8419   -9.4287 C   0  0  0  0  0  0  0  0  0  0  0  0
  -15.2067  -37.0134   -9.9219 C   0  0  2  0  0  0  0  0  0  0  0  0
  -15.7539  -35.9952  -10.8992 C   0  0  0  0  0  0  0  0  0  0  0  0
  -14.1430  -37.8778  -10.5203 C   0  0  0  0  0  0  0  0  0  0  0  0
  -13.0306  -37.1026  -11.1709 C   0  0  0  0  0  0  0  0  0  0  0  0
  -11.9374  -37.7937  -11.5216 O   0  0  0  0  0  0  0  0  0  0  0  0
  -11.9983  -38.8362  -12.3707 C   0  0  0  0  0  0  0  0  0  0  0  0
  -11.4491  -40.1397  -11.8417 C   0  0  0  0  0  0  0  0  0  0  0  0
  -11.4230  -41.1072  -12.9836 C   0  0  0  0  0  0  0  0  0  0  0  0
  -12.4915  -41.9794  -13.0404 O   0  0  0  0  0  0  0  0  0  0  0  0
  -13.5570  -42.2496  -12.1649 C   0  0  0  0  0  0  0  0  0  0  0  0
  -14.6778  -41.4822  -11.9084 C   0  0  0  0  0  0  0  0  0  0  0  0
  -15.5797  -41.9621  -10.9982 C   0  0  0  0  0  0  0  0  0  0  0  0
  -15.3102  -43.2153  -10.3837 C   0  0  0  0  0  0  0  0  0  0  0  0
  -14.1990  -43.9776  -10.6415 C   0  0  0  0  0  0  0  0  0  0  0  0
  -13.9808  -45.2851   -9.9674 C   0  0  0  0  0  0  0  0  0  0  0  0
  -13.3656  -43.4579  -11.5254 N   0  0  0  0  0  0  0  0  0  0  0  0
  -16.8252  -41.4117  -10.4651 C   0  0  0  0  0  0  0  0  0  0  0  0
  -17.8935  -42.1586  -10.3475 O   0  0  0  0  0  0  0  0  0  0  0  0
  -17.1173  -40.0785  -10.0001 N   0  0  0  0  0  0  0  0  0  0  0  0
  -20.3676  -39.1725   -7.8212 C   0  0  0  0  0  0  0  0  0  0  0  0
  1  2  1  0
  2  3  1  0
  2  4  1  0
  4  5  2  0
  5  6  1  0
  6  7  2  0
  7  8  1  0
  8  9  1  0
  9 10  1  0
 10 11  1  0
 11 12  1  0
 12 13  1  6
 12 14  1  0
 14 15  1  1
 15 16  1  0
 16 17  1  6
 16 18  1  0
 18 19  1  0
 19 20  1  0
 20 21  1  0
 21 22  1  0
 22 23  1  0
 23 24  1  0
 24 25  1  0
 25 26  1  0
 26 27  2  0
 27 28  1  0
 28 29  2  0
 29 30  1  0
 29 31  1  0
 27 32  1  0
 32 33  2  0
 32 34  1  0
  8 35  2  0
 31 25  2  0
 34 14  1  0
 35  4  1  0
M  END
$$$$
