
     RDKit          3D

 35 37  0  0  0  0  0  0  0  0999 V2000
  -20.6108  -36.5985  -12.6481 C   0  0  0  0  0  0  0  0  0  0  0  0
  -20.0625  -36.1028  -11.3357 C   0  0  0  0  0  0  0  0  0  0  0  0
  -20.5860  -34.6851  -11.0846 C   0  0  0  0  0  0  0  0  0  0  0  0
  -20.4326  -36.9732  -10.1891 C   0  0  0  0  0  0  0  0  0  0  0  0
  -21.6237  -37.6697  -10.1892 C   0  0  0  0  0  0  0  0  0  0  0  0
  -21.9736  -38.4852   -9.1087 C   0  0  0  0  0  0  0  0  0  0  0  0
  -21.1402  -38.6055   -8.0343 C   0  0  0  0  0  0  0  0  0  0  0  0
  -19.9482  -37.9083   -8.0348 C   0  0  0  0  0  0  0  0  0  0  0  0
  -19.0540  -38.0334   -6.8686 C   0  0  0  0  0  0  0  0  0  0  0  0
  -17.6748  -38.1640   -7.3158 N   0  0  0  0  0  0  0  0  0  0  0  0
  -17.4477  -39.3527   -8.0723 C   0  0  0  0  0  0  0  0  0  0  0  0
  -16.1021  -39.9515   -7.8531 C   0  0  1  0  0  0  0  0  0  0  0  0
  -16.0112  -40.6132   -6.6527 O   0  0  0  0  0  0  0  0  0  0  0  0
  -15.5776  -40.7654   -9.0309 C   0  0  2  0  0  0  0  0  0  0  0  0
  -14.4588  -40.0565   -9.6906 C   0  0  0  0  0  0  0  0  0  0  0  0
  -13.1143  -40.7057   -9.6562 C   0  0  2  0  0  0  0  0  0  0  0  0
  -12.4614  -40.5057  -11.0071 C   0  0  0  0  0  0  0  0  0  0  0  0
  -13.2310  -42.1475   -9.2766 C   0  0  0  0  0  0  0  0  0  0  0  0
  -11.9331  -42.9019   -9.3653 C   0  0  0  0  0  0  0  0  0  0  0  0
  -11.9088  -44.1280   -8.8250 O   0  0  0  0  0  0  0  0  0  0  0  0
  -12.7497  -45.0985   -9.2282 C   0  0  0  0  0  0  0  0  0  0  0  0
  -13.6046  -45.7110   -8.1444 C   0  0  0  0  0  0  0  0  0  0  0  0
  -14.3114  -46.8854   -8.7461 C   0  0  0  0  0  0  0  0  0  0  0  0
  -15.6082  -46.6459   -9.1539 O   0  0  0  0  0  0  0  0  0  0  0  0
  -16.4739  -45.5491   -9.0045 C   0  0  0  0  0  0  0  0  0  0  0  0
  -16.4404  -44.3296   -9.6547 C   0  0  0  0  0  0  0  0  0  0  0  0
  -17.3996  -43.4103   -9.3273 C   0  0  0  0  0  0  0  0  0  0  0  0
  -18.3671  -43.7697   -8.3498 C   0  0  0  0  0  0  0  0  0  0  0  0
  -18.4013  -44.9816   -7.7076 C   0  0  0  0  0  0  0  0  0  0  0  0
  -19.4469  -45.2962   -6.6980 C   0  0  0  0  0  0  0  0  0  0  0  0
  -17.4470  -45.8229   -8.0645 N   0  0  0  0  0  0  0  0  0  0  0  0
  -17.6386  -42.0384   -9.7734 C   0  0  0  0  0  0  0  0  0  0  0  0
  -18.8443  -41.6325  -10.0808 O   0  0  0  0  0  0  0  0  0  0  0  0
  -16.7066  -40.9524   -9.9490 N   0  0  0  0  0  0  0  0  0  0  0  0
  -19.6005  -37.1080   -9.0905 C   0  0  0  0  0  0  0  0  0  0  0  0
  1  2  1  0
  2  3  1  0
  2  4  1  0
  4  5  2  0
  5  6  1  0
  6  7  2  0
  7  8  1  0
  8  9  1  0
  9 10  1  0
 10 11  1  0
 11 12  1  0
 12 13  1  1
 12 14  1  0
 14 15  1  6
 15 16  1  0
 16 17  1  6
 16 18  1  0
 18 19  1  0
 19 20  1  0
 20 21  1  0
 21 22  1  0
 22 23  1  0
 23 24  1  0
 24 25  1  0
 25 26  1  0
 26 27  2  0
 27 28  1  0
 28 29  2  0
 29 30  1  0
 29 31  1  0
 27 32  1  0
 32 33  2  0
 32 34  1  0
  8 35  2  0
 31 25  2  0
 34 14  1  0
 35  4  1  0
M  END
$$$$
