
     RDKit          3D

 35 37  0  0  0  0  0  0  0  0999 V2000
  -14.4796  -34.0466  -13.1627 C   0  0  0  0  0  0  0  0  0  0  0  0
  -13.2727  -34.4432  -12.3535 C   0  0  0  0  0  0  0  0  0  0  0  0
  -13.3362  -33.7407  -10.9935 C   0  0  0  0  0  0  0  0  0  0  0  0
  -13.1746  -35.9114  -12.1437 C   0  0  0  0  0  0  0  0  0  0  0  0
  -11.9787  -36.5721  -12.3366 C   0  0  0  0  0  0  0  0  0  0  0  0
  -11.8875  -37.9539  -12.1432 C   0  0  0  0  0  0  0  0  0  0  0  0
  -12.9829  -38.6726  -11.7595 C   0  0  0  0  0  0  0  0  0  0  0  0
  -14.1794  -38.0108  -11.5665 C   0  0  0  0  0  0  0  0  0  0  0  0
  -15.3631  -38.7915  -11.1607 C   0  0  0  0  0  0  0  0  0  0  0  0
  -16.1120  -38.0619  -10.1477 N   0  0  0  0  0  0  0  0  0  0  0  0
  -16.5756  -38.9006   -9.0901 C   0  0  0  0  0  0  0  0  0  0  0  0
  -18.0133  -38.7014   -8.7573 C   0  0  1  0  0  0  0  0  0  0  0  0
  -18.8373  -38.9284   -9.8327 O   0  0  0  0  0  0  0  0  0  0  0  0
  -18.4686  -39.4137   -7.4884 C   0  0  2  0  0  0  0  0  0  0  0  0
  -19.1430  -38.4632   -6.5768 C   0  0  0  0  0  0  0  0  0  0  0  0
  -20.5894  -38.6944   -6.2853 C   0  0  2  0  0  0  0  0  0  0  0  0
  -20.8232  -38.4141   -4.8163 C   0  0  0  0  0  0  0  0  0  0  0  0
  -20.9962  -40.0774   -6.6835 C   0  0  0  0  0  0  0  0  0  0  0  0
  -22.4021  -40.4315   -6.2840 C   0  0  0  0  0  0  0  0  0  0  0  0
  -22.9127  -41.5561   -6.8036 O   0  0  0  0  0  0  0  0  0  0  0  0
  -22.3280  -42.7540   -6.6171 C   0  0  0  0  0  0  0  0  0  0  0  0
  -21.9675  -43.5057   -7.8762 C   0  0  0  0  0  0  0  0  0  0  0  0
  -21.5216  -44.8742   -7.4648 C   0  0  0  0  0  0  0  0  0  0  0  0
  -20.1546  -45.0478   -7.3829 O   0  0  0  0  0  0  0  0  0  0  0  0
  -19.0618  -44.2381   -7.7361 C   0  0  0  0  0  0  0  0  0  0  0  0
  -18.5814  -43.1110   -7.0959 C   0  0  0  0  0  0  0  0  0  0  0  0
  -17.4955  -42.4849   -7.6448 C   0  0  0  0  0  0  0  0  0  0  0  0
  -16.9311  -43.0350   -8.8278 C   0  0  0  0  0  0  0  0  0  0  0  0
  -17.4069  -44.1555   -9.4605 C   0  0  0  0  0  0  0  0  0  0  0  0
  -16.7643  -44.6829  -10.6935 C   0  0  0  0  0  0  0  0  0  0  0  0
  -18.4582  -44.7108   -8.8841 N   0  0  0  0  0  0  0  0  0  0  0  0
  -16.7644  -41.2757   -7.2683 C   0  0  0  0  0  0  0  0  0  0  0  0
  -15.4558  -41.2568   -7.2615 O   0  0  0  0  0  0  0  0  0  0  0  0
  -17.2658  -39.9835   -6.8711 N   0  0  0  0  0  0  0  0  0  0  0  0
  -14.2744  -36.6574  -11.7546 C   0  0  0  0  0  0  0  0  0  0  0  0
  1  2  1  0
  2  3  1  0
  2  4  1  0
  4  5  2  0
  5  6  1  0
  6  7  2  0
  7  8  1  0
  8  9  1  0
  9 10  1  0
 10 11  1  0
 11 12  1  0
 12 13  1  6
 12 14  1  0
 14 15  1  1
 15 16  1  0
 16 17  1  1
 16 18  1  0
 18 19  1  0
 19 20  1  0
 20 21  1  0
 21 22  1  0
 22 23  1  0
 23 24  1  0
 24 25  1  0
 25 26  1  0
 26 27  2  0
 27 28  1  0
 28 29  2  0
 29 30  1  0
 29 31  1  0
 27 32  1  0
 32 33  2  0
 32 34  1  0
  8 35  2  0
 31 25  2  0
 34 14  1  0
 35  4  1  0
M  END
$$$$
