
     RDKit          3D

 35 37  0  0  0  0  0  0  0  0999 V2000
  -24.2842  -41.8234   -7.4168 C   0  0  0  0  0  0  0  0  0  0  0  0
  -23.9224  -40.6837   -6.5009 C   0  0  0  0  0  0  0  0  0  0  0  0
  -23.8470  -41.2087   -5.0636 C   0  0  0  0  0  0  0  0  0  0  0  0
  -22.6295  -40.0433   -6.8583 C   0  0  0  0  0  0  0  0  0  0  0  0
  -22.5047  -39.3087   -8.0196 C   0  0  0  0  0  0  0  0  0  0  0  0
  -21.2874  -38.7097   -8.3577 C   0  0  0  0  0  0  0  0  0  0  0  0
  -20.2007  -38.8426   -7.5421 C   0  0  0  0  0  0  0  0  0  0  0  0
  -20.3264  -39.5778   -6.3800 C   0  0  0  0  0  0  0  0  0  0  0  0
  -19.1481  -39.7270   -5.5055 C   0  0  0  0  0  0  0  0  0  0  0  0
  -17.9952  -39.0810   -6.1162 N   0  0  0  0  0  0  0  0  0  0  0  0
  -17.4237  -39.8512   -7.1731 C   0  0  0  0  0  0  0  0  0  0  0  0
  -16.1303  -39.3095   -7.6741 C   0  0  1  0  0  0  0  0  0  0  0  0
  -15.0520  -40.0452   -7.2459 O   0  0  0  0  0  0  0  0  0  0  0  0
  -16.1075  -39.0226   -9.1714 C   0  0  2  0  0  0  0  0  0  0  0  0
  -16.3609  -37.5872   -9.4256 C   0  0  0  0  0  0  0  0  0  0  0  0
  -15.2629  -36.7931  -10.0536 C   0  0  2  0  0  0  0  0  0  0  0  0
  -15.8825  -35.8532  -11.0656 C   0  0  0  0  0  0  0  0  0  0  0  0
  -14.2330  -37.6953  -10.6551 C   0  0  0  0  0  0  0  0  0  0  0  0
  -13.1729  -36.9664  -11.4338 C   0  0  0  0  0  0  0  0  0  0  0  0
  -12.0988  -37.6771  -11.8037 O   0  0  0  0  0  0  0  0  0  0  0  0
  -12.2058  -38.7806  -12.5669 C   0  0  0  0  0  0  0  0  0  0  0  0
  -11.6111  -40.0385  -11.9798 C   0  0  0  0  0  0  0  0  0  0  0  0
  -11.6512  -41.0887  -13.0458 C   0  0  0  0  0  0  0  0  0  0  0  0
  -12.7130  -41.9672  -12.9666 O   0  0  0  0  0  0  0  0  0  0  0  0
  -13.7161  -42.1756  -12.0048 C   0  0  0  0  0  0  0  0  0  0  0  0
  -14.8247  -41.3958  -11.7325 C   0  0  0  0  0  0  0  0  0  0  0  0
  -15.6604  -41.8101  -10.7313 C   0  0  0  0  0  0  0  0  0  0  0  0
  -15.3396  -43.0125  -10.0445 C   0  0  0  0  0  0  0  0  0  0  0  0
  -14.2408  -43.7873  -10.3178 C   0  0  0  0  0  0  0  0  0  0  0  0
  -13.9667  -45.0397   -9.5642 C   0  0  0  0  0  0  0  0  0  0  0  0
  -13.4721  -43.3317  -11.2912 N   0  0  0  0  0  0  0  0  0  0  0  0
  -16.8731  -41.2265  -10.1595 C   0  0  0  0  0  0  0  0  0  0  0  0
  -17.9245  -41.9670   -9.9161 O   0  0  0  0  0  0  0  0  0  0  0  0
  -17.1463  -39.8635   -9.7767 N   0  0  0  0  0  0  0  0  0  0  0  0
  -21.5164  -40.1668   -6.0440 C   0  0  0  0  0  0  0  0  0  0  0  0
  1  2  1  0
  2  3  1  0
  2  4  1  0
  4  5  2  0
  5  6  1  0
  6  7  2  0
  7  8  1  0
  8  9  1  0
  9 10  1  0
 10 11  1  0
 11 12  1  0
 12 13  1  6
 12 14  1  0
 14 15  1  1
 15 16  1  0
 16 17  1  6
 16 18  1  0
 18 19  1  0
 19 20  1  0
 20 21  1  0
 21 22  1  0
 22 23  1  0
 23 24  1  0
 24 25  1  0
 25 26  1  0
 26 27  2  0
 27 28  1  0
 28 29  2  0
 29 30  1  0
 29 31  1  0
 27 32  1  0
 32 33  2  0
 32 34  1  0
  8 35  2  0
 31 25  2  0
 34 14  1  0
 35  4  1  0
M  END
$$$$
