
     RDKit          3D

 35 37  0  0  0  0  0  0  0  0999 V2000
  -19.8021  -34.3650  -11.5871 C   0  0  0  0  0  0  0  0  0  0  0  0
  -19.7081  -35.8668  -11.5205 C   0  0  0  0  0  0  0  0  0  0  0  0
  -18.3033  -36.2945  -11.9570 C   0  0  0  0  0  0  0  0  0  0  0  0
  -19.9851  -36.4036  -10.1624 C   0  0  0  0  0  0  0  0  0  0  0  0
  -21.2735  -36.7104   -9.7756 C   0  0  0  0  0  0  0  0  0  0  0  0
  -21.5344  -37.2115   -8.4966 C   0  0  0  0  0  0  0  0  0  0  0  0
  -20.5160  -37.4055   -7.6084 C   0  0  0  0  0  0  0  0  0  0  0  0
  -19.2268  -37.0983   -7.9962 C   0  0  0  0  0  0  0  0  0  0  0  0
  -18.1298  -37.3005   -7.0312 C   0  0  0  0  0  0  0  0  0  0  0  0
  -17.1842  -38.2751   -7.5560 N   0  0  0  0  0  0  0  0  0  0  0  0
  -17.5345  -39.6192   -7.2283 C   0  0  0  0  0  0  0  0  0  0  0  0
  -16.3843  -40.5637   -7.2743 C   0  0  1  0  0  0  0  0  0  0  0  0
  -16.0406  -41.0332   -6.0298 O   0  0  0  0  0  0  0  0  0  0  0  0
  -16.5187  -41.6668   -8.3182 C   0  0  2  0  0  0  0  0  0  0  0  0
  -15.2190  -41.9099   -8.9823 C   0  0  0  0  0  0  0  0  0  0  0  0
  -14.5863  -43.2492   -8.7916 C   0  0  2  0  0  0  0  0  0  0  0  0
  -13.9849  -43.6771  -10.1132 C   0  0  0  0  0  0  0  0  0  0  0  0
  -15.5788  -44.2339   -8.2606 C   0  0  0  0  0  0  0  0  0  0  0  0
  -15.0515  -45.6401   -8.1830 C   0  0  0  0  0  0  0  0  0  0  0  0
  -15.7947  -46.5277   -7.5081 O   0  0  0  0  0  0  0  0  0  0  0  0
  -17.0686  -46.7943   -7.8514 C   0  0  0  0  0  0  0  0  0  0  0  0
  -18.0932  -46.5895   -6.7610 C   0  0  0  0  0  0  0  0  0  0  0  0
  -19.3964  -47.1219   -7.2700 C   0  0  0  0  0  0  0  0  0  0  0  0
  -20.2595  -46.1741   -7.7820 O   0  0  0  0  0  0  0  0  0  0  0  0
  -20.2342  -44.7694   -7.8110 C   0  0  0  0  0  0  0  0  0  0  0  0
  -19.4527  -43.9371   -8.5905 C   0  0  0  0  0  0  0  0  0  0  0  0
  -19.6080  -42.5872   -8.4288 C   0  0  0  0  0  0  0  0  0  0  0  0
  -20.5625  -42.1309   -7.4794 C   0  0  0  0  0  0  0  0  0  0  0  0
  -21.3398  -42.9579   -6.7086 C   0  0  0  0  0  0  0  0  0  0  0  0
  -22.3257  -42.4141   -5.7371 C   0  0  0  0  0  0  0  0  0  0  0  0
  -21.1398  -44.2486   -6.9086 N   0  0  0  0  0  0  0  0  0  0  0  0
  -18.9369  -41.4409   -9.0401 C   0  0  0  0  0  0  0  0  0  0  0  0
  -19.6219  -40.4100   -9.4656 O   0  0  0  0  0  0  0  0  0  0  0  0
  -17.5327  -41.2161   -9.2781 N   0  0  0  0  0  0  0  0  0  0  0  0
  -18.9655  -36.6071   -9.2478 C   0  0  0  0  0  0  0  0  0  0  0  0
  1  2  1  0
  2  3  1  0
  2  4  1  0
  4  5  2  0
  5  6  1  0
  6  7  2  0
  7  8  1  0
  8  9  1  0
  9 10  1  0
 10 11  1  0
 11 12  1  0
 12 13  1  1
 12 14  1  0
 14 15  1  6
 15 16  1  0
 16 17  1  6
 16 18  1  0
 18 19  1  0
 19 20  1  0
 20 21  1  0
 21 22  1  0
 22 23  1  0
 23 24  1  0
 24 25  1  0
 25 26  1  0
 26 27  2  0
 27 28  1  0
 28 29  2  0
 29 30  1  0
 29 31  1  0
 27 32  1  0
 32 33  2  0
 32 34  1  0
  8 35  2  0
 31 25  2  0
 34 14  1  0
 35  4  1  0
M  END
$$$$
