
     RDKit          3D

 35 37  0  0  0  0  0  0  0  0999 V2000
  -12.0406  -33.5320  -12.7212 C   0  0  0  0  0  0  0  0  0  0  0  0
  -13.1707  -34.0164  -11.8512 C   0  0  0  0  0  0  0  0  0  0  0  0
  -14.4988  -33.5716  -12.4720 C   0  0  0  0  0  0  0  0  0  0  0  0
  -13.1778  -35.4931  -11.6820 C   0  0  0  0  0  0  0  0  0  0  0  0
  -11.9948  -36.1971  -11.5899 C   0  0  0  0  0  0  0  0  0  0  0  0
  -12.0015  -37.5867  -11.4349 C   0  0  0  0  0  0  0  0  0  0  0  0
  -13.1816  -38.2702  -11.3720 C   0  0  0  0  0  0  0  0  0  0  0  0
  -14.3652  -37.5649  -11.4642 C   0  0  0  0  0  0  0  0  0  0  0  0
  -15.6383  -38.3073  -11.4050 C   0  0  0  0  0  0  0  0  0  0  0  0
  -15.8635  -38.7937  -10.0515 N   0  0  0  0  0  0  0  0  0  0  0  0
  -17.1734  -38.4990   -9.5674 C   0  0  0  0  0  0  0  0  0  0  0  0
  -17.2866  -38.5501   -8.0836 C   0  0  1  0  0  0  0  0  0  0  0  0
  -17.7850  -37.3842   -7.5548 O   0  0  0  0  0  0  0  0  0  0  0  0
  -17.9799  -39.7985   -7.5493 C   0  0  2  0  0  0  0  0  0  0  0  0
  -17.7377  -39.9414   -6.0966 C   0  0  0  0  0  0  0  0  0  0  0  0
  -18.9195  -39.8520   -5.1878 C   0  0  2  0  0  0  0  0  0  0  0  0
  -18.7583  -40.8958   -4.1035 C   0  0  0  0  0  0  0  0  0  0  0  0
  -20.1928  -40.0068   -5.9568 C   0  0  0  0  0  0  0  0  0  0  0  0
  -21.4182  -40.0753   -5.0876 C   0  0  0  0  0  0  0  0  0  0  0  0
  -22.6034  -39.9817   -5.7058 O   0  0  0  0  0  0  0  0  0  0  0  0
  -22.9732  -40.8477   -6.6675 C   0  0  0  0  0  0  0  0  0  0  0  0
  -23.3422  -40.2284   -7.9945 C   0  0  0  0  0  0  0  0  0  0  0  0
  -23.9073  -41.3178   -8.8517 C   0  0  0  0  0  0  0  0  0  0  0  0
  -23.0223  -41.8778   -9.7510 O   0  0  0  0  0  0  0  0  0  0  0  0
  -21.7110  -41.5513  -10.1366 C   0  0  0  0  0  0  0  0  0  0  0  0
  -20.5346  -41.7365   -9.4347 C   0  0  0  0  0  0  0  0  0  0  0  0
  -19.3718  -41.3243  -10.0268 C   0  0  0  0  0  0  0  0  0  0  0  0
  -19.4482  -40.7416  -11.3210 C   0  0  0  0  0  0  0  0  0  0  0  0
  -20.6160  -40.5613  -12.0181 C   0  0  0  0  0  0  0  0  0  0  0  0
  -20.6249  -39.9499  -13.3737 C   0  0  0  0  0  0  0  0  0  0  0  0
  -21.7029  -40.9756  -11.3912 N   0  0  0  0  0  0  0  0  0  0  0  0
  -17.9826  -41.3265   -9.5704 C   0  0  0  0  0  0  0  0  0  0  0  0
  -17.0166  -41.7200  -10.3610 O   0  0  0  0  0  0  0  0  0  0  0  0
  -17.4319  -40.9362   -8.2964 N   0  0  0  0  0  0  0  0  0  0  0  0
  -14.3644  -36.2037  -11.6162 C   0  0  0  0  0  0  0  0  0  0  0  0
  1  2  1  0
  2  3  1  0
  2  4  1  0
  4  5  2  0
  5  6  1  0
  6  7  2  0
  7  8  1  0
  8  9  1  0
  9 10  1  0
 10 11  1  0
 11 12  1  0
 12 13  1  6
 12 14  1  0
 14 15  1  1
 15 16  1  0
 16 17  1  1
 16 18  1  0
 18 19  1  0
 19 20  1  0
 20 21  1  0
 21 22  1  0
 22 23  1  0
 23 24  1  0
 24 25  1  0
 25 26  1  0
 26 27  2  0
 27 28  1  0
 28 29  2  0
 29 30  1  0
 29 31  1  0
 27 32  1  0
 32 33  2  0
 32 34  1  0
  8 35  2  0
 31 25  2  0
 34 14  1  0
 35  4  1  0
M  END
$$$$
