
     RDKit          3D

 35 37  0  0  0  0  0  0  0  0999 V2000
  -22.9661  -40.0413   -3.8641 C   0  0  0  0  0  0  0  0  0  0  0  0
  -21.8474  -40.6764   -4.6476 C   0  0  0  0  0  0  0  0  0  0  0  0
  -22.0423  -42.1959   -4.6455 C   0  0  0  0  0  0  0  0  0  0  0  0
  -21.7776  -40.1922   -6.0512 C   0  0  0  0  0  0  0  0  0  0  0  0
  -22.6650  -40.6551   -7.0010 C   0  0  0  0  0  0  0  0  0  0  0  0
  -22.5966  -40.2027   -8.3222 C   0  0  0  0  0  0  0  0  0  0  0  0
  -21.6485  -39.2936   -8.6940 C   0  0  0  0  0  0  0  0  0  0  0  0
  -20.7607  -38.8307   -7.7430 C   0  0  0  0  0  0  0  0  0  0  0  0
  -19.7318  -37.8554   -8.1499 C   0  0  0  0  0  0  0  0  0  0  0  0
  -18.4896  -38.1230   -7.4397 N   0  0  0  0  0  0  0  0  0  0  0  0
  -17.8338  -39.3055   -7.8964 C   0  0  0  0  0  0  0  0  0  0  0  0
  -16.3903  -39.3644   -7.5355 C   0  0  1  0  0  0  0  0  0  0  0  0
  -16.1100  -40.3829   -6.6573 O   0  0  0  0  0  0  0  0  0  0  0  0
  -15.4424  -39.3200   -8.7289 C   0  0  2  0  0  0  0  0  0  0  0  0
  -14.4067  -38.2827   -8.5269 C   0  0  0  0  0  0  0  0  0  0  0  0
  -12.9880  -38.7362   -8.4166 C   0  0  2  0  0  0  0  0  0  0  0  0
  -12.1207  -37.7543   -9.1750 C   0  0  0  0  0  0  0  0  0  0  0  0
  -12.8402  -40.1406   -8.9088 C   0  0  0  0  0  0  0  0  0  0  0  0
  -11.4137  -40.6131   -8.9658 C   0  0  0  0  0  0  0  0  0  0  0  0
  -11.2188  -41.9226   -9.1735 O   0  0  0  0  0  0  0  0  0  0  0  0
  -11.6961  -42.5471  -10.2661 C   0  0  0  0  0  0  0  0  0  0  0  0
  -12.5981  -43.7285   -9.9988 C   0  0  0  0  0  0  0  0  0  0  0  0
  -12.8565  -44.3968  -11.3131 C   0  0  0  0  0  0  0  0  0  0  0  0
  -14.0510  -44.0620  -11.9186 O   0  0  0  0  0  0  0  0  0  0  0  0
  -15.1629  -43.3127  -11.4981 C   0  0  0  0  0  0  0  0  0  0  0  0
  -15.2773  -41.9417  -11.3626 C   0  0  0  0  0  0  0  0  0  0  0  0
  -16.4749  -41.4460  -10.9238 C   0  0  0  0  0  0  0  0  0  0  0  0
  -17.5200  -42.3678  -10.6435 C   0  0  0  0  0  0  0  0  0  0  0  0
  -17.4063  -43.7281  -10.7814 C   0  0  0  0  0  0  0  0  0  0  0  0
  -18.5430  -44.6373  -10.4768 C   0  0  0  0  0  0  0  0  0  0  0  0
  -16.2254  -44.1435  -11.2043 N   0  0  0  0  0  0  0  0  0  0  0  0
  -16.9281  -40.0866  -10.6328 C   0  0  0  0  0  0  0  0  0  0  0  0
  -18.0978  -39.6663  -11.0429 O   0  0  0  0  0  0  0  0  0  0  0  0
  -16.2648  -39.0307   -9.9089 N   0  0  0  0  0  0  0  0  0  0  0  0
  -20.8231  -39.2706   -6.4474 C   0  0  0  0  0  0  0  0  0  0  0  0
  1  2  1  0
  2  3  1  0
  2  4  1  0
  4  5  2  0
  5  6  1  0
  6  7  2  0
  7  8  1  0
  8  9  1  0
  9 10  1  0
 10 11  1  0
 11 12  1  0
 12 13  1  6
 12 14  1  0
 14 15  1  1
 15 16  1  0
 16 17  1  6
 16 18  1  0
 18 19  1  0
 19 20  1  0
 20 21  1  0
 21 22  1  0
 22 23  1  0
 23 24  1  0
 24 25  1  0
 25 26  1  0
 26 27  2  0
 27 28  1  0
 28 29  2  0
 29 30  1  0
 29 31  1  0
 27 32  1  0
 32 33  2  0
 32 34  1  0
  8 35  2  0
 31 25  2  0
 34 14  1  0
 35  4  1  0
M  END
$$$$
