
     RDKit          3D

 35 37  0  0  0  0  0  0  0  0999 V2000
  -24.6943  -40.1870   -7.3016 C   0  0  0  0  0  0  0  0  0  0  0  0
  -23.8034  -40.9628   -6.3672 C   0  0  0  0  0  0  0  0  0  0  0  0
  -23.4371  -42.2966   -7.0259 C   0  0  0  0  0  0  0  0  0  0  0  0
  -22.5585  -40.2309   -6.0149 C   0  0  0  0  0  0  0  0  0  0  0  0
  -22.2421  -39.9730   -4.6968 C   0  0  0  0  0  0  0  0  0  0  0  0
  -21.0732  -39.2810   -4.3658 C   0  0  0  0  0  0  0  0  0  0  0  0
  -20.2246  -38.8486   -5.3438 C   0  0  0  0  0  0  0  0  0  0  0  0
  -20.5417  -39.1071   -6.6627 C   0  0  0  0  0  0  0  0  0  0  0  0
  -19.6274  -38.6308   -7.7174 C   0  0  0  0  0  0  0  0  0  0  0  0
  -18.3100  -38.3784   -7.1516 N   0  0  0  0  0  0  0  0  0  0  0  0
  -17.4824  -39.5410   -7.1338 C   0  0  0  0  0  0  0  0  0  0  0  0
  -16.0447  -39.2539   -7.3938 C   0  0  1  0  0  0  0  0  0  0  0  0
  -15.2251  -39.7398   -6.4042 O   0  0  0  0  0  0  0  0  0  0  0  0
  -15.5754  -39.6189   -8.7978 C   0  0  2  0  0  0  0  0  0  0  0  0
  -14.8346  -38.4904   -9.4039 C   0  0  0  0  0  0  0  0  0  0  0  0
  -13.3894  -38.7016   -9.7158 C   0  0  2  0  0  0  0  0  0  0  0  0
  -13.0961  -38.0474  -11.0490 C   0  0  0  0  0  0  0  0  0  0  0  0
  -13.0501  -40.1580   -9.6976 C   0  0  0  0  0  0  0  0  0  0  0  0
  -11.6466  -40.4564  -10.1475 C   0  0  0  0  0  0  0  0  0  0  0  0
  -11.1976  -41.7018   -9.9404 O   0  0  0  0  0  0  0  0  0  0  0  0
  -11.8219  -42.7768  -10.4564 C   0  0  0  0  0  0  0  0  0  0  0  0
  -12.2530  -43.8221   -9.4553 C   0  0  0  0  0  0  0  0  0  0  0  0
  -12.7378  -45.0071  -10.2308 C   0  0  0  0  0  0  0  0  0  0  0  0
  -14.1070  -45.0887  -10.3861 O   0  0  0  0  0  0  0  0  0  0  0  0
  -15.1787  -44.3541   -9.8507 C   0  0  0  0  0  0  0  0  0  0  0  0
  -15.5934  -43.0753  -10.1726 C   0  0  0  0  0  0  0  0  0  0  0  0
  -16.6718  -42.5702   -9.4985 C   0  0  0  0  0  0  0  0  0  0  0  0
  -17.2962  -43.3916   -8.5207 C   0  0  0  0  0  0  0  0  0  0  0  0
  -16.8856  -44.6619   -8.2043 C   0  0  0  0  0  0  0  0  0  0  0  0
  -17.5889  -45.4713   -7.1738 C   0  0  0  0  0  0  0  0  0  0  0  0
  -15.8381  -45.0897   -8.8865 N   0  0  0  0  0  0  0  0  0  0  0  0
  -17.3424  -41.2718   -9.5498 C   0  0  0  0  0  0  0  0  0  0  0  0
  -18.6483  -41.1911   -9.5794 O   0  0  0  0  0  0  0  0  0  0  0  0
  -16.7783  -39.9451   -9.5720 N   0  0  0  0  0  0  0  0  0  0  0  0
  -21.6855  -39.7845   -6.9927 C   0  0  0  0  0  0  0  0  0  0  0  0
  1  2  1  0
  2  3  1  0
  2  4  1  0
  4  5  2  0
  5  6  1  0
  6  7  2  0
  7  8  1  0
  8  9  1  0
  9 10  1  0
 10 11  1  0
 11 12  1  0
 12 13  1  1
 12 14  1  0
 14 15  1  6
 15 16  1  0
 16 17  1  6
 16 18  1  0
 18 19  1  0
 19 20  1  0
 20 21  1  0
 21 22  1  0
 22 23  1  0
 23 24  1  0
 24 25  1  0
 25 26  1  0
 26 27  2  0
 27 28  1  0
 28 29  2  0
 29 30  1  0
 29 31  1  0
 27 32  1  0
 32 33  2  0
 32 34  1  0
  8 35  2  0
 31 25  2  0
 34 14  1  0
 35  4  1  0
M  END
$$$$
