
     RDKit          3D

 37 40  0  0  0  0  0  0  0  0999 V2000
  -19.7906  -42.7379   -5.8188 C   0  0  0  0  0  0  0  0  0  0  0  0
  -19.1485  -42.1004   -7.0565 C   0  0  1  0  0  0  0  0  0  0  0  0
  -17.8625  -41.4891   -6.6419 C   0  0  0  0  0  0  0  0  0  0  0  0
  -17.1887  -42.1670   -5.7905 O   0  0  0  0  0  0  0  0  0  0  0  0
  -17.3329  -40.2708   -7.0854 N   0  0  0  0  0  0  0  0  0  0  0  0
  -18.0533  -39.0233   -7.2335 C   0  0  1  0  0  0  0  0  0  0  0  0
  -18.8584  -38.6046   -6.0770 C   0  0  0  0  0  0  0  0  0  0  0  0
  -20.2708  -39.0430   -5.9227 C   0  0  0  0  0  0  0  0  0  0  0  0
  -20.4669  -39.5038   -4.5968 C   0  0  0  0  0  0  0  0  0  0  0  0
  -21.6499  -39.9900   -4.1111 C   0  0  0  0  0  0  0  0  0  0  0  0
  -22.6762  -40.0064   -5.0207 C   0  0  0  0  0  0  0  0  0  0  0  0
  -22.5359  -39.5612   -6.3511 C   0  0  0  0  0  0  0  0  0  0  0  0
  -21.3205  -39.0746   -6.7990 C   0  0  0  0  0  0  0  0  0  0  0  0
  -23.7262  -39.6976   -7.0324 O   0  0  0  0  0  0  0  0  0  0  0  0
  -24.1840  -40.2658   -8.1971 C   0  0  0  0  0  0  0  0  0  0  0  0
  -24.0643  -41.7491   -8.1788 C   0  0  0  0  0  0  0  0  0  0  0  0
  -23.4895  -42.3401   -9.4311 C   0  0  0  0  0  0  0  0  0  0  0  0
  -21.9849  -42.4275   -9.4233 C   0  0  0  0  0  0  0  0  0  0  0  0
  -21.4429  -43.5335   -8.5751 C   0  0  0  0  0  0  0  0  0  0  0  0
  -19.9895  -43.6629   -8.8427 C   0  0  0  0  0  0  0  0  0  0  0  0
  -19.6573  -44.2487   -9.9230 O   0  0  0  0  0  0  0  0  0  0  0  0
  -18.9670  -43.1963   -8.0094 N   0  0  0  0  0  0  0  0  0  0  0  0
  -17.6547  -43.8037   -8.0678 C   0  0  0  0  0  0  0  0  0  0  0  0
  -17.1299  -37.9022   -7.7259 C   0  0  2  0  0  0  0  0  0  0  0  0
  -17.8921  -36.8716   -8.2696 O   0  0  0  0  0  0  0  0  0  0  0  0
  -16.1755  -38.4286   -8.7809 C   0  0  0  0  0  0  0  0  0  0  0  0
  -15.0007  -38.9374   -8.1099 N   0  0  0  0  0  0  0  0  0  0  0  0
  -13.9465  -39.3113   -9.0197 C   0  0  0  0  0  0  0  0  0  0  0  0
  -12.6882  -39.9416   -8.5351 C   0  0  0  0  0  0  0  0  0  0  0  0
  -13.7472  -40.7437   -9.2699 C   0  0  0  0  0  0  0  0  0  0  0  0
  -13.7417  -38.3722  -10.1758 C   0  0  0  0  0  0  0  0  0  0  0  0
  -14.5975  -37.3183  -10.3609 C   0  0  0  0  0  0  0  0  0  0  0  0
  -14.4089  -36.4516  -11.4317 C   0  0  0  0  0  0  0  0  0  0  0  0
  -13.3779  -36.6176  -12.3251 C   0  0  0  0  0  0  0  0  0  0  0  0
  -12.5198  -37.6731  -12.1406 C   0  0  0  0  0  0  0  0  0  0  0  0
  -11.0708  -37.9487  -13.3537 Br  0  0  0  0  0  0  0  0  0  0  0  0
  -12.7060  -38.5463  -11.0657 C   0  0  0  0  0  0  0  0  0  0  0  0
  2  1  1  1
  2  3  1  0
  3  4  2  0
  3  5  1  0
  5  6  1  0
  6  7  1  1
  7  8  1  0
  8  9  1  0
  9 10  2  0
 10 11  1  0
 11 12  2  0
 12 13  1  0
 12 14  1  0
 14 15  1  0
 15 16  1  0
 16 17  1  0
 17 18  1  0
 18 19  1  0
 19 20  1  0
 20 21  2  0
 20 22  1  0
 22 23  1  0
  6 24  1  0
 24 25  1  6
 24 26  1  0
 26 27  1  0
 27 28  1  0
 28 29  1  0
 29 30  1  0
 28 31  1  0
 31 32  2  0
 32 33  1  0
 33 34  2  0
 34 35  1  0
 35 36  1  0
 35 37  2  0
 13  8  2  0
 22  2  1  0
 30 28  1  0
 37 31  1  0
M  END
$$$$
