
     RDKit          3D

 37 40  0  0  0  0  0  0  0  0999 V2000
  -19.5464  -42.2418   -5.8349 C   0  0  0  0  0  0  0  0  0  0  0  0
  -18.9978  -42.0120   -7.2481 C   0  0  1  0  0  0  0  0  0  0  0  0
  -17.6429  -41.4219   -7.1231 C   0  0  0  0  0  0  0  0  0  0  0  0
  -16.9264  -41.9029   -6.1777 O   0  0  0  0  0  0  0  0  0  0  0  0
  -17.0915  -40.4138   -7.9238 N   0  0  0  0  0  0  0  0  0  0  0  0
  -17.7496  -39.1950   -8.3462 C   0  0  1  0  0  0  0  0  0  0  0  0
  -18.4070  -38.4184   -7.2853 C   0  0  0  0  0  0  0  0  0  0  0  0
  -19.8194  -38.6806   -6.9015 C   0  0  0  0  0  0  0  0  0  0  0  0
  -19.9059  -38.7545   -5.4888 C   0  0  0  0  0  0  0  0  0  0  0  0
  -21.0595  -38.9937   -4.7933 C   0  0  0  0  0  0  0  0  0  0  0  0
  -22.1723  -39.1656   -5.5762 C   0  0  0  0  0  0  0  0  0  0  0  0
  -22.1426  -39.1033   -6.9845 C   0  0  0  0  0  0  0  0  0  0  0  0
  -20.9530  -38.8563   -7.6465 C   0  0  0  0  0  0  0  0  0  0  0  0
  -23.4019  -39.3161   -7.5024 O   0  0  0  0  0  0  0  0  0  0  0  0
  -24.0082  -40.1332   -8.4264 C   0  0  0  0  0  0  0  0  0  0  0  0
  -23.9736  -41.5629   -8.0147 C   0  0  0  0  0  0  0  0  0  0  0  0
  -23.5646  -42.5112   -9.1016 C   0  0  0  0  0  0  0  0  0  0  0  0
  -22.0746  -42.7186   -9.1942 C   0  0  0  0  0  0  0  0  0  0  0  0
  -21.5142  -43.6006   -8.1244 C   0  0  0  0  0  0  0  0  0  0  0  0
  -20.1056  -43.9172   -8.4655 C   0  0  0  0  0  0  0  0  0  0  0  0
  -19.9197  -44.7946   -9.3688 O   0  0  0  0  0  0  0  0  0  0  0  0
  -18.9782  -43.3329   -7.8780 N   0  0  0  0  0  0  0  0  0  0  0  0
  -17.7161  -44.0412   -7.8766 C   0  0  0  0  0  0  0  0  0  0  0  0
  -16.8175  -38.3261   -9.1997 C   0  0  2  0  0  0  0  0  0  0  0  0
  -17.5660  -37.6075  -10.1283 O   0  0  0  0  0  0  0  0  0  0  0  0
  -15.8107  -39.1927   -9.9321 C   0  0  0  0  0  0  0  0  0  0  0  0
  -14.5807  -39.1913   -9.1728 N   0  0  0  0  0  0  0  0  0  0  0  0
  -13.4784  -39.7948   -9.8796 C   0  0  0  0  0  0  0  0  0  0  0  0
  -12.3845  -40.5001   -9.1576 C   0  0  0  0  0  0  0  0  0  0  0  0
  -13.4383  -41.2605   -9.9425 C   0  0  0  0  0  0  0  0  0  0  0  0
  -13.0087  -39.0374  -11.0904 C   0  0  0  0  0  0  0  0  0  0  0  0
  -12.5096  -39.7163  -12.1708 C   0  0  0  0  0  0  0  0  0  0  0  0
  -12.0730  -39.0150  -13.2893 C   0  0  0  0  0  0  0  0  0  0  0  0
  -12.1255  -37.6431  -13.3502 C   0  0  0  0  0  0  0  0  0  0  0  0
  -12.6254  -36.9618  -12.2683 C   0  0  0  0  0  0  0  0  0  0  0  0
  -12.7201  -35.0548  -12.3017 Br  0  0  0  0  0  0  0  0  0  0  0  0
  -13.0651  -37.6630  -11.1424 C   0  0  0  0  0  0  0  0  0  0  0  0
  2  1  1  1
  2  3  1  0
  3  4  2  0
  3  5  1  0
  5  6  1  0
  6  7  1  1
  7  8  1  0
  8  9  1  0
  9 10  2  0
 10 11  1  0
 11 12  2  0
 12 13  1  0
 12 14  1  0
 14 15  1  0
 15 16  1  0
 16 17  1  0
 17 18  1  0
 18 19  1  0
 19 20  1  0
 20 21  2  0
 20 22  1  0
 22 23  1  0
  6 24  1  0
 24 25  1  6
 24 26  1  0
 26 27  1  0
 27 28  1  0
 28 29  1  0
 29 30  1  0
 28 31  1  0
 31 32  2  0
 32 33  1  0
 33 34  2  0
 34 35  1  0
 35 36  1  0
 35 37  2  0
 13  8  2  0
 22  2  1  0
 30 28  1  0
 37 31  1  0
M  END
$$$$
