
     RDKit          3D

 37 40  0  0  0  0  0  0  0  0999 V2000
  -15.7704  -41.0246  -12.0936 C   0  0  0  0  0  0  0  0  0  0  0  0
  -15.8202  -41.2535  -10.5784 C   0  0  1  0  0  0  0  0  0  0  0  0
  -17.0200  -40.5604  -10.0496 C   0  0  0  0  0  0  0  0  0  0  0  0
  -18.0611  -40.6358  -10.7904 O   0  0  0  0  0  0  0  0  0  0  0  0
  -17.1144  -39.8503   -8.8461 N   0  0  0  0  0  0  0  0  0  0  0  0
  -16.1507  -38.9005   -8.3304 C   0  0  1  0  0  0  0  0  0  0  0  0
  -15.7112  -37.8572   -9.2680 C   0  0  0  0  0  0  0  0  0  0  0  0
  -14.5502  -38.0732  -10.1715 C   0  0  0  0  0  0  0  0  0  0  0  0
  -14.9049  -37.6650  -11.4816 C   0  0  0  0  0  0  0  0  0  0  0  0
  -14.0755  -37.7341  -12.5674 C   0  0  0  0  0  0  0  0  0  0  0  0
  -12.8300  -38.2433  -12.3022 C   0  0  0  0  0  0  0  0  0  0  0  0
  -12.4254  -38.6648  -11.0190 C   0  0  0  0  0  0  0  0  0  0  0  0
  -13.2972  -38.5744   -9.9483 C   0  0  0  0  0  0  0  0  0  0  0  0
  -11.1293  -39.1321  -11.0522 O   0  0  0  0  0  0  0  0  0  0  0  0
  -10.4331  -40.2575  -10.6810 C   0  0  0  0  0  0  0  0  0  0  0  0
  -10.8478  -41.4535  -11.4636 C   0  0  0  0  0  0  0  0  0  0  0  0
  -11.0779  -42.6845  -10.6393 C   0  0  0  0  0  0  0  0  0  0  0  0
  -12.4837  -42.8032  -10.1090 C   0  0  0  0  0  0  0  0  0  0  0  0
  -13.4885  -43.2230  -11.1340 C   0  0  0  0  0  0  0  0  0  0  0  0
  -14.7636  -43.5349  -10.4430 C   0  0  0  0  0  0  0  0  0  0  0  0
  -14.8267  -44.6527   -9.8372 O   0  0  0  0  0  0  0  0  0  0  0  0
  -15.8896  -42.7052  -10.4057 N   0  0  0  0  0  0  0  0  0  0  0  0
  -17.2008  -43.2774  -10.1870 C   0  0  0  0  0  0  0  0  0  0  0  0
  -16.6112  -38.3116   -6.9913 C   0  0  2  0  0  0  0  0  0  0  0  0
  -15.9907  -38.9871   -5.9436 O   0  0  0  0  0  0  0  0  0  0  0  0
  -18.1158  -38.4394   -6.8472 C   0  0  0  0  0  0  0  0  0  0  0  0
  -18.5003  -39.7562   -7.3030 N   0  0  0  0  0  0  0  0  0  0  0  0
  -19.9288  -39.9281   -7.3965 C   0  0  0  0  0  0  0  0  0  0  0  0
  -20.5523  -41.2795   -7.3762 C   0  0  0  0  0  0  0  0  0  0  0  0
  -20.6393  -40.3460   -6.1822 C   0  0  0  0  0  0  0  0  0  0  0  0
  -20.6276  -38.9574   -8.3073 C   0  0  0  0  0  0  0  0  0  0  0  0
  -21.0824  -37.7627   -7.8142 C   0  0  0  0  0  0  0  0  0  0  0  0
  -21.7309  -36.8665   -8.6567 C   0  0  0  0  0  0  0  0  0  0  0  0
  -21.9349  -37.1413   -9.9876 C   0  0  0  0  0  0  0  0  0  0  0  0
  -21.4796  -38.3380  -10.4828 C   0  0  0  0  0  0  0  0  0  0  0  0
  -21.7376  -38.7688  -12.3253 Br  0  0  0  0  0  0  0  0  0  0  0  0
  -20.8274  -39.2413   -9.6394 C   0  0  0  0  0  0  0  0  0  0  0  0
  2  1  1  6
  2  3  1  0
  3  4  2  0
  3  5  1  0
  5  6  1  0
  6  7  1  6
  7  8  1  0
  8  9  1  0
  9 10  2  0
 10 11  1  0
 11 12  2  0
 12 13  1  0
 12 14  1  0
 14 15  1  0
 15 16  1  0
 16 17  1  0
 17 18  1  0
 18 19  1  0
 19 20  1  0
 20 21  2  0
 20 22  1  0
 22 23  1  0
  6 24  1  0
 24 25  1  1
 24 26  1  0
 26 27  1  0
 27 28  1  0
 28 29  1  0
 29 30  1  0
 28 31  1  0
 31 32  2  0
 32 33  1  0
 33 34  2  0
 34 35  1  0
 35 36  1  0
 35 37  2  0
 13  8  2  0
 22  2  1  0
 30 28  1  0
 37 31  1  0
M  END
$$$$
