
     RDKit          3D

 37 40  0  0  0  0  0  0  0  0999 V2000
  -15.7802  -42.2194  -11.8727 C   0  0  0  0  0  0  0  0  0  0  0  0
  -15.8958  -42.0941  -10.3490 C   0  0  1  0  0  0  0  0  0  0  0  0
  -16.9361  -41.0803  -10.0503 C   0  0  0  0  0  0  0  0  0  0  0  0
  -17.9609  -41.1119  -10.8167 O   0  0  0  0  0  0  0  0  0  0  0  0
  -16.9001  -40.1179   -9.0334 N   0  0  0  0  0  0  0  0  0  0  0  0
  -15.7700  -39.2852   -8.6775 C   0  0  1  0  0  0  0  0  0  0  0  0
  -15.1148  -38.5812   -9.7892 C   0  0  0  0  0  0  0  0  0  0  0  0
  -14.0103  -39.2141  -10.5575 C   0  0  0  0  0  0  0  0  0  0  0  0
  -14.2570  -39.0437  -11.9427 C   0  0  0  0  0  0  0  0  0  0  0  0
  -13.4446  -39.5116  -12.9391 C   0  0  0  0  0  0  0  0  0  0  0  0
  -12.3326  -40.1834  -12.5000 C   0  0  0  0  0  0  0  0  0  0  0  0
  -12.0394  -40.3823  -11.1354 C   0  0  0  0  0  0  0  0  0  0  0  0
  -12.8887  -39.8891  -10.1607 C   0  0  0  0  0  0  0  0  0  0  0  0
  -10.8653  -41.0900  -10.9933 O   0  0  0  0  0  0  0  0  0  0  0  0
  -10.4179  -42.2197  -10.3512 C   0  0  0  0  0  0  0  0  0  0  0  0
  -11.0570  -43.4540  -10.8832 C   0  0  0  0  0  0  0  0  0  0  0  0
  -11.5439  -44.4033   -9.8299 C   0  0  0  0  0  0  0  0  0  0  0  0
  -12.9513  -44.1246   -9.3684 C   0  0  0  0  0  0  0  0  0  0  0  0
  -14.0068  -44.5550  -10.3364 C   0  0  0  0  0  0  0  0  0  0  0  0
  -15.3278  -44.4510   -9.6694 C   0  0  0  0  0  0  0  0  0  0  0  0
  -15.6252  -45.3732   -8.8438 O   0  0  0  0  0  0  0  0  0  0  0  0
  -16.2616  -43.4296   -9.8750 N   0  0  0  0  0  0  0  0  0  0  0  0
  -17.6647  -43.6714   -9.6151 C   0  0  0  0  0  0  0  0  0  0  0  0
  -16.1187  -38.3370   -7.5237 C   0  0  2  0  0  0  0  0  0  0  0  0
  -15.7338  -38.9089   -6.3140 O   0  0  0  0  0  0  0  0  0  0  0  0
  -17.6107  -38.0648   -7.4959 C   0  0  0  0  0  0  0  0  0  0  0  0
  -18.2164  -38.9791   -6.5543 N   0  0  0  0  0  0  0  0  0  0  0  0
  -19.6137  -39.2190   -6.8172 C   0  0  0  0  0  0  0  0  0  0  0  0
  -20.2766  -40.4856   -6.4025 C   0  0  0  0  0  0  0  0  0  0  0  0
  -20.5323  -39.1788   -5.6733 C   0  0  0  0  0  0  0  0  0  0  0  0
  -20.1161  -38.6786   -8.1271 C   0  0  0  0  0  0  0  0  0  0  0  0
  -19.2986  -37.9016   -8.9052 C   0  0  0  0  0  0  0  0  0  0  0  0
  -19.7648  -37.4001  -10.1154 C   0  0  0  0  0  0  0  0  0  0  0  0
  -21.0368  -37.6605  -10.5656 C   0  0  0  0  0  0  0  0  0  0  0  0
  -21.8567  -38.4389   -9.7869 C   0  0  0  0  0  0  0  0  0  0  0  0
  -23.6336  -38.8307  -10.3666 Br  0  0  0  0  0  0  0  0  0  0  0  0
  -21.3919  -38.9448   -8.5701 C   0  0  0  0  0  0  0  0  0  0  0  0
  2  1  1  6
  2  3  1  0
  3  4  2  0
  3  5  1  0
  5  6  1  0
  6  7  1  6
  7  8  1  0
  8  9  1  0
  9 10  2  0
 10 11  1  0
 11 12  2  0
 12 13  1  0
 12 14  1  0
 14 15  1  0
 15 16  1  0
 16 17  1  0
 17 18  1  0
 18 19  1  0
 19 20  1  0
 20 21  2  0
 20 22  1  0
 22 23  1  0
  6 24  1  0
 24 25  1  1
 24 26  1  0
 26 27  1  0
 27 28  1  0
 28 29  1  0
 29 30  1  0
 28 31  1  0
 31 32  2  0
 32 33  1  0
 33 34  2  0
 34 35  1  0
 35 36  1  0
 35 37  2  0
 13  8  2  0
 22  2  1  0
 30 28  1  0
 37 31  1  0
M  END
$$$$
