
     RDKit          3D

 37 40  0  0  0  0  0  0  0  0999 V2000
  -19.6715  -42.9278   -6.1617 C   0  0  0  0  0  0  0  0  0  0  0  0
  -19.3873  -42.2557   -7.5101 C   0  0  1  0  0  0  0  0  0  0  0  0
  -18.0526  -41.6142   -7.4299 C   0  0  0  0  0  0  0  0  0  0  0  0
  -17.1653  -42.2844   -6.7958 O   0  0  0  0  0  0  0  0  0  0  0  0
  -17.6850  -40.3755   -7.9704 N   0  0  0  0  0  0  0  0  0  0  0  0
  -18.4484  -39.1469   -7.9016 C   0  0  1  0  0  0  0  0  0  0  0  0
  -18.9360  -38.7668   -6.5679 C   0  0  0  0  0  0  0  0  0  0  0  0
  -20.2493  -39.2467   -6.0624 C   0  0  0  0  0  0  0  0  0  0  0  0
  -20.0843  -39.7309   -4.7406 C   0  0  0  0  0  0  0  0  0  0  0  0
  -21.0892  -40.2567   -3.9755 C   0  0  0  0  0  0  0  0  0  0  0  0
  -22.3154  -40.2895   -4.5887 C   0  0  0  0  0  0  0  0  0  0  0  0
  -22.5352  -39.8225   -5.9007 C   0  0  0  0  0  0  0  0  0  0  0  0
  -21.4893  -39.2959   -6.6378 C   0  0  0  0  0  0  0  0  0  0  0  0
  -23.8578  -39.9830   -6.2537 O   0  0  0  0  0  0  0  0  0  0  0  0
  -24.5882  -40.5480   -7.2716 C   0  0  0  0  0  0  0  0  0  0  0  0
  -24.4329  -42.0274   -7.3152 C   0  0  0  0  0  0  0  0  0  0  0  0
  -24.1884  -42.5849   -8.6853 C   0  0  0  0  0  0  0  0  0  0  0  0
  -22.7316  -42.6302   -9.0687 C   0  0  0  0  0  0  0  0  0  0  0  0
  -21.9623  -43.7319   -8.4124 C   0  0  0  0  0  0  0  0  0  0  0  0
  -20.6253  -43.8168   -9.0495 C   0  0  0  0  0  0  0  0  0  0  0  0
  -20.5707  -44.3783  -10.1906 O   0  0  0  0  0  0  0  0  0  0  0  0
  -19.4331  -43.3330   -8.4997 N   0  0  0  0  0  0  0  0  0  0  0  0
  -18.1668  -43.9024   -8.9080 C   0  0  0  0  0  0  0  0  0  0  0  0
  -17.7108  -37.9937   -8.5931 C   0  0  2  0  0  0  0  0  0  0  0  0
  -18.6280  -37.0307   -9.0056 O   0  0  0  0  0  0  0  0  0  0  0  0
  -16.9450  -38.5038   -9.7990 C   0  0  0  0  0  0  0  0  0  0  0  0
  -15.6215  -37.9233   -9.7688 N   0  0  0  0  0  0  0  0  0  0  0  0
  -15.0196  -37.8182  -11.0748 C   0  0  0  0  0  0  0  0  0  0  0  0
  -15.3646  -38.7668  -12.1687 C   0  0  0  0  0  0  0  0  0  0  0  0
  -15.8664  -37.3340  -12.1713 C   0  0  0  0  0  0  0  0  0  0  0  0
  -13.5764  -37.3969  -11.0775 C   0  0  0  0  0  0  0  0  0  0  0  0
  -12.9019  -37.2741  -12.2639 C   0  0  0  0  0  0  0  0  0  0  0  0
  -11.5664  -36.8868  -12.2655 C   0  0  0  0  0  0  0  0  0  0  0  0
  -10.8885  -36.6187  -11.1006 C   0  0  0  0  0  0  0  0  0  0  0  0
  -11.5633  -36.7414   -9.9114 C   0  0  0  0  0  0  0  0  0  0  0  0
  -10.6674  -36.3805   -8.2639 Br  0  0  0  0  0  0  0  0  0  0  0  0
  -12.9054  -37.1303   -9.9055 C   0  0  0  0  0  0  0  0  0  0  0  0
  2  1  1  1
  2  3  1  0
  3  4  2  0
  3  5  1  0
  5  6  1  0
  6  7  1  1
  7  8  1  0
  8  9  1  0
  9 10  2  0
 10 11  1  0
 11 12  2  0
 12 13  1  0
 12 14  1  0
 14 15  1  0
 15 16  1  0
 16 17  1  0
 17 18  1  0
 18 19  1  0
 19 20  1  0
 20 21  2  0
 20 22  1  0
 22 23  1  0
  6 24  1  0
 24 25  1  6
 24 26  1  0
 26 27  1  0
 27 28  1  0
 28 29  1  0
 29 30  1  0
 28 31  1  0
 31 32  2  0
 32 33  1  0
 33 34  2  0
 34 35  1  0
 35 36  1  0
 35 37  2  0
 13  8  2  0
 22  2  1  0
 30 28  1  0
 37 31  1  0
M  END
$$$$
