
     RDKit          3D

 37 40  0  0  0  0  0  0  0  0999 V2000
  -19.6910  -43.2412   -6.9729 C   0  0  0  0  0  0  0  0  0  0  0  0
  -18.9334  -42.3823   -7.9923 C   0  0  1  0  0  0  0  0  0  0  0  0
  -17.5984  -42.0707   -7.4265 C   0  0  0  0  0  0  0  0  0  0  0  0
  -17.0418  -43.0305   -6.7881 O   0  0  0  0  0  0  0  0  0  0  0  0
  -16.9103  -40.8548   -7.5248 N   0  0  0  0  0  0  0  0  0  0  0  0
  -17.4691  -39.5328   -7.3324 C   0  0  1  0  0  0  0  0  0  0  0  0
  -18.2580  -39.3403   -6.1071 C   0  0  0  0  0  0  0  0  0  0  0  0
  -19.7176  -39.6227   -6.0786 C   0  0  0  0  0  0  0  0  0  0  0  0
  -20.0146  -40.3923   -4.9261 C   0  0  0  0  0  0  0  0  0  0  0  0
  -21.2640  -40.8377   -4.5910 C   0  0  0  0  0  0  0  0  0  0  0  0
  -22.2520  -40.4814   -5.4729 C   0  0  0  0  0  0  0  0  0  0  0  0
  -22.0122  -39.7185   -6.6340 C   0  0  0  0  0  0  0  0  0  0  0  0
  -20.7319  -39.2868   -6.9325 C   0  0  0  0  0  0  0  0  0  0  0  0
  -23.1854  -39.5171   -7.3286 O   0  0  0  0  0  0  0  0  0  0  0  0
  -23.6671  -39.6915   -8.6040 C   0  0  0  0  0  0  0  0  0  0  0  0
  -23.7282  -41.1286   -8.9857 C   0  0  0  0  0  0  0  0  0  0  0  0
  -23.1851  -41.4312  -10.3500 C   0  0  0  0  0  0  0  0  0  0  0  0
  -21.7033  -41.7062  -10.3638 C   0  0  0  0  0  0  0  0  0  0  0  0
  -21.3291  -43.0575   -9.8441 C   0  0  0  0  0  0  0  0  0  0  0  0
  -19.8934  -43.2925  -10.1345 C   0  0  0  0  0  0  0  0  0  0  0  0
  -19.5965  -43.6056  -11.3322 O   0  0  0  0  0  0  0  0  0  0  0  0
  -18.8521  -43.1978   -9.2049 N   0  0  0  0  0  0  0  0  0  0  0  0
  -17.6215  -43.9276   -9.4228 C   0  0  0  0  0  0  0  0  0  0  0  0
  -16.4003  -38.4464   -7.5034 C   0  0  2  0  0  0  0  0  0  0  0  0
  -17.0133  -37.2070   -7.6679 O   0  0  0  0  0  0  0  0  0  0  0  0
  -15.5357  -38.7413   -8.7144 C   0  0  0  0  0  0  0  0  0  0  0  0
  -14.7032  -39.8817   -8.4047 N   0  0  0  0  0  0  0  0  0  0  0  0
  -13.7791  -40.2114   -9.4611 C   0  0  0  0  0  0  0  0  0  0  0  0
  -12.4242  -40.7537   -9.1680 C   0  0  0  0  0  0  0  0  0  0  0  0
  -13.5304  -41.6344   -9.7207 C   0  0  0  0  0  0  0  0  0  0  0  0
  -13.8131  -39.2877  -10.6468 C   0  0  0  0  0  0  0  0  0  0  0  0
  -13.5381  -39.7715  -11.8989 C   0  0  0  0  0  0  0  0  0  0  0  0
  -13.5673  -38.9160  -12.9947 C   0  0  0  0  0  0  0  0  0  0  0  0
  -13.8671  -37.5813  -12.8639 C   0  0  0  0  0  0  0  0  0  0  0  0
  -14.1429  -37.0955  -11.6099 C   0  0  0  0  0  0  0  0  0  0  0  0
  -14.5654  -35.2482  -11.3734 Br  0  0  0  0  0  0  0  0  0  0  0  0
  -14.1146  -37.9520  -10.5062 C   0  0  0  0  0  0  0  0  0  0  0  0
  2  1  1  1
  2  3  1  0
  3  4  2  0
  3  5  1  0
  5  6  1  0
  6  7  1  1
  7  8  1  0
  8  9  1  0
  9 10  2  0
 10 11  1  0
 11 12  2  0
 12 13  1  0
 12 14  1  0
 14 15  1  0
 15 16  1  0
 16 17  1  0
 17 18  1  0
 18 19  1  0
 19 20  1  0
 20 21  2  0
 20 22  1  0
 22 23  1  0
  6 24  1  0
 24 25  1  6
 24 26  1  0
 26 27  1  0
 27 28  1  0
 28 29  1  0
 29 30  1  0
 28 31  1  0
 31 32  2  0
 32 33  1  0
 33 34  2  0
 34 35  1  0
 35 36  1  0
 35 37  2  0
 13  8  2  0
 22  2  1  0
 30 28  1  0
 37 31  1  0
M  END
$$$$
