
     RDKit          3D

 37 40  0  0  0  0  0  0  0  0999 V2000
  -15.7484  -41.4825  -11.9436 C   0  0  0  0  0  0  0  0  0  0  0  0
  -15.8521  -41.4973  -10.4140 C   0  0  1  0  0  0  0  0  0  0  0  0
  -17.2267  -41.0815  -10.0439 C   0  0  0  0  0  0  0  0  0  0  0  0
  -18.1538  -41.5374  -10.7998 O   0  0  0  0  0  0  0  0  0  0  0  0
  -17.5925  -40.2580   -8.9718 N   0  0  0  0  0  0  0  0  0  0  0  0
  -16.9490  -39.0216   -8.5790 C   0  0  1  0  0  0  0  0  0  0  0  0
  -16.7244  -38.0440   -9.6536 C   0  0  0  0  0  0  0  0  0  0  0  0
  -15.4820  -38.0690  -10.4702 C   0  0  0  0  0  0  0  0  0  0  0  0
  -15.8299  -37.9622  -11.8400 C   0  0  0  0  0  0  0  0  0  0  0  0
  -14.9309  -37.9619  -12.8713 C   0  0  0  0  0  0  0  0  0  0  0  0
  -13.6199  -38.0765  -12.4852 C   0  0  0  0  0  0  0  0  0  0  0  0
  -13.2186  -38.1866  -11.1381 C   0  0  0  0  0  0  0  0  0  0  0  0
  -14.1627  -38.1801  -10.1265 C   0  0  0  0  0  0  0  0  0  0  0  0
  -11.8471  -38.2906  -11.0513 O   0  0  0  0  0  0  0  0  0  0  0  0
  -10.9139  -39.1240  -10.4827 C   0  0  0  0  0  0  0  0  0  0  0  0
  -10.9447  -40.4865  -11.0806 C   0  0  0  0  0  0  0  0  0  0  0  0
  -10.9106  -41.6032  -10.0808 C   0  0  0  0  0  0  0  0  0  0  0  0
  -12.2739  -42.0159   -9.5883 C   0  0  0  0  0  0  0  0  0  0  0  0
  -13.0554  -42.8309  -10.5689 C   0  0  0  0  0  0  0  0  0  0  0  0
  -14.2551  -43.3699   -9.8827 C   0  0  0  0  0  0  0  0  0  0  0  0
  -14.0728  -44.3654   -9.1105 O   0  0  0  0  0  0  0  0  0  0  0  0
  -15.5567  -42.8746  -10.0167 N   0  0  0  0  0  0  0  0  0  0  0  0
  -16.6881  -43.7388   -9.7567 C   0  0  0  0  0  0  0  0  0  0  0  0
  -17.6462  -38.3918   -7.3669 C   0  0  2  0  0  0  0  0  0  0  0  0
  -16.7039  -38.0945   -6.3858 O   0  0  0  0  0  0  0  0  0  0  0  0
  -18.6783  -39.3458   -6.7961 C   0  0  0  0  0  0  0  0  0  0  0  0
  -19.1813  -40.1625   -7.8775 N   0  0  0  0  0  0  0  0  0  0  0  0
  -20.4784  -39.7432   -8.3474 C   0  0  0  0  0  0  0  0  0  0  0  0
  -20.7525  -39.5413   -9.7965 C   0  0  0  0  0  0  0  0  0  0  0  0
  -21.2990  -40.7411   -9.0437 C   0  0  0  0  0  0  0  0  0  0  0  0
  -21.1896  -38.7611   -7.4587 C   0  0  0  0  0  0  0  0  0  0  0  0
  -21.7691  -37.6438   -8.0000 C   0  0  0  0  0  0  0  0  0  0  0  0
  -22.4246  -36.7346   -7.1771 C   0  0  0  0  0  0  0  0  0  0  0  0
  -22.5131  -36.9204   -5.8183 C   0  0  0  0  0  0  0  0  0  0  0  0
  -21.9329  -38.0396   -5.2748 C   0  0  0  0  0  0  0  0  0  0  0  0
  -22.0272  -38.3451   -3.3921 Br  0  0  0  0  0  0  0  0  0  0  0  0
  -21.2733  -38.9556   -6.0985 C   0  0  0  0  0  0  0  0  0  0  0  0
  2  1  1  6
  2  3  1  0
  3  4  2  0
  3  5  1  0
  5  6  1  0
  6  7  1  6
  7  8  1  0
  8  9  1  0
  9 10  2  0
 10 11  1  0
 11 12  2  0
 12 13  1  0
 12 14  1  0
 14 15  1  0
 15 16  1  0
 16 17  1  0
 17 18  1  0
 18 19  1  0
 19 20  1  0
 20 21  2  0
 20 22  1  0
 22 23  1  0
  6 24  1  0
 24 25  1  1
 24 26  1  0
 26 27  1  0
 27 28  1  0
 28 29  1  0
 29 30  1  0
 28 31  1  0
 31 32  2  0
 32 33  1  0
 33 34  2  0
 34 35  1  0
 35 36  1  0
 35 37  2  0
 13  8  2  0
 22  2  1  0
 30 28  1  0
 37 31  1  0
M  END
$$$$
