
     RDKit          3D

 37 40  0  0  0  0  0  0  0  0999 V2000
  -20.0634  -42.9334   -5.3981 C   0  0  0  0  0  0  0  0  0  0  0  0
  -19.4647  -42.6116   -6.7724 C   0  0  1  0  0  0  0  0  0  0  0  0
  -18.1377  -41.9847   -6.5586 C   0  0  0  0  0  0  0  0  0  0  0  0
  -17.4448  -42.4909   -5.6088 O   0  0  0  0  0  0  0  0  0  0  0  0
  -17.5891  -40.9183   -7.2819 N   0  0  0  0  0  0  0  0  0  0  0  0
  -18.2713  -39.7012   -7.6696 C   0  0  1  0  0  0  0  0  0  0  0  0
  -18.9993  -39.0036   -6.6000 C   0  0  0  0  0  0  0  0  0  0  0  0
  -20.4164  -39.3319   -6.2919 C   0  0  0  0  0  0  0  0  0  0  0  0
  -20.5592  -39.4829   -4.8899 C   0  0  0  0  0  0  0  0  0  0  0  0
  -21.7317  -39.7962   -4.2584 C   0  0  0  0  0  0  0  0  0  0  0  0
  -22.8041  -39.9631   -5.0968 C   0  0  0  0  0  0  0  0  0  0  0  0
  -22.7179  -39.8258   -6.4973 C   0  0  0  0  0  0  0  0  0  0  0  0
  -21.5111  -39.5053   -7.0935 C   0  0  0  0  0  0  0  0  0  0  0  0
  -23.9463  -40.0523   -7.0798 O   0  0  0  0  0  0  0  0  0  0  0  0
  -24.4844  -40.8391   -8.0699 C   0  0  0  0  0  0  0  0  0  0  0  0
  -24.4169  -42.2866   -7.7308 C   0  0  0  0  0  0  0  0  0  0  0  0
  -23.9298  -43.1625   -8.8459 C   0  0  0  0  0  0  0  0  0  0  0  0
  -22.4310  -43.3156   -8.8841 C   0  0  0  0  0  0  0  0  0  0  0  0
  -21.8850  -44.2338   -7.8376 C   0  0  0  0  0  0  0  0  0  0  0  0
  -20.4532  -44.4855   -8.1328 C   0  0  0  0  0  0  0  0  0  0  0  0
  -20.1991  -45.3076   -9.0709 O   0  0  0  0  0  0  0  0  0  0  0  0
  -19.3725  -43.8961   -7.4677 N   0  0  0  0  0  0  0  0  0  0  0  0
  -18.0875  -44.5617   -7.4477 C   0  0  0  0  0  0  0  0  0  0  0  0
  -17.3356  -38.7585   -8.4362 C   0  0  2  0  0  0  0  0  0  0  0  0
  -18.0618  -38.0501   -9.3900 O   0  0  0  0  0  0  0  0  0  0  0  0
  -16.2398  -39.5479   -9.1268 C   0  0  0  0  0  0  0  0  0  0  0  0
  -15.0474  -39.4671   -8.3136 N   0  0  0  0  0  0  0  0  0  0  0  0
  -13.8569  -39.8845   -9.0116 C   0  0  0  0  0  0  0  0  0  0  0  0
  -12.5390  -39.9613   -8.3240 C   0  0  0  0  0  0  0  0  0  0  0  0
  -13.3175  -41.2116   -8.6922 C   0  0  0  0  0  0  0  0  0  0  0  0
  -13.7635  -39.4255  -10.4402 C   0  0  0  0  0  0  0  0  0  0  0  0
  -14.0599  -40.2933  -11.4582 C   0  0  0  0  0  0  0  0  0  0  0  0
  -13.9709  -39.8688  -12.7794 C   0  0  0  0  0  0  0  0  0  0  0  0
  -13.5902  -38.5891  -13.1049 C   0  0  0  0  0  0  0  0  0  0  0  0
  -13.2931  -37.7187  -12.0857 C   0  0  0  0  0  0  0  0  0  0  0  0
  -12.7588  -35.9291  -12.4840 Br  0  0  0  0  0  0  0  0  0  0  0  0
  -13.3813  -38.1416  -10.7568 C   0  0  0  0  0  0  0  0  0  0  0  0
  2  1  1  1
  2  3  1  0
  3  4  2  0
  3  5  1  0
  5  6  1  0
  6  7  1  1
  7  8  1  0
  8  9  1  0
  9 10  2  0
 10 11  1  0
 11 12  2  0
 12 13  1  0
 12 14  1  0
 14 15  1  0
 15 16  1  0
 16 17  1  0
 17 18  1  0
 18 19  1  0
 19 20  1  0
 20 21  2  0
 20 22  1  0
 22 23  1  0
  6 24  1  0
 24 25  1  6
 24 26  1  0
 26 27  1  0
 27 28  1  0
 28 29  1  0
 29 30  1  0
 28 31  1  0
 31 32  2  0
 32 33  1  0
 33 34  2  0
 34 35  1  0
 35 36  1  0
 35 37  2  0
 13  8  2  0
 22  2  1  0
 30 28  1  0
 37 31  1  0
M  END
$$$$
