
     RDKit          3D

 37 40  0  0  0  0  0  0  0  0999 V2000
  -16.4751  -41.0761  -11.8613 C   0  0  0  0  0  0  0  0  0  0  0  0
  -16.2254  -41.3603  -10.3755 C   0  0  1  0  0  0  0  0  0  0  0  0
  -17.3209  -40.7313   -9.5984 C   0  0  0  0  0  0  0  0  0  0  0  0
  -18.4825  -40.8190  -10.1289 O   0  0  0  0  0  0  0  0  0  0  0  0
  -17.2028  -40.0684   -8.3704 N   0  0  0  0  0  0  0  0  0  0  0  0
  -16.1863  -39.1023   -8.0092 C   0  0  1  0  0  0  0  0  0  0  0  0
  -15.9667  -38.0108   -8.9690 C   0  0  0  0  0  0  0  0  0  0  0  0
  -14.9956  -38.1514  -10.0862 C   0  0  0  0  0  0  0  0  0  0  0  0
  -15.6079  -37.7106  -11.2859 C   0  0  0  0  0  0  0  0  0  0  0  0
  -15.0014  -37.7103  -12.5123 C   0  0  0  0  0  0  0  0  0  0  0  0
  -13.7136  -38.1820  -12.5117 C   0  0  0  0  0  0  0  0  0  0  0  0
  -13.0572  -38.6334  -11.3485 C   0  0  0  0  0  0  0  0  0  0  0  0
  -13.7088  -38.6134  -10.1280 C   0  0  0  0  0  0  0  0  0  0  0  0
  -11.7785  -39.0509  -11.6485 O   0  0  0  0  0  0  0  0  0  0  0  0
  -10.9909  -40.1622  -11.4648 C   0  0  0  0  0  0  0  0  0  0  0  0
  -11.5129  -41.3442  -12.2031 C   0  0  0  0  0  0  0  0  0  0  0  0
  -11.5435  -42.6114  -11.4022 C   0  0  0  0  0  0  0  0  0  0  0  0
  -12.8167  -42.8008  -10.6184 C   0  0  0  0  0  0  0  0  0  0  0  0
  -13.9872  -43.2210  -11.4489 C   0  0  0  0  0  0  0  0  0  0  0  0
  -15.0955  -43.6043  -10.5404 C   0  0  0  0  0  0  0  0  0  0  0  0
  -15.0077  -44.7444   -9.9811 O   0  0  0  0  0  0  0  0  0  0  0  0
  -16.2173  -42.8187  -10.2537 N   0  0  0  0  0  0  0  0  0  0  0  0
  -17.4443  -43.4466   -9.8124 C   0  0  0  0  0  0  0  0  0  0  0  0
  -16.3975  -38.5787   -6.5833 C   0  0  2  0  0  0  0  0  0  0  0  0
  -15.5866  -39.2855   -5.6991 O   0  0  0  0  0  0  0  0  0  0  0  0
  -17.8480  -38.7409   -6.1701 C   0  0  0  0  0  0  0  0  0  0  0  0
  -18.6370  -37.7876   -6.9173 N   0  0  0  0  0  0  0  0  0  0  0  0
  -20.0345  -37.8081   -6.5629 C   0  0  0  0  0  0  0  0  0  0  0  0
  -20.5146  -37.2687   -5.2614 C   0  0  0  0  0  0  0  0  0  0  0  0
  -20.7502  -36.5268   -6.5648 C   0  0  0  0  0  0  0  0  0  0  0  0
  -20.7898  -39.0230   -7.0254 C   0  0  0  0  0  0  0  0  0  0  0  0
  -22.0352  -39.2878   -6.5192 C   0  0  0  0  0  0  0  0  0  0  0  0
  -22.7322  -40.4129   -6.9455 C   0  0  0  0  0  0  0  0  0  0  0  0
  -22.2075  -41.2824   -7.8715 C   0  0  0  0  0  0  0  0  0  0  0  0
  -20.9598  -41.0180   -8.3794 C   0  0  0  0  0  0  0  0  0  0  0  0
  -20.1850  -42.1946   -9.6686 Br  0  0  0  0  0  0  0  0  0  0  0  0
  -20.2562  -39.8883   -7.9534 C   0  0  0  0  0  0  0  0  0  0  0  0
  2  1  1  6
  2  3  1  0
  3  4  2  0
  3  5  1  0
  5  6  1  0
  6  7  1  6
  7  8  1  0
  8  9  1  0
  9 10  2  0
 10 11  1  0
 11 12  2  0
 12 13  1  0
 12 14  1  0
 14 15  1  0
 15 16  1  0
 16 17  1  0
 17 18  1  0
 18 19  1  0
 19 20  1  0
 20 21  2  0
 20 22  1  0
 22 23  1  0
  6 24  1  0
 24 25  1  1
 24 26  1  0
 26 27  1  0
 27 28  1  0
 28 29  1  0
 29 30  1  0
 28 31  1  0
 31 32  2  0
 32 33  1  0
 33 34  2  0
 34 35  1  0
 35 36  1  0
 35 37  2  0
 13  8  2  0
 22  2  1  0
 30 28  1  0
 37 31  1  0
M  END
$$$$
