
     RDKit          3D

 37 40  0  0  0  0  0  0  0  0999 V2000
  -19.6724  -42.7430   -8.1915 C   0  0  0  0  0  0  0  0  0  0  0  0
  -19.0514  -41.6594   -9.0809 C   0  0  1  0  0  0  0  0  0  0  0  0
  -17.6356  -41.4883   -8.6737 C   0  0  0  0  0  0  0  0  0  0  0  0
  -17.0206  -42.5718   -8.3799 O   0  0  0  0  0  0  0  0  0  0  0  0
  -16.9300  -40.2819   -8.5840 N   0  0  0  0  0  0  0  0  0  0  0  0
  -17.4076  -39.0483   -7.9947 C   0  0  1  0  0  0  0  0  0  0  0  0
  -17.9922  -39.1620   -6.6508 C   0  0  0  0  0  0  0  0  0  0  0  0
  -19.4389  -39.4493   -6.4621 C   0  0  0  0  0  0  0  0  0  0  0  0
  -19.5815  -40.4766   -5.4961 C   0  0  0  0  0  0  0  0  0  0  0  0
  -20.7791  -40.9954   -5.0859 C   0  0  0  0  0  0  0  0  0  0  0  0
  -21.8780  -40.4403   -5.6900 C   0  0  0  0  0  0  0  0  0  0  0  0
  -21.7934  -39.4176   -6.6569 C   0  0  0  0  0  0  0  0  0  0  0  0
  -20.5602  -38.9209   -7.0403 C   0  0  0  0  0  0  0  0  0  0  0  0
  -23.0518  -39.0591   -7.0898 O   0  0  0  0  0  0  0  0  0  0  0  0
  -23.7290  -38.9212   -8.2778 C   0  0  0  0  0  0  0  0  0  0  0  0
  -23.8965  -40.2233   -8.9789 C   0  0  0  0  0  0  0  0  0  0  0  0
  -23.5797  -40.1838  -10.4438 C   0  0  0  0  0  0  0  0  0  0  0  0
  -22.1278  -40.4407  -10.7556 C   0  0  0  0  0  0  0  0  0  0  0  0
  -21.7242  -41.8761  -10.6408 C   0  0  0  0  0  0  0  0  0  0  0  0
  -20.3589  -42.0274  -11.2009 C   0  0  0  0  0  0  0  0  0  0  0  0
  -20.2600  -42.0396  -12.4700 O   0  0  0  0  0  0  0  0  0  0  0  0
  -19.1847  -42.1563  -10.4510 N   0  0  0  0  0  0  0  0  0  0  0  0
  -18.0275  -42.8061  -11.0282 C   0  0  0  0  0  0  0  0  0  0  0  0
  -16.3414  -37.9482   -8.0655 C   0  0  2  0  0  0  0  0  0  0  0  0
  -16.9466  -36.7259   -8.3455 O   0  0  0  0  0  0  0  0  0  0  0  0
  -15.3273  -38.2639   -9.1486 C   0  0  0  0  0  0  0  0  0  0  0  0
  -14.0870  -38.6376   -8.5072 N   0  0  0  0  0  0  0  0  0  0  0  0
  -13.0198  -38.8911   -9.4430 C   0  0  0  0  0  0  0  0  0  0  0  0
  -12.8267  -38.0427  -10.6507 C   0  0  0  0  0  0  0  0  0  0  0  0
  -11.8951  -37.9483   -9.4557 C   0  0  0  0  0  0  0  0  0  0  0  0
  -12.7074  -40.3436   -9.6727 C   0  0  0  0  0  0  0  0  0  0  0  0
  -13.0362  -40.9339  -10.8647 C   0  0  0  0  0  0  0  0  0  0  0  0
  -12.7491  -42.2780  -11.0756 C   0  0  0  0  0  0  0  0  0  0  0  0
  -12.1375  -43.0474  -10.1151 C   0  0  0  0  0  0  0  0  0  0  0  0
  -11.8075  -42.4571   -8.9204 C   0  0  0  0  0  0  0  0  0  0  0  0
  -10.9562  -43.4819   -7.5523 Br  0  0  0  0  0  0  0  0  0  0  0  0
  -12.0943  -41.1066   -8.7047 C   0  0  0  0  0  0  0  0  0  0  0  0
  2  1  1  1
  2  3  1  0
  3  4  2  0
  3  5  1  0
  5  6  1  0
  6  7  1  1
  7  8  1  0
  8  9  1  0
  9 10  2  0
 10 11  1  0
 11 12  2  0
 12 13  1  0
 12 14  1  0
 14 15  1  0
 15 16  1  0
 16 17  1  0
 17 18  1  0
 18 19  1  0
 19 20  1  0
 20 21  2  0
 20 22  1  0
 22 23  1  0
  6 24  1  0
 24 25  1  6
 24 26  1  0
 26 27  1  0
 27 28  1  0
 28 29  1  0
 29 30  1  0
 28 31  1  0
 31 32  2  0
 32 33  1  0
 33 34  2  0
 34 35  1  0
 35 36  1  0
 35 37  2  0
 13  8  2  0
 22  2  1  0
 30 28  1  0
 37 31  1  0
M  END
$$$$
