
     RDKit          3D

 37 40  0  0  0  0  0  0  0  0999 V2000
  -15.5980  -40.3914  -12.7410 C   0  0  0  0  0  0  0  0  0  0  0  0
  -15.2499  -40.6944  -11.2788 C   0  0  1  0  0  0  0  0  0  0  0  0
  -16.4876  -40.5521  -10.4743 C   0  0  0  0  0  0  0  0  0  0  0  0
  -17.5517  -40.9930  -11.0328 O   0  0  0  0  0  0  0  0  0  0  0  0
  -16.5948  -39.9946   -9.1940 N   0  0  0  0  0  0  0  0  0  0  0  0
  -15.9738  -38.7695   -8.7352 C   0  0  1  0  0  0  0  0  0  0  0  0
  -16.1571  -37.5935   -9.5978 C   0  0  0  0  0  0  0  0  0  0  0  0
  -15.2092  -37.2943  -10.7036 C   0  0  0  0  0  0  0  0  0  0  0  0
  -15.9488  -36.9948  -11.8750 C   0  0  0  0  0  0  0  0  0  0  0  0
  -15.3928  -36.6814  -13.0851 C   0  0  0  0  0  0  0  0  0  0  0  0
  -14.0215  -36.6749  -13.0981 C   0  0  0  0  0  0  0  0  0  0  0  0
  -13.2372  -36.9659  -11.9632 C   0  0  0  0  0  0  0  0  0  0  0  0
  -13.8426  -37.2756  -10.7581 C   0  0  0  0  0  0  0  0  0  0  0  0
  -11.8962  -36.8869  -12.2714 O   0  0  0  0  0  0  0  0  0  0  0  0
  -10.7696  -37.6667  -12.1641 C   0  0  0  0  0  0  0  0  0  0  0  0
  -10.8558  -38.8904  -13.0068 C   0  0  0  0  0  0  0  0  0  0  0  0
  -10.4358  -40.1515  -12.3132 C   0  0  0  0  0  0  0  0  0  0  0  0
  -11.5556  -40.8361  -11.5725 C   0  0  0  0  0  0  0  0  0  0  0  0
  -12.5155  -41.5655  -12.4573 C   0  0  0  0  0  0  0  0  0  0  0  0
  -13.4122  -42.3843  -11.6051 C   0  0  0  0  0  0  0  0  0  0  0  0
  -12.9277  -43.4655  -11.1395 O   0  0  0  0  0  0  0  0  0  0  0  0
  -14.7341  -42.0640  -11.2769 N   0  0  0  0  0  0  0  0  0  0  0  0
  -15.6617  -43.1134  -10.9125 C   0  0  0  0  0  0  0  0  0  0  0  0
  -16.3392  -38.4730   -7.2755 C   0  0  2  0  0  0  0  0  0  0  0  0
  -15.3261  -38.9293   -6.4364 O   0  0  0  0  0  0  0  0  0  0  0  0
  -17.6409  -39.1590   -6.9067 C   0  0  0  0  0  0  0  0  0  0  0  0
  -18.5155  -38.1731   -6.3128 N   0  0  0  0  0  0  0  0  0  0  0  0
  -19.8902  -38.6027   -6.2463 C   0  0  0  0  0  0  0  0  0  0  0  0
  -20.3697  -39.5111   -5.1690 C   0  0  0  0  0  0  0  0  0  0  0  0
  -20.7240  -38.0350   -5.1803 C   0  0  0  0  0  0  0  0  0  0  0  0
  -20.5437  -38.8514   -7.5772 C   0  0  0  0  0  0  0  0  0  0  0  0
  -21.4932  -39.8315   -7.7006 C   0  0  0  0  0  0  0  0  0  0  0  0
  -22.0954  -40.0625   -8.9324 C   0  0  0  0  0  0  0  0  0  0  0  0
  -21.7665  -39.3307  -10.0482 C   0  0  0  0  0  0  0  0  0  0  0  0
  -20.8153  -38.3484   -9.9257 C   0  0  0  0  0  0  0  0  0  0  0  0
  -20.3218  -37.3028  -11.4456 Br  0  0  0  0  0  0  0  0  0  0  0  0
  -20.2079  -38.1132   -8.6895 C   0  0  0  0  0  0  0  0  0  0  0  0
  2  1  1  6
  2  3  1  0
  3  4  2  0
  3  5  1  0
  5  6  1  0
  6  7  1  6
  7  8  1  0
  8  9  1  0
  9 10  2  0
 10 11  1  0
 11 12  2  0
 12 13  1  0
 12 14  1  0
 14 15  1  0
 15 16  1  0
 16 17  1  0
 17 18  1  0
 18 19  1  0
 19 20  1  0
 20 21  2  0
 20 22  1  0
 22 23  1  0
  6 24  1  0
 24 25  1  1
 24 26  1  0
 26 27  1  0
 27 28  1  0
 28 29  1  0
 29 30  1  0
 28 31  1  0
 31 32  2  0
 32 33  1  0
 33 34  2  0
 34 35  1  0
 35 36  1  0
 35 37  2  0
 13  8  2  0
 22  2  1  0
 30 28  1  0
 37 31  1  0
M  END
$$$$
