
     RDKit          3D

 37 40  0  0  0  0  0  0  0  0999 V2000
  -16.9755  -42.7361  -11.2471 C   0  0  0  0  0  0  0  0  0  0  0  0
  -16.8822  -42.6283   -9.7205 C   0  0  1  0  0  0  0  0  0  0  0  0
  -17.7366  -41.4958   -9.2882 C   0  0  0  0  0  0  0  0  0  0  0  0
  -18.8446  -41.3801   -9.9186 O   0  0  0  0  0  0  0  0  0  0  0  0
  -17.4490  -40.5670   -8.2802 N   0  0  0  0  0  0  0  0  0  0  0  0
  -16.1849  -39.8935   -8.0670 C   0  0  1  0  0  0  0  0  0  0  0  0
  -15.5882  -39.2566   -9.2499 C   0  0  0  0  0  0  0  0  0  0  0  0
  -14.6801  -40.0101  -10.1545 C   0  0  0  0  0  0  0  0  0  0  0  0
  -15.0740  -39.7811  -11.4966 C   0  0  0  0  0  0  0  0  0  0  0  0
  -14.4604  -40.3288  -12.5899 C   0  0  0  0  0  0  0  0  0  0  0  0
  -13.3987  -41.1465  -12.2980 C   0  0  0  0  0  0  0  0  0  0  0  0
  -12.9654  -41.4092  -10.9823 C   0  0  0  0  0  0  0  0  0  0  0  0
  -13.6148  -40.8312   -9.9059 C   0  0  0  0  0  0  0  0  0  0  0  0
  -11.8845  -42.2643  -10.9932 O   0  0  0  0  0  0  0  0  0  0  0  0
  -11.5107  -43.4550  -10.4175 C   0  0  0  0  0  0  0  0  0  0  0  0
  -12.3660  -44.5860  -10.8692 C   0  0  0  0  0  0  0  0  0  0  0  0
  -12.8363  -45.4864   -9.7666 C   0  0  0  0  0  0  0  0  0  0  0  0
  -14.1267  -45.0391   -9.1293 C   0  0  0  0  0  0  0  0  0  0  0  0
  -15.3420  -45.3108   -9.9575 C   0  0  0  0  0  0  0  0  0  0  0  0
  -16.5443  -45.0520   -9.1280 C   0  0  0  0  0  0  0  0  0  0  0  0
  -16.8532  -45.9451   -8.2751 O   0  0  0  0  0  0  0  0  0  0  0  0
  -17.3560  -43.9152   -9.2093 N   0  0  0  0  0  0  0  0  0  0  0  0
  -18.7350  -43.9805   -8.7747 C   0  0  0  0  0  0  0  0  0  0  0  0
  -16.2605  -38.9322   -6.8745 C   0  0  2  0  0  0  0  0  0  0  0  0
  -15.2281  -39.2096   -5.9823 O   0  0  0  0  0  0  0  0  0  0  0  0
  -17.5910  -39.0788   -6.1609 C   0  0  0  0  0  0  0  0  0  0  0  0
  -18.3225  -37.8417   -6.3161 N   0  0  0  0  0  0  0  0  0  0  0  0
  -19.2011  -37.8433   -7.4593 C   0  0  0  0  0  0  0  0  0  0  0  0
  -18.8999  -37.0357   -8.6728 C   0  0  0  0  0  0  0  0  0  0  0  0
  -18.7412  -38.5455   -8.6632 C   0  0  0  0  0  0  0  0  0  0  0  0
  -20.6672  -37.9155   -7.1341 C   0  0  0  0  0  0  0  0  0  0  0  0
  -21.0771  -38.4363   -5.9350 C   0  0  0  0  0  0  0  0  0  0  0  0
  -22.4333  -38.5050   -5.6359 C   0  0  0  0  0  0  0  0  0  0  0  0
  -23.3922  -38.0617   -6.5149 C   0  0  0  0  0  0  0  0  0  0  0  0
  -22.9827  -37.5396   -7.7167 C   0  0  0  0  0  0  0  0  0  0  0  0
  -24.2750  -36.9096   -8.9737 Br  0  0  0  0  0  0  0  0  0  0  0  0
  -21.6207  -37.4689   -8.0208 C   0  0  0  0  0  0  0  0  0  0  0  0
  2  1  1  6
  2  3  1  0
  3  4  2  0
  3  5  1  0
  5  6  1  0
  6  7  1  6
  7  8  1  0
  8  9  1  0
  9 10  2  0
 10 11  1  0
 11 12  2  0
 12 13  1  0
 12 14  1  0
 14 15  1  0
 15 16  1  0
 16 17  1  0
 17 18  1  0
 18 19  1  0
 19 20  1  0
 20 21  2  0
 20 22  1  0
 22 23  1  0
  6 24  1  0
 24 25  1  1
 24 26  1  0
 26 27  1  0
 27 28  1  0
 28 29  1  0
 29 30  1  0
 28 31  1  0
 31 32  2  0
 32 33  1  0
 33 34  2  0
 34 35  1  0
 35 36  1  0
 35 37  2  0
 13  8  2  0
 22  2  1  0
 30 28  1  0
 37 31  1  0
M  END
$$$$
