
     RDKit          3D

 37 40  0  0  0  0  0  0  0  0999 V2000
  -15.7066  -40.1767  -12.5370 C   0  0  0  0  0  0  0  0  0  0  0  0
  -15.2020  -40.4349  -11.1124 C   0  0  1  0  0  0  0  0  0  0  0  0
  -16.3677  -40.3823  -10.1970 C   0  0  0  0  0  0  0  0  0  0  0  0
  -17.4401  -40.9123  -10.6527 O   0  0  0  0  0  0  0  0  0  0  0  0
  -16.4005  -39.8209   -8.9144 N   0  0  0  0  0  0  0  0  0  0  0  0
  -15.8397  -38.5455   -8.5196 C   0  0  1  0  0  0  0  0  0  0  0  0
  -16.1952  -37.3973   -9.3659 C   0  0  0  0  0  0  0  0  0  0  0  0
  -15.3803  -37.0362  -10.5559 C   0  0  0  0  0  0  0  0  0  0  0  0
  -16.2463  -36.8092  -11.6547 C   0  0  0  0  0  0  0  0  0  0  0  0
  -15.8311  -36.4662  -12.9123 C   0  0  0  0  0  0  0  0  0  0  0  0
  -14.4717  -36.3512  -13.0526 C   0  0  0  0  0  0  0  0  0  0  0  0
  -13.5654  -36.5666  -11.9943 C   0  0  0  0  0  0  0  0  0  0  0  0
  -14.0304  -36.9098  -10.7370 C   0  0  0  0  0  0  0  0  0  0  0  0
  -12.2692  -36.3849  -12.4259 O   0  0  0  0  0  0  0  0  0  0  0  0
  -11.0788  -37.0719  -12.4208 C   0  0  0  0  0  0  0  0  0  0  0  0
  -11.1442  -38.3078  -13.2473 C   0  0  0  0  0  0  0  0  0  0  0  0
  -10.5626  -39.5239  -12.5911 C   0  0  0  0  0  0  0  0  0  0  0  0
  -11.5511  -40.2868  -11.7471 C   0  0  0  0  0  0  0  0  0  0  0  0
  -12.5272  -41.0997  -12.5363 C   0  0  0  0  0  0  0  0  0  0  0  0
  -13.2731  -41.9775  -11.6015 C   0  0  0  0  0  0  0  0  0  0  0  0
  -12.6630  -43.0117  -11.1790 O   0  0  0  0  0  0  0  0  0  0  0  0
  -14.5805  -41.7593  -11.1533 N   0  0  0  0  0  0  0  0  0  0  0  0
  -15.3837  -42.8748  -10.7005 C   0  0  0  0  0  0  0  0  0  0  0  0
  -16.0916  -38.2627   -7.0335 C   0  0  2  0  0  0  0  0  0  0  0  0
  -14.9500  -38.5696   -6.2976 O   0  0  0  0  0  0  0  0  0  0  0  0
  -17.2527  -39.0966   -6.5261 C   0  0  0  0  0  0  0  0  0  0  0  0
  -18.4593  -38.6221   -7.1652 N   0  0  0  0  0  0  0  0  0  0  0  0
  -19.5721  -39.5267   -7.0160 C   0  0  0  0  0  0  0  0  0  0  0  0
  -19.6020  -40.8437   -7.7090 C   0  0  0  0  0  0  0  0  0  0  0  0
  -19.3554  -40.7371   -6.2148 C   0  0  0  0  0  0  0  0  0  0  0  0
  -20.9196  -38.8667   -6.9213 C   0  0  0  0  0  0  0  0  0  0  0  0
  -21.1366  -37.6630   -7.5389 C   0  0  0  0  0  0  0  0  0  0  0  0
  -22.3824  -37.0520   -7.4488 C   0  0  0  0  0  0  0  0  0  0  0  0
  -23.4201  -37.6220   -6.7512 C   0  0  0  0  0  0  0  0  0  0  0  0
  -23.2039  -38.8281   -6.1321 C   0  0  0  0  0  0  0  0  0  0  0  0
  -24.6127  -39.6630   -5.1497 Br  0  0  0  0  0  0  0  0  0  0  0  0
  -21.9533  -39.4453   -6.2203 C   0  0  0  0  0  0  0  0  0  0  0  0
  2  1  1  6
  2  3  1  0
  3  4  2  0
  3  5  1  0
  5  6  1  0
  6  7  1  6
  7  8  1  0
  8  9  1  0
  9 10  2  0
 10 11  1  0
 11 12  2  0
 12 13  1  0
 12 14  1  0
 14 15  1  0
 15 16  1  0
 16 17  1  0
 17 18  1  0
 18 19  1  0
 19 20  1  0
 20 21  2  0
 20 22  1  0
 22 23  1  0
  6 24  1  0
 24 25  1  1
 24 26  1  0
 26 27  1  0
 27 28  1  0
 28 29  1  0
 29 30  1  0
 28 31  1  0
 31 32  2  0
 32 33  1  0
 33 34  2  0
 34 35  1  0
 35 36  1  0
 35 37  2  0
 13  8  2  0
 22  2  1  0
 30 28  1  0
 37 31  1  0
M  END
$$$$
