
     RDKit          3D

 37 40  0  0  0  0  0  0  0  0999 V2000
  -20.4012  -42.9848   -5.9997 C   0  0  0  0  0  0  0  0  0  0  0  0
  -19.6481  -42.5761   -7.2712 C   0  0  1  0  0  0  0  0  0  0  0  0
  -18.2820  -42.1530   -6.8784 C   0  0  0  0  0  0  0  0  0  0  0  0
  -17.7408  -42.8550   -5.9550 O   0  0  0  0  0  0  0  0  0  0  0  0
  -17.5505  -41.0844   -7.4117 N   0  0  0  0  0  0  0  0  0  0  0  0
  -18.0493  -39.7526   -7.6849 C   0  0  1  0  0  0  0  0  0  0  0  0
  -18.7846  -39.1042   -6.5895 C   0  0  0  0  0  0  0  0  0  0  0  0
  -20.2521  -39.2857   -6.4337 C   0  0  0  0  0  0  0  0  0  0  0  0
  -20.5368  -39.5873   -5.0784 C   0  0  0  0  0  0  0  0  0  0  0  0
  -21.7898  -39.8244   -4.5827 C   0  0  0  0  0  0  0  0  0  0  0  0
  -22.7946  -39.7506   -5.5132 C   0  0  0  0  0  0  0  0  0  0  0  0
  -22.5675  -39.4554   -6.8730 C   0  0  0  0  0  0  0  0  0  0  0  0
  -21.2830  -39.2200   -7.3303 C   0  0  0  0  0  0  0  0  0  0  0  0
  -23.7565  -39.4518   -7.5700 O   0  0  0  0  0  0  0  0  0  0  0  0
  -24.2911  -40.0374   -8.6925 C   0  0  0  0  0  0  0  0  0  0  0  0
  -24.4228  -41.5123   -8.5435 C   0  0  0  0  0  0  0  0  0  0  0  0
  -23.9425  -42.3001   -9.7253 C   0  0  0  0  0  0  0  0  0  0  0  0
  -22.4742  -42.6359   -9.6719 C   0  0  0  0  0  0  0  0  0  0  0  0
  -22.1348  -43.7366   -8.7182 C   0  0  0  0  0  0  0  0  0  0  0  0
  -20.7211  -44.1297   -8.9368 C   0  0  0  0  0  0  0  0  0  0  0  0
  -20.4809  -44.8566   -9.9538 O   0  0  0  0  0  0  0  0  0  0  0  0
  -19.6435  -43.7675   -8.1212 N   0  0  0  0  0  0  0  0  0  0  0  0
  -18.4515  -44.5877   -8.0939 C   0  0  0  0  0  0  0  0  0  0  0  0
  -16.9454  -38.8495   -8.2485 C   0  0  2  0  0  0  0  0  0  0  0  0
  -17.3050  -38.4060   -9.5185 O   0  0  0  0  0  0  0  0  0  0  0  0
  -15.6350  -39.6085   -8.3364 C   0  0  0  0  0  0  0  0  0  0  0  0
  -14.6085  -38.6844   -8.7627 N   0  0  0  0  0  0  0  0  0  0  0  0
  -13.7184  -39.2430   -9.7499 C   0  0  0  0  0  0  0  0  0  0  0  0
  -13.8564  -38.9155  -11.1953 C   0  0  0  0  0  0  0  0  0  0  0  0
  -12.7300  -38.3421  -10.3544 C   0  0  0  0  0  0  0  0  0  0  0  0
  -13.2947  -40.6624   -9.4931 C   0  0  0  0  0  0  0  0  0  0  0  0
  -14.2363  -41.6552   -9.4219 C   0  0  0  0  0  0  0  0  0  0  0  0
  -13.8439  -42.9674   -9.1819 C   0  0  0  0  0  0  0  0  0  0  0  0
  -12.5238  -43.3089   -9.0110 C   0  0  0  0  0  0  0  0  0  0  0  0
  -11.5794  -42.3151   -9.0822 C   0  0  0  0  0  0  0  0  0  0  0  0
   -9.7311  -42.7363   -8.8517 Br  0  0  0  0  0  0  0  0  0  0  0  0
  -11.9698  -40.9952   -9.3232 C   0  0  0  0  0  0  0  0  0  0  0  0
  2  1  1  1
  2  3  1  0
  3  4  2  0
  3  5  1  0
  5  6  1  0
  6  7  1  1
  7  8  1  0
  8  9  1  0
  9 10  2  0
 10 11  1  0
 11 12  2  0
 12 13  1  0
 12 14  1  0
 14 15  1  0
 15 16  1  0
 16 17  1  0
 17 18  1  0
 18 19  1  0
 19 20  1  0
 20 21  2  0
 20 22  1  0
 22 23  1  0
  6 24  1  0
 24 25  1  6
 24 26  1  0
 26 27  1  0
 27 28  1  0
 28 29  1  0
 29 30  1  0
 28 31  1  0
 31 32  2  0
 32 33  1  0
 33 34  2  0
 34 35  1  0
 35 36  1  0
 35 37  2  0
 13  8  2  0
 22  2  1  0
 30 28  1  0
 37 31  1  0
M  END
$$$$
