
     RDKit          3D

 37 40  0  0  0  0  0  0  0  0999 V2000
  -19.6959  -42.3615   -5.7995 C   0  0  0  0  0  0  0  0  0  0  0  0
  -19.0814  -42.0393   -7.1667 C   0  0  1  0  0  0  0  0  0  0  0  0
  -17.7369  -41.4563   -6.9388 C   0  0  0  0  0  0  0  0  0  0  0  0
  -17.0641  -41.9966   -5.9933 O   0  0  0  0  0  0  0  0  0  0  0  0
  -17.1527  -40.3974   -7.6450 N   0  0  0  0  0  0  0  0  0  0  0  0
  -17.7956  -39.1548   -8.0185 C   0  0  1  0  0  0  0  0  0  0  0  0
  -18.5068  -38.4499   -6.9423 C   0  0  0  0  0  0  0  0  0  0  0  0
  -19.9346  -38.7389   -6.6446 C   0  0  0  0  0  0  0  0  0  0  0  0
  -20.0883  -38.9047   -5.2455 C   0  0  0  0  0  0  0  0  0  0  0  0
  -21.2727  -39.1906   -4.6232 C   0  0  0  0  0  0  0  0  0  0  0  0
  -22.3459  -39.3130   -5.4682 C   0  0  0  0  0  0  0  0  0  0  0  0
  -22.2492  -39.1592   -6.8663 C   0  0  0  0  0  0  0  0  0  0  0  0
  -21.0304  -38.8677   -7.4531 C   0  0  0  0  0  0  0  0  0  0  0  0
  -23.4812  -39.3400   -7.4569 O   0  0  0  0  0  0  0  0  0  0  0  0
  -24.0387  -40.0963   -8.4601 C   0  0  0  0  0  0  0  0  0  0  0  0
  -24.0170  -41.5497   -8.1408 C   0  0  0  0  0  0  0  0  0  0  0  0
  -23.5518  -42.4246   -9.2660 C   0  0  0  0  0  0  0  0  0  0  0  0
  -22.0582  -42.6230   -9.3002 C   0  0  0  0  0  0  0  0  0  0  0  0
  -21.5453  -43.5718   -8.2642 C   0  0  0  0  0  0  0  0  0  0  0  0
  -20.1205  -43.8632   -8.5570 C   0  0  0  0  0  0  0  0  0  0  0  0
  -19.8875  -44.6797   -9.5054 O   0  0  0  0  0  0  0  0  0  0  0  0
  -19.0254  -43.3164   -7.8793 N   0  0  0  0  0  0  0  0  0  0  0  0
  -17.7614  -44.0212   -7.8633 C   0  0  0  0  0  0  0  0  0  0  0  0
  -16.8280  -38.2307   -8.7681 C   0  0  2  0  0  0  0  0  0  0  0  0
  -17.5053  -37.5736   -9.7920 O   0  0  0  0  0  0  0  0  0  0  0  0
  -15.6834  -39.0315   -9.3592 C   0  0  0  0  0  0  0  0  0  0  0  0
  -14.4466  -38.3648   -9.0196 N   0  0  0  0  0  0  0  0  0  0  0  0
  -13.2982  -38.9295   -9.6839 C   0  0  0  0  0  0  0  0  0  0  0  0
  -12.5291  -38.1578  -10.6981 C   0  0  0  0  0  0  0  0  0  0  0  0
  -11.9778  -38.4117   -9.3065 C   0  0  0  0  0  0  0  0  0  0  0  0
  -13.4023  -40.3963   -9.9969 C   0  0  0  0  0  0  0  0  0  0  0  0
  -14.0569  -40.8097  -11.1273 C   0  0  0  0  0  0  0  0  0  0  0  0
  -14.1550  -42.1666  -11.4149 C   0  0  0  0  0  0  0  0  0  0  0  0
  -13.6097  -43.1227  -10.5920 C   0  0  0  0  0  0  0  0  0  0  0  0
  -12.9536  -42.7096   -9.4591 C   0  0  0  0  0  0  0  0  0  0  0  0
  -12.1780  -43.9979   -8.2819 Br  0  0  0  0  0  0  0  0  0  0  0  0
  -12.8529  -41.3470   -9.1667 C   0  0  0  0  0  0  0  0  0  0  0  0
  2  1  1  1
  2  3  1  0
  3  4  2  0
  3  5  1  0
  5  6  1  0
  6  7  1  1
  7  8  1  0
  8  9  1  0
  9 10  2  0
 10 11  1  0
 11 12  2  0
 12 13  1  0
 12 14  1  0
 14 15  1  0
 15 16  1  0
 16 17  1  0
 17 18  1  0
 18 19  1  0
 19 20  1  0
 20 21  2  0
 20 22  1  0
 22 23  1  0
  6 24  1  0
 24 25  1  6
 24 26  1  0
 26 27  1  0
 27 28  1  0
 28 29  1  0
 29 30  1  0
 28 31  1  0
 31 32  2  0
 32 33  1  0
 33 34  2  0
 34 35  1  0
 35 36  1  0
 35 37  2  0
 13  8  2  0
 22  2  1  0
 30 28  1  0
 37 31  1  0
M  END
$$$$
