
     RDKit          3D

 37 40  0  0  0  0  0  0  0  0999 V2000
  -19.6380  -43.3223   -7.0058 C   0  0  0  0  0  0  0  0  0  0  0  0
  -19.3469  -42.1656   -7.9692 C   0  0  1  0  0  0  0  0  0  0  0  0
  -17.9477  -41.7265   -7.7481 C   0  0  0  0  0  0  0  0  0  0  0  0
  -17.1098  -42.6703   -7.5347 O   0  0  0  0  0  0  0  0  0  0  0  0
  -17.4731  -40.4089   -7.7517 N   0  0  0  0  0  0  0  0  0  0  0  0
  -18.0933  -39.2699   -7.1073 C   0  0  1  0  0  0  0  0  0  0  0  0
  -18.4719  -39.4554   -5.6991 C   0  0  0  0  0  0  0  0  0  0  0  0
  -19.8042  -39.9994   -5.3251 C   0  0  0  0  0  0  0  0  0  0  0  0
  -19.6301  -41.0108   -4.3475 C   0  0  0  0  0  0  0  0  0  0  0  0
  -20.6487  -41.7308   -3.7856 C   0  0  0  0  0  0  0  0  0  0  0  0
  -21.8991  -41.4030   -4.2437 C   0  0  0  0  0  0  0  0  0  0  0  0
  -22.1290  -40.4070   -5.2147 C   0  0  0  0  0  0  0  0  0  0  0  0
  -21.0682  -39.7014   -5.7546 C   0  0  0  0  0  0  0  0  0  0  0  0
  -23.4766  -40.2974   -5.4823 O   0  0  0  0  0  0  0  0  0  0  0  0
  -24.3123  -40.3167   -6.5732 C   0  0  0  0  0  0  0  0  0  0  0  0
  -24.3221  -41.6446   -7.2452 C   0  0  0  0  0  0  0  0  0  0  0  0
  -24.2059  -41.5844   -8.7388 C   0  0  0  0  0  0  0  0  0  0  0  0
  -22.7828  -41.5772   -9.2349 C   0  0  0  0  0  0  0  0  0  0  0  0
  -22.1082  -42.9103   -9.1712 C   0  0  0  0  0  0  0  0  0  0  0  0
  -20.8205  -42.8216   -9.9025 C   0  0  0  0  0  0  0  0  0  0  0  0
  -20.8823  -42.8473  -11.1737 O   0  0  0  0  0  0  0  0  0  0  0  0
  -19.5576  -42.7130   -9.3101 N   0  0  0  0  0  0  0  0  0  0  0  0
  -18.3822  -43.1529  -10.0308 C   0  0  0  0  0  0  0  0  0  0  0  0
  -17.2679  -37.9944   -7.3163 C   0  0  2  0  0  0  0  0  0  0  0  0
  -18.1105  -36.8858   -7.3197 O   0  0  0  0  0  0  0  0  0  0  0  0
  -16.5207  -38.0585   -8.6349 C   0  0  0  0  0  0  0  0  0  0  0  0
  -15.1314  -38.3389   -8.3504 N   0  0  0  0  0  0  0  0  0  0  0  0
  -14.5380  -39.2638   -9.2839 C   0  0  0  0  0  0  0  0  0  0  0  0
  -13.3020  -40.0221   -8.9480 C   0  0  0  0  0  0  0  0  0  0  0  0
  -14.6620  -40.6956   -8.9867 C   0  0  0  0  0  0  0  0  0  0  0  0
  -14.6144  -38.8477  -10.7266 C   0  0  0  0  0  0  0  0  0  0  0  0
  -14.0395  -39.6281  -11.6950 C   0  0  0  0  0  0  0  0  0  0  0  0
  -14.1083  -39.2414  -13.0288 C   0  0  0  0  0  0  0  0  0  0  0  0
  -14.7430  -38.0856  -13.4161 C   0  0  0  0  0  0  0  0  0  0  0  0
  -15.3195  -37.3029  -12.4467 C   0  0  0  0  0  0  0  0  0  0  0  0
  -16.2136  -35.6867  -12.9316 Br  0  0  0  0  0  0  0  0  0  0  0  0
  -15.2524  -37.6882  -11.1052 C   0  0  0  0  0  0  0  0  0  0  0  0
  2  1  1  1
  2  3  1  0
  3  4  2  0
  3  5  1  0
  5  6  1  0
  6  7  1  1
  7  8  1  0
  8  9  1  0
  9 10  2  0
 10 11  1  0
 11 12  2  0
 12 13  1  0
 12 14  1  0
 14 15  1  0
 15 16  1  0
 16 17  1  0
 17 18  1  0
 18 19  1  0
 19 20  1  0
 20 21  2  0
 20 22  1  0
 22 23  1  0
  6 24  1  0
 24 25  1  6
 24 26  1  0
 26 27  1  0
 27 28  1  0
 28 29  1  0
 29 30  1  0
 28 31  1  0
 31 32  2  0
 32 33  1  0
 33 34  2  0
 34 35  1  0
 35 36  1  0
 35 37  2  0
 13  8  2  0
 22  2  1  0
 30 28  1  0
 37 31  1  0
M  END
$$$$
