
     RDKit          3D

 37 40  0  0  0  0  0  0  0  0999 V2000
  -20.7480  -42.2494   -8.5146 C   0  0  0  0  0  0  0  0  0  0  0  0
  -20.1338  -40.8464   -8.5860 C   0  0  1  0  0  0  0  0  0  0  0  0
  -18.6824  -40.9947   -8.8523 C   0  0  0  0  0  0  0  0  0  0  0  0
  -18.3741  -41.9225   -9.6785 O   0  0  0  0  0  0  0  0  0  0  0  0
  -17.6470  -40.2325   -8.2970 N   0  0  0  0  0  0  0  0  0  0  0  0
  -17.5084  -39.8547   -6.9059 C   0  0  1  0  0  0  0  0  0  0  0  0
  -17.6466  -40.9428   -5.9273 C   0  0  0  0  0  0  0  0  0  0  0  0
  -18.9748  -41.3150   -5.3719 C   0  0  0  0  0  0  0  0  0  0  0  0
  -19.1182  -42.7239   -5.4278 C   0  0  0  0  0  0  0  0  0  0  0  0
  -20.2251  -43.4088   -5.0065 C   0  0  0  0  0  0  0  0  0  0  0  0
  -21.2288  -42.6187   -4.5075 C   0  0  0  0  0  0  0  0  0  0  0  0
  -21.1393  -41.2138   -4.4297 C   0  0  0  0  0  0  0  0  0  0  0  0
  -19.9988  -40.5627   -4.8656 C   0  0  0  0  0  0  0  0  0  0  0  0
  -22.2933  -40.6868   -3.8912 O   0  0  0  0  0  0  0  0  0  0  0  0
  -23.2311  -39.7325   -4.2055 C   0  0  0  0  0  0  0  0  0  0  0  0
  -24.0050  -40.0911   -5.4250 C   0  0  0  0  0  0  0  0  0  0  0  0
  -24.1681  -38.9704   -6.4075 C   0  0  0  0  0  0  0  0  0  0  0  0
  -23.0425  -38.8719   -7.4049 C   0  0  0  0  0  0  0  0  0  0  0  0
  -23.0892  -39.9089   -8.4813 C   0  0  0  0  0  0  0  0  0  0  0  0
  -22.0866  -39.5580   -9.5168 C   0  0  0  0  0  0  0  0  0  0  0  0
  -22.3997  -38.6230  -10.3219 O   0  0  0  0  0  0  0  0  0  0  0  0
  -20.8374  -40.1681   -9.6754 N   0  0  0  0  0  0  0  0  0  0  0  0
  -20.1814  -40.1447  -10.9652 C   0  0  0  0  0  0  0  0  0  0  0  0
  -16.2327  -39.0350   -6.6761 C   0  0  2  0  0  0  0  0  0  0  0  0
  -16.5692  -37.7168   -6.3796 O   0  0  0  0  0  0  0  0  0  0  0  0
  -15.3574  -39.0611   -7.9148 C   0  0  0  0  0  0  0  0  0  0  0  0
  -15.3650  -37.7385   -8.4979 N   0  0  0  0  0  0  0  0  0  0  0  0
  -14.8084  -37.7028   -9.8275 C   0  0  0  0  0  0  0  0  0  0  0  0
  -13.3718  -37.3909  -10.0609 C   0  0  0  0  0  0  0  0  0  0  0  0
  -13.9143  -38.8004  -10.2146 C   0  0  0  0  0  0  0  0  0  0  0  0
  -15.7229  -37.1500  -10.8849 C   0  0  0  0  0  0  0  0  0  0  0  0
  -15.4459  -35.9396  -11.4642 C   0  0  0  0  0  0  0  0  0  0  0  0
  -16.2935  -35.4278  -12.4405 C   0  0  0  0  0  0  0  0  0  0  0  0
  -17.4171  -36.1041  -12.8513 C   0  0  0  0  0  0  0  0  0  0  0  0
  -17.6956  -37.3170  -12.2716 C   0  0  0  0  0  0  0  0  0  0  0  0
  -19.2447  -38.2974  -12.8065 Br  0  0  0  0  0  0  0  0  0  0  0  0
  -16.8462  -37.8347  -11.2902 C   0  0  0  0  0  0  0  0  0  0  0  0
  2  1  1  6
  2  3  1  0
  3  4  2  0
  3  5  1  0
  5  6  1  0
  6  7  1  1
  7  8  1  0
  8  9  1  0
  9 10  2  0
 10 11  1  0
 11 12  2  0
 12 13  1  0
 12 14  1  0
 14 15  1  0
 15 16  1  0
 16 17  1  0
 17 18  1  0
 18 19  1  0
 19 20  1  0
 20 21  2  0
 20 22  1  0
 22 23  1  0
  6 24  1  0
 24 25  1  6
 24 26  1  0
 26 27  1  0
 27 28  1  0
 28 29  1  0
 29 30  1  0
 28 31  1  0
 31 32  2  0
 32 33  1  0
 33 34  2  0
 34 35  1  0
 35 36  1  0
 35 37  2  0
 13  8  2  0
 22  2  1  0
 30 28  1  0
 37 31  1  0
M  END
$$$$
