
     RDKit          3D

 42 46  0  0  0  0  0  0  0  0999 V2000
  -10.7129  -36.8678  -10.7903 C   0  0  0  0  0  0  0  0  0  0  0  0
  -11.9915  -36.7227  -11.6211 C   0  0  0  0  0  0  0  0  0  0  0  0
  -12.9376  -35.8538  -10.8408 C   0  0  0  0  0  0  0  0  0  0  0  0
  -12.5543  -38.0894  -11.8460 C   0  0  0  0  0  0  0  0  0  0  0  0
  -13.2655  -38.7459  -10.8535 C   0  0  0  0  0  0  0  0  0  0  0  0
  -13.7862  -40.0081  -11.0424 C   0  0  0  0  0  0  0  0  0  0  0  0
  -14.5358  -40.6419   -9.9296 C   0  0  0  0  0  0  0  0  0  0  0  0
  -15.8713  -40.1676   -9.9482 N   0  0  0  0  0  0  0  0  0  0  0  0
  -16.1791  -39.0194   -9.2128 C   0  0  0  0  0  0  0  0  0  0  0  0
  -17.6137  -38.6652   -9.0035 C   0  0  1  0  0  0  0  0  0  0  0  0
  -18.2373  -38.8877  -10.2619 O   0  0  0  0  0  0  0  0  0  0  0  0
  -18.2774  -39.6079   -7.9834 C   0  0  2  0  0  0  0  0  0  0  0  0
  -19.2446  -38.9289   -7.0957 C   0  0  0  0  0  0  0  0  0  0  0  0
  -20.7106  -38.9943   -7.3463 C   0  0  0  0  0  0  0  0  0  0  0  0
  -21.5294  -40.0463   -7.6331 C   0  0  0  0  0  0  0  0  0  0  0  0
  -22.8776  -39.8263   -7.7708 C   0  0  0  0  0  0  0  0  0  0  0  0
  -23.9874  -40.7918   -8.0534 C   0  0  0  0  0  0  0  0  0  0  0  0
  -24.4579  -41.5837   -6.8611 C   0  0  0  0  0  0  0  0  0  0  0  0
  -23.6493  -42.7776   -6.5198 C   0  0  0  0  0  0  0  0  0  0  0  0
  -22.8678  -42.7294   -5.2602 C   0  0  0  0  0  0  0  0  0  0  0  0
  -21.7064  -43.5113   -5.2079 O   0  0  0  0  0  0  0  0  0  0  0  0
  -20.4705  -43.4252   -5.8367 C   0  0  0  0  0  0  0  0  0  0  0  0
  -19.5637  -42.3794   -5.8428 C   0  0  0  0  0  0  0  0  0  0  0  0
  -18.4046  -42.5495   -6.5614 C   0  0  0  0  0  0  0  0  0  0  0  0
  -18.1760  -43.7687   -7.2543 C   0  0  0  0  0  0  0  0  0  0  0  0
  -19.0549  -44.8169   -7.2607 C   0  0  0  0  0  0  0  0  0  0  0  0
  -20.2052  -44.6164   -6.5369 C   0  0  0  0  0  0  0  0  0  0  0  0
  -18.7889  -46.0052   -7.9688 N   0  0  0  0  0  0  0  0  0  0  0  0
  -19.2158  -46.3347   -9.3077 C   0  0  0  0  0  0  0  0  0  0  0  0
  -19.1779  -47.8422   -9.4053 C   0  0  0  0  0  0  0  0  0  0  0  0
  -18.6342  -48.3680   -8.0962 C   0  0  0  0  0  0  0  0  0  0  0  0
  -18.0479  -47.1279   -7.5089 C   0  0  0  0  0  0  0  0  0  0  0  0
  -17.0557  -47.1516   -6.7373 O   0  0  0  0  0  0  0  0  0  0  0  0
  -17.2764  -41.6364   -6.8287 C   0  0  0  0  0  0  0  0  0  0  0  0
  -16.0949  -42.1609   -6.7177 O   0  0  0  0  0  0  0  0  0  0  0  0
  -17.2535  -40.2702   -7.1932 N   0  0  0  0  0  0  0  0  0  0  0  0
  -23.3907  -38.5204   -7.6157 C   0  0  0  0  0  0  0  0  0  0  0  0
  -22.6171  -37.4280   -7.3294 C   0  0  0  0  0  0  0  0  0  0  0  0
  -21.2846  -37.7076   -7.2026 C   0  0  0  0  0  0  0  0  0  0  0  0
  -13.5706  -40.5730  -12.2414 N   0  0  0  0  0  0  0  0  0  0  0  0
  -12.8867  -39.9686  -13.2291 C   0  0  0  0  0  0  0  0  0  0  0  0
  -12.3542  -38.7036  -13.0644 C   0  0  0  0  0  0  0  0  0  0  0  0
  1  2  1  0
  2  3  1  0
  2  4  1  0
  4  5  2  0
  5  6  1  0
  6  7  1  0
  7  8  1  0
  8  9  1  0
  9 10  1  0
 10 11  1  6
 10 12  1  0
 12 13  1  1
 13 14  1  0
 14 15  1  0
 15 16  2  0
 16 17  1  0
 17 18  1  0
 18 19  1  0
 19 20  1  0
 20 21  1  0
 21 22  1  0
 22 23  1  0
 23 24  2  0
 24 25  1  0
 25 26  2  0
 26 27  1  0
 26 28  1  0
 28 29  1  0
 29 30  1  0
 30 31  1  0
 31 32  1  0
 32 33  2  0
 24 34  1  0
 34 35  2  0
 34 36  1  0
 16 37  1  0
 37 38  2  0
 38 39  1  0
  6 40  2  0
 40 41  1  0
 41 42  2  0
 27 22  2  0
 32 28  1  0
 36 12  1  0
 39 14  2  0
 42  4  1  0
M  END
$$$$
