
     RDKit          3D

 42 46  0  0  0  0  0  0  0  0999 V2000
  -22.5106  -35.7451   -8.0254 C   0  0  0  0  0  0  0  0  0  0  0  0
  -22.1010  -37.1370   -7.5345 C   0  0  0  0  0  0  0  0  0  0  0  0
  -21.8510  -37.0360   -6.0560 C   0  0  0  0  0  0  0  0  0  0  0  0
  -20.8690  -37.5450   -8.2768 C   0  0  0  0  0  0  0  0  0  0  0  0
  -19.6736  -36.8616   -8.1154 C   0  0  0  0  0  0  0  0  0  0  0  0
  -18.5301  -37.2211   -8.7959 C   0  0  0  0  0  0  0  0  0  0  0  0
  -17.2905  -36.4382   -8.5668 C   0  0  0  0  0  0  0  0  0  0  0  0
  -16.6652  -36.9063   -7.3841 N   0  0  0  0  0  0  0  0  0  0  0  0
  -16.7071  -38.2760   -7.1077 C   0  0  0  0  0  0  0  0  0  0  0  0
  -15.9206  -39.2058   -7.9704 C   0  0  1  0  0  0  0  0  0  0  0  0
  -15.0292  -39.8692   -7.0831 O   0  0  0  0  0  0  0  0  0  0  0  0
  -16.8258  -40.2767   -8.6056 C   0  0  2  0  0  0  0  0  0  0  0  0
  -16.3328  -40.7672   -9.9097 C   0  0  0  0  0  0  0  0  0  0  0  0
  -15.5902  -42.0520  -10.0284 C   0  0  0  0  0  0  0  0  0  0  0  0
  -15.8495  -43.2922   -9.5243 C   0  0  0  0  0  0  0  0  0  0  0  0
  -15.0068  -44.3303   -9.8359 C   0  0  0  0  0  0  0  0  0  0  0  0
  -15.0725  -45.7749   -9.4454 C   0  0  0  0  0  0  0  0  0  0  0  0
  -16.0407  -46.6052  -10.2474 C   0  0  0  0  0  0  0  0  0  0  0  0
  -17.4580  -46.5354   -9.8205 C   0  0  0  0  0  0  0  0  0  0  0  0
  -18.4093  -45.8608  -10.7367 C   0  0  0  0  0  0  0  0  0  0  0  0
  -19.5382  -45.2716  -10.1523 O   0  0  0  0  0  0  0  0  0  0  0  0
  -19.7197  -44.1596   -9.3394 C   0  0  0  0  0  0  0  0  0  0  0  0
  -19.3579  -42.8429   -9.5657 C   0  0  0  0  0  0  0  0  0  0  0  0
  -19.6481  -41.9277   -8.5823 C   0  0  0  0  0  0  0  0  0  0  0  0
  -20.3016  -42.3515   -7.3940 C   0  0  0  0  0  0  0  0  0  0  0  0
  -20.6717  -43.6455   -7.1489 C   0  0  0  0  0  0  0  0  0  0  0  0
  -20.3656  -44.5375   -8.1479 C   0  0  0  0  0  0  0  0  0  0  0  0
  -21.3119  -44.0212   -5.9518 N   0  0  0  0  0  0  0  0  0  0  0  0
  -22.6144  -43.6015   -5.4925 C   0  0  0  0  0  0  0  0  0  0  0  0
  -22.6189  -43.7989   -3.9944 C   0  0  0  0  0  0  0  0  0  0  0  0
  -21.2964  -44.4258   -3.6153 C   0  0  0  0  0  0  0  0  0  0  0  0
  -20.8051  -44.8888   -4.9461 C   0  0  0  0  0  0  0  0  0  0  0  0
  -20.0635  -45.8952   -5.0777 O   0  0  0  0  0  0  0  0  0  0  0  0
  -19.3533  -40.4860   -8.4698 C   0  0  0  0  0  0  0  0  0  0  0  0
  -20.3311  -39.7475   -8.0435 O   0  0  0  0  0  0  0  0  0  0  0  0
  -18.1747  -39.7547   -8.7456 N   0  0  0  0  0  0  0  0  0  0  0  0
  -13.8904  -44.0970  -10.6676 C   0  0  0  0  0  0  0  0  0  0  0  0
  -13.5806  -42.8746  -11.2002 C   0  0  0  0  0  0  0  0  0  0  0  0
  -14.4546  -41.8805  -10.8570 C   0  0  0  0  0  0  0  0  0  0  0  0
  -18.6311  -38.2715   -9.6263 N   0  0  0  0  0  0  0  0  0  0  0  0
  -19.7718  -38.9599   -9.8095 C   0  0  0  0  0  0  0  0  0  0  0  0
  -20.9319  -38.6190   -9.1394 C   0  0  0  0  0  0  0  0  0  0  0  0
  1  2  1  0
  2  3  1  0
  2  4  1  0
  4  5  2  0
  5  6  1  0
  6  7  1  0
  7  8  1  0
  8  9  1  0
  9 10  1  0
 10 11  1  1
 10 12  1  0
 12 13  1  6
 13 14  1  0
 14 15  1  0
 15 16  2  0
 16 17  1  0
 17 18  1  0
 18 19  1  0
 19 20  1  0
 20 21  1  0
 21 22  1  0
 22 23  1  0
 23 24  2  0
 24 25  1  0
 25 26  2  0
 26 27  1  0
 26 28  1  0
 28 29  1  0
 29 30  1  0
 30 31  1  0
 31 32  1  0
 32 33  2  0
 24 34  1  0
 34 35  2  0
 34 36  1  0
 16 37  1  0
 37 38  2  0
 38 39  1  0
  6 40  2  0
 40 41  1  0
 41 42  2  0
 27 22  2  0
 32 28  1  0
 36 12  1  0
 39 14  2  0
 42  4  1  0
M  END
$$$$
