
     RDKit          3D

 42 46  0  0  0  0  0  0  0  0999 V2000
  -12.1358  -39.8738  -13.7601 C   0  0  0  0  0  0  0  0  0  0  0  0
  -12.8695  -38.5306  -13.6999 C   0  0  0  0  0  0  0  0  0  0  0  0
  -12.0617  -37.5418  -14.4926 C   0  0  0  0  0  0  0  0  0  0  0  0
  -12.9810  -38.1286  -12.2642 C   0  0  0  0  0  0  0  0  0  0  0  0
  -13.4005  -39.0284  -11.2966 C   0  0  0  0  0  0  0  0  0  0  0  0
  -13.5140  -38.6728   -9.9697 C   0  0  0  0  0  0  0  0  0  0  0  0
  -13.9698  -39.6956   -8.9960 C   0  0  0  0  0  0  0  0  0  0  0  0
  -15.3344  -39.9877   -9.2436 N   0  0  0  0  0  0  0  0  0  0  0  0
  -16.1838  -38.9380   -9.6050 C   0  0  0  0  0  0  0  0  0  0  0  0
  -17.6184  -39.2403   -9.8843 C   0  0  1  0  0  0  0  0  0  0  0  0
  -17.5990  -40.1502  -10.9768 O   0  0  0  0  0  0  0  0  0  0  0  0
  -18.2788  -39.9584   -8.6936 C   0  0  2  0  0  0  0  0  0  0  0  0
  -19.0565  -39.0562   -7.8187 C   0  0  0  0  0  0  0  0  0  0  0  0
  -20.5379  -38.9545   -7.9247 C   0  0  0  0  0  0  0  0  0  0  0  0
  -21.5039  -39.9144   -7.9958 C   0  0  0  0  0  0  0  0  0  0  0  0
  -22.8224  -39.5342   -8.0385 C   0  0  0  0  0  0  0  0  0  0  0  0
  -24.0647  -40.3696   -8.0905 C   0  0  0  0  0  0  0  0  0  0  0  0
  -24.4978  -40.9448   -6.7670 C   0  0  0  0  0  0  0  0  0  0  0  0
  -23.8080  -42.1871   -6.3468 C   0  0  0  0  0  0  0  0  0  0  0  0
  -22.8966  -42.0949   -5.1804 C   0  0  0  0  0  0  0  0  0  0  0  0
  -21.8395  -43.0130   -5.1315 O   0  0  0  0  0  0  0  0  0  0  0  0
  -20.6763  -43.1677   -5.8755 C   0  0  0  0  0  0  0  0  0  0  0  0
  -19.6555  -42.2605   -6.1006 C   0  0  0  0  0  0  0  0  0  0  0  0
  -18.6088  -42.6676   -6.8927 C   0  0  0  0  0  0  0  0  0  0  0  0
  -18.6046  -43.9798   -7.4378 C   0  0  0  0  0  0  0  0  0  0  0  0
  -19.5996  -44.8946   -7.2271 C   0  0  0  0  0  0  0  0  0  0  0  0
  -20.6334  -44.4581   -6.4347 C   0  0  0  0  0  0  0  0  0  0  0  0
  -19.5564  -46.1832   -7.7945 N   0  0  0  0  0  0  0  0  0  0  0  0
  -19.8132  -47.4371   -7.1271 C   0  0  0  0  0  0  0  0  0  0  0  0
  -19.1288  -48.5031   -7.9509 C   0  0  0  0  0  0  0  0  0  0  0  0
  -18.5349  -47.8263   -9.1654 C   0  0  0  0  0  0  0  0  0  0  0  0
  -19.2470  -46.5152   -9.1417 C   0  0  0  0  0  0  0  0  0  0  0  0
  -19.4976  -45.8655  -10.1883 O   0  0  0  0  0  0  0  0  0  0  0  0
  -17.4133  -41.9514   -7.3785 C   0  0  0  0  0  0  0  0  0  0  0  0
  -16.2990  -42.6121   -7.3072 O   0  0  0  0  0  0  0  0  0  0  0  0
  -17.2642  -40.6533   -7.9194 N   0  0  0  0  0  0  0  0  0  0  0  0
  -23.1543  -38.1624   -8.0100 C   0  0  0  0  0  0  0  0  0  0  0  0
  -22.2281  -37.1569   -7.9406 C   0  0  0  0  0  0  0  0  0  0  0  0
  -20.9333  -37.5949   -7.8995 C   0  0  0  0  0  0  0  0  0  0  0  0
  -13.1956  -37.4059   -9.6587 N   0  0  0  0  0  0  0  0  0  0  0  0
  -12.7845  -36.5043  -10.5678 C   0  0  0  0  0  0  0  0  0  0  0  0
  -12.6631  -36.8359  -11.9043 C   0  0  0  0  0  0  0  0  0  0  0  0
  1  2  1  0
  2  3  1  0
  2  4  1  0
  4  5  2  0
  5  6  1  0
  6  7  1  0
  7  8  1  0
  8  9  1  0
  9 10  1  0
 10 11  1  6
 10 12  1  0
 12 13  1  1
 13 14  1  0
 14 15  1  0
 15 16  2  0
 16 17  1  0
 17 18  1  0
 18 19  1  0
 19 20  1  0
 20 21  1  0
 21 22  1  0
 22 23  1  0
 23 24  2  0
 24 25  1  0
 25 26  2  0
 26 27  1  0
 26 28  1  0
 28 29  1  0
 29 30  1  0
 30 31  1  0
 31 32  1  0
 32 33  2  0
 24 34  1  0
 34 35  2  0
 34 36  1  0
 16 37  1  0
 37 38  2  0
 38 39  1  0
  6 40  2  0
 40 41  1  0
 41 42  2  0
 27 22  2  0
 32 28  1  0
 36 12  1  0
 39 14  2  0
 42  4  1  0
M  END
$$$$
