
     RDKit          3D

 42 46  0  0  0  0  0  0  0  0999 V2000
  -11.7181  -41.8680   -9.3396 C   0  0  0  0  0  0  0  0  0  0  0  0
  -11.4069  -41.7039  -10.8304 C   0  0  0  0  0  0  0  0  0  0  0  0
   -9.9838  -41.2338  -10.9427 C   0  0  0  0  0  0  0  0  0  0  0  0
  -12.3652  -40.7051  -11.3954 C   0  0  0  0  0  0  0  0  0  0  0  0
  -13.2147  -39.9800  -10.5742 C   0  0  0  0  0  0  0  0  0  0  0  0
  -14.1078  -39.0594  -11.0790 C   0  0  0  0  0  0  0  0  0  0  0  0
  -14.9823  -38.3240  -10.1323 C   0  0  0  0  0  0  0  0  0  0  0  0
  -14.8518  -38.9020   -8.8448 N   0  0  0  0  0  0  0  0  0  0  0  0
  -15.7965  -39.8511   -8.4435 C   0  0  0  0  0  0  0  0  0  0  0  0
  -17.2423  -39.4826   -8.4785 C   0  0  1  0  0  0  0  0  0  0  0  0
  -17.6812  -39.8295   -9.7858 O   0  0  0  0  0  0  0  0  0  0  0  0
  -18.0560  -40.3227   -7.4776 C   0  0  2  0  0  0  0  0  0  0  0  0
  -18.9570  -39.5169   -6.6272 C   0  0  0  0  0  0  0  0  0  0  0  0
  -20.4099  -39.3954   -6.9281 C   0  0  0  0  0  0  0  0  0  0  0  0
  -21.3473  -40.3361   -7.2380 C   0  0  0  0  0  0  0  0  0  0  0  0
  -22.6504  -39.9458   -7.4234 C   0  0  0  0  0  0  0  0  0  0  0  0
  -23.8652  -40.7631   -7.7397 C   0  0  0  0  0  0  0  0  0  0  0  0
  -24.4738  -41.4769   -6.5606 C   0  0  0  0  0  0  0  0  0  0  0  0
  -23.8378  -42.7617   -6.1858 C   0  0  0  0  0  0  0  0  0  0  0  0
  -23.0995  -42.8028   -4.9002 C   0  0  0  0  0  0  0  0  0  0  0  0
  -22.0510  -43.7271   -4.8039 O   0  0  0  0  0  0  0  0  0  0  0  0
  -20.7938  -43.8064   -5.3900 C   0  0  0  0  0  0  0  0  0  0  0  0
  -19.7601  -42.8861   -5.3696 C   0  0  0  0  0  0  0  0  0  0  0  0
  -18.6090  -43.2104   -6.0469 C   0  0  0  0  0  0  0  0  0  0  0  0
  -18.5162  -44.4551   -6.7257 C   0  0  0  0  0  0  0  0  0  0  0  0
  -19.5221  -45.3817   -6.7575 C   0  0  0  0  0  0  0  0  0  0  0  0
  -20.6607  -45.0282   -6.0749 C   0  0  0  0  0  0  0  0  0  0  0  0
  -19.3877  -46.6007   -7.4502 N   0  0  0  0  0  0  0  0  0  0  0  0
  -19.9349  -46.9313   -8.7444 C   0  0  0  0  0  0  0  0  0  0  0  0
  -20.0019  -48.4398   -8.8030 C   0  0  0  0  0  0  0  0  0  0  0  0
  -19.3961  -48.9709   -7.5236 C   0  0  0  0  0  0  0  0  0  0  0  0
  -18.6882  -47.7595   -7.0156 C   0  0  0  0  0  0  0  0  0  0  0  0
  -17.6442  -47.8317   -6.3190 O   0  0  0  0  0  0  0  0  0  0  0  0
  -17.3642  -42.4524   -6.2793 C   0  0  0  0  0  0  0  0  0  0  0  0
  -16.2646  -43.1235   -6.1249 O   0  0  0  0  0  0  0  0  0  0  0  0
  -17.1532  -41.1039   -6.6492 N   0  0  0  0  0  0  0  0  0  0  0  0
  -22.9960  -38.5833   -7.2923 C   0  0  0  0  0  0  0  0  0  0  0  0
  -22.0982  -37.5969   -6.9846 C   0  0  0  0  0  0  0  0  0  0  0  0
  -20.8178  -38.0444   -6.8104 C   0  0  0  0  0  0  0  0  0  0  0  0
  -14.1139  -38.8979  -12.4121 N   0  0  0  0  0  0  0  0  0  0  0  0
  -13.3056  -39.5815  -13.2415 C   0  0  0  0  0  0  0  0  0  0  0  0
  -12.4020  -40.5103  -12.7601 C   0  0  0  0  0  0  0  0  0  0  0  0
  1  2  1  0
  2  3  1  0
  2  4  1  0
  4  5  2  0
  5  6  1  0
  6  7  1  0
  7  8  1  0
  8  9  1  0
  9 10  1  0
 10 11  1  6
 10 12  1  0
 12 13  1  1
 13 14  1  0
 14 15  1  0
 15 16  2  0
 16 17  1  0
 17 18  1  0
 18 19  1  0
 19 20  1  0
 20 21  1  0
 21 22  1  0
 22 23  1  0
 23 24  2  0
 24 25  1  0
 25 26  2  0
 26 27  1  0
 26 28  1  0
 28 29  1  0
 29 30  1  0
 30 31  1  0
 31 32  1  0
 32 33  2  0
 24 34  1  0
 34 35  2  0
 34 36  1  0
 16 37  1  0
 37 38  2  0
 38 39  1  0
  6 40  2  0
 40 41  1  0
 41 42  2  0
 27 22  2  0
 32 28  1  0
 36 12  1  0
 39 14  2  0
 42  4  1  0
M  END
$$$$
