
     RDKit          3D

 42 46  0  0  0  0  0  0  0  0999 V2000
  -21.3472  -37.8837  -10.3636 C   0  0  0  0  0  0  0  0  0  0  0  0
  -21.6313  -37.0985   -9.0795 C   0  0  0  0  0  0  0  0  0  0  0  0
  -20.3931  -36.3127   -8.7505 C   0  0  0  0  0  0  0  0  0  0  0  0
  -21.9656  -38.0797   -8.0021 C   0  0  0  0  0  0  0  0  0  0  0  0
  -21.1740  -38.2017   -6.8705 C   0  0  0  0  0  0  0  0  0  0  0  0
  -21.4648  -39.1048   -5.8706 C   0  0  0  0  0  0  0  0  0  0  0  0
  -20.5671  -39.1731   -4.6910 C   0  0  0  0  0  0  0  0  0  0  0  0
  -19.3101  -38.6182   -5.0393 N   0  0  0  0  0  0  0  0  0  0  0  0
  -18.3786  -39.4363   -5.6852 C   0  0  0  0  0  0  0  0  0  0  0  0
  -17.6074  -38.8763   -6.8337 C   0  0  1  0  0  0  0  0  0  0  0  0
  -16.2463  -38.9270   -6.4254 O   0  0  0  0  0  0  0  0  0  0  0  0
  -17.7499  -39.7613   -8.0852 C   0  0  2  0  0  0  0  0  0  0  0  0
  -17.3644  -39.0776   -9.3376 C   0  0  0  0  0  0  0  0  0  0  0  0
  -16.0298  -39.2900   -9.9618 C   0  0  0  0  0  0  0  0  0  0  0  0
  -15.3310  -40.4304  -10.2280 C   0  0  0  0  0  0  0  0  0  0  0  0
  -14.1198  -40.3385  -10.8678 C   0  0  0  0  0  0  0  0  0  0  0  0
  -13.1735  -41.4168  -11.2985 C   0  0  0  0  0  0  0  0  0  0  0  0
  -13.5515  -42.1186  -12.5771 C   0  0  0  0  0  0  0  0  0  0  0  0
  -14.5563  -43.1999  -12.4468 C   0  0  0  0  0  0  0  0  0  0  0  0
  -15.8932  -42.9579  -13.0415 C   0  0  0  0  0  0  0  0  0  0  0  0
  -16.9747  -43.6310  -12.4581 O   0  0  0  0  0  0  0  0  0  0  0  0
  -17.6281  -43.5073  -11.2382 C   0  0  0  0  0  0  0  0  0  0  0  0
  -18.2368  -42.3960  -10.6812 C   0  0  0  0  0  0  0  0  0  0  0  0
  -18.8095  -42.5419   -9.4405 C   0  0  0  0  0  0  0  0  0  0  0  0
  -18.7655  -43.8024   -8.7864 C   0  0  0  0  0  0  0  0  0  0  0  0
  -18.1731  -44.9152   -9.3174 C   0  0  0  0  0  0  0  0  0  0  0  0
  -17.6065  -44.7378  -10.5563 C   0  0  0  0  0  0  0  0  0  0  0  0
  -18.1474  -46.1437   -8.6286 N   0  0  0  0  0  0  0  0  0  0  0  0
  -19.2077  -47.1200   -8.5504 C   0  0  0  0  0  0  0  0  0  0  0  0
  -18.9348  -47.9431   -7.3129 C   0  0  0  0  0  0  0  0  0  0  0  0
  -17.6303  -47.4571   -6.7232 C   0  0  0  0  0  0  0  0  0  0  0  0
  -17.0724  -46.6740   -7.8643 C   0  0  0  0  0  0  0  0  0  0  0  0
  -15.8362  -46.5478   -8.0545 O   0  0  0  0  0  0  0  0  0  0  0  0
  -19.4713  -41.5704   -8.5481 C   0  0  0  0  0  0  0  0  0  0  0  0
  -20.5693  -41.9807   -7.9919 O   0  0  0  0  0  0  0  0  0  0  0  0
  -19.1143  -40.2516   -8.1831 N   0  0  0  0  0  0  0  0  0  0  0  0
  -13.6198  -39.0708  -11.2362 C   0  0  0  0  0  0  0  0  0  0  0  0
  -14.2761  -37.8943  -10.9937 C   0  0  0  0  0  0  0  0  0  0  0  0
  -15.4759  -38.0476  -10.3558 C   0  0  0  0  0  0  0  0  0  0  0  0
  -22.5586  -39.8637   -6.0468 N   0  0  0  0  0  0  0  0  0  0  0  0
  -23.3514  -39.7747   -7.1293 C   0  0  0  0  0  0  0  0  0  0  0  0
  -23.0811  -38.8777   -8.1458 C   0  0  0  0  0  0  0  0  0  0  0  0
  1  2  1  0
  2  3  1  0
  2  4  1  0
  4  5  2  0
  5  6  1  0
  6  7  1  0
  7  8  1  0
  8  9  1  0
  9 10  1  0
 10 11  1  1
 10 12  1  0
 12 13  1  6
 13 14  1  0
 14 15  1  0
 15 16  2  0
 16 17  1  0
 17 18  1  0
 18 19  1  0
 19 20  1  0
 20 21  1  0
 21 22  1  0
 22 23  1  0
 23 24  2  0
 24 25  1  0
 25 26  2  0
 26 27  1  0
 26 28  1  0
 28 29  1  0
 29 30  1  0
 30 31  1  0
 31 32  1  0
 32 33  2  0
 24 34  1  0
 34 35  2  0
 34 36  1  0
 16 37  1  0
 37 38  2  0
 38 39  1  0
  6 40  2  0
 40 41  1  0
 41 42  2  0
 27 22  2  0
 32 28  1  0
 36 12  1  0
 39 14  2  0
 42  4  1  0
M  END
$$$$
