
     RDKit          3D

 42 46  0  0  0  0  0  0  0  0999 V2000
  -13.4358  -38.2703   -6.6518 C   0  0  0  0  0  0  0  0  0  0  0  0
  -14.7840  -37.6210   -6.9788 C   0  0  0  0  0  0  0  0  0  0  0  0
  -15.8456  -38.4032   -6.2577 C   0  0  0  0  0  0  0  0  0  0  0  0
  -14.9730  -37.6691   -8.4611 C   0  0  0  0  0  0  0  0  0  0  0  0
  -14.7943  -38.8469   -9.1703 C   0  0  0  0  0  0  0  0  0  0  0  0
  -14.9590  -38.9075  -10.5374 C   0  0  0  0  0  0  0  0  0  0  0  0
  -14.7494  -40.2073  -11.2219 C   0  0  0  0  0  0  0  0  0  0  0  0
  -15.5587  -41.1894  -10.5978 N   0  0  0  0  0  0  0  0  0  0  0  0
  -16.7871  -41.5085  -11.1837 C   0  0  0  0  0  0  0  0  0  0  0  0
  -17.9958  -40.7293  -10.7844 C   0  0  1  0  0  0  0  0  0  0  0  0
  -19.0395  -41.2102  -11.6218 O   0  0  0  0  0  0  0  0  0  0  0  0
  -18.3948  -41.0271   -9.3278 C   0  0  2  0  0  0  0  0  0  0  0  0
  -18.8916  -39.8415   -8.5985 C   0  0  0  0  0  0  0  0  0  0  0  0
  -20.3480  -39.5955   -8.4124 C   0  0  0  0  0  0  0  0  0  0  0  0
  -21.3555  -40.4184   -8.0035 C   0  0  0  0  0  0  0  0  0  0  0  0
  -22.6233  -39.9085   -7.8711 C   0  0  0  0  0  0  0  0  0  0  0  0
  -23.8874  -40.5742   -7.4208 C   0  0  0  0  0  0  0  0  0  0  0  0
  -24.0265  -40.7275   -5.9285 C   0  0  0  0  0  0  0  0  0  0  0  0
  -23.3274  -41.8896   -5.3313 C   0  0  0  0  0  0  0  0  0  0  0  0
  -22.1622  -41.6047   -4.4591 C   0  0  0  0  0  0  0  0  0  0  0  0
  -21.1766  -42.5972   -4.3786 O   0  0  0  0  0  0  0  0  0  0  0  0
  -20.2331  -43.0784   -5.2778 C   0  0  0  0  0  0  0  0  0  0  0  0
  -19.2455  -42.3899   -5.9607 C   0  0  0  0  0  0  0  0  0  0  0  0
  -18.4404  -43.1116   -6.8090 C   0  0  0  0  0  0  0  0  0  0  0  0
  -18.6387  -44.5115   -6.9500 C   0  0  0  0  0  0  0  0  0  0  0  0
  -19.6051  -45.2142   -6.2841 C   0  0  0  0  0  0  0  0  0  0  0  0
  -20.3960  -44.4657   -5.4464 C   0  0  0  0  0  0  0  0  0  0  0  0
  -19.7696  -46.6020   -6.4609 N   0  0  0  0  0  0  0  0  0  0  0  0
  -18.7650  -47.5516   -6.8762 C   0  0  0  0  0  0  0  0  0  0  0  0
  -19.5115  -48.7395   -7.4373 C   0  0  0  0  0  0  0  0  0  0  0  0
  -20.9888  -48.4742   -7.2556 C   0  0  0  0  0  0  0  0  0  0  0  0
  -20.9611  -47.3537   -6.2704 C   0  0  0  0  0  0  0  0  0  0  0  0
  -21.8823  -47.1677   -5.4354 O   0  0  0  0  0  0  0  0  0  0  0  0
  -17.3556  -42.6951   -7.7189 C   0  0  0  0  0  0  0  0  0  0  0  0
  -16.2949  -43.4419   -7.7022 O   0  0  0  0  0  0  0  0  0  0  0  0
  -17.2663  -41.6110   -8.6225 N   0  0  0  0  0  0  0  0  0  0  0  0
  -22.8617  -38.5476   -8.1607 C   0  0  0  0  0  0  0  0  0  0  0  0
  -21.8906  -37.6766   -8.5756 C   0  0  0  0  0  0  0  0  0  0  0  0
  -20.6494  -38.2395   -8.6881 C   0  0  0  0  0  0  0  0  0  0  0  0
  -15.3039  -37.7642  -11.1516 N   0  0  0  0  0  0  0  0  0  0  0  0
  -15.4868  -36.6026  -10.4991 C   0  0  0  0  0  0  0  0  0  0  0  0
  -15.3271  -36.5157   -9.1288 C   0  0  0  0  0  0  0  0  0  0  0  0
  1  2  1  0
  2  3  1  0
  2  4  1  0
  4  5  2  0
  5  6  1  0
  6  7  1  0
  7  8  1  0
  8  9  1  0
  9 10  1  0
 10 11  1  6
 10 12  1  0
 12 13  1  1
 13 14  1  0
 14 15  1  0
 15 16  2  0
 16 17  1  0
 17 18  1  0
 18 19  1  0
 19 20  1  0
 20 21  1  0
 21 22  1  0
 22 23  1  0
 23 24  2  0
 24 25  1  0
 25 26  2  0
 26 27  1  0
 26 28  1  0
 28 29  1  0
 29 30  1  0
 30 31  1  0
 31 32  1  0
 32 33  2  0
 24 34  1  0
 34 35  2  0
 34 36  1  0
 16 37  1  0
 37 38  2  0
 38 39  1  0
  6 40  2  0
 40 41  1  0
 41 42  2  0
 27 22  2  0
 32 28  1  0
 36 12  1  0
 39 14  2  0
 42  4  1  0
M  END
$$$$
