
     RDKit          3D

 42 46  0  0  0  0  0  0  0  0999 V2000
  -14.9079  -41.3992  -14.0174 C   0  0  0  0  0  0  0  0  0  0  0  0
  -15.0874  -40.2562  -13.0137 C   0  0  0  0  0  0  0  0  0  0  0  0
  -14.4049  -39.0454  -13.5856 C   0  0  0  0  0  0  0  0  0  0  0  0
  -14.4714  -40.6775  -11.7182 C   0  0  0  0  0  0  0  0  0  0  0  0
  -14.5429  -39.8711  -10.5928 C   0  0  0  0  0  0  0  0  0  0  0  0
  -13.9760  -40.2418   -9.3924 C   0  0  0  0  0  0  0  0  0  0  0  0
  -14.0974  -39.3218   -8.2345 C   0  0  0  0  0  0  0  0  0  0  0  0
  -14.9947  -38.2776   -8.5712 N   0  0  0  0  0  0  0  0  0  0  0  0
  -16.3019  -38.6156   -8.9330 C   0  0  0  0  0  0  0  0  0  0  0  0
  -17.4209  -38.2217   -8.0275 C   0  0  1  0  0  0  0  0  0  0  0  0
  -18.4163  -37.6769   -8.8844 O   0  0  0  0  0  0  0  0  0  0  0  0
  -18.0314  -39.4501   -7.3290 C   0  0  2  0  0  0  0  0  0  0  0  0
  -18.8926  -39.1064   -6.1780 C   0  0  0  0  0  0  0  0  0  0  0  0
  -20.3760  -39.0716   -6.2981 C   0  0  0  0  0  0  0  0  0  0  0  0
  -21.2564  -39.9572   -6.8460 C   0  0  0  0  0  0  0  0  0  0  0  0
  -22.6018  -39.6934   -6.7750 C   0  0  0  0  0  0  0  0  0  0  0  0
  -23.7682  -40.4968   -7.2626 C   0  0  0  0  0  0  0  0  0  0  0  0
  -24.1658  -41.6435   -6.3698 C   0  0  0  0  0  0  0  0  0  0  0  0
  -23.3780  -42.8884   -6.5292 C   0  0  0  0  0  0  0  0  0  0  0  0
  -22.4909  -43.2774   -5.4062 C   0  0  0  0  0  0  0  0  0  0  0  0
  -21.3603  -44.0391   -5.7297 O   0  0  0  0  0  0  0  0  0  0  0  0
  -20.1800  -43.7535   -6.4047 C   0  0  0  0  0  0  0  0  0  0  0  0
  -19.2373  -42.7749   -6.1414 C   0  0  0  0  0  0  0  0  0  0  0  0
  -18.1510  -42.6990   -6.9799 C   0  0  0  0  0  0  0  0  0  0  0  0
  -18.0296  -43.6114   -8.0623 C   0  0  0  0  0  0  0  0  0  0  0  0
  -18.9458  -44.5884   -8.3408 C   0  0  0  0  0  0  0  0  0  0  0  0
  -20.0217  -44.6374   -7.4879 C   0  0  0  0  0  0  0  0  0  0  0  0
  -18.7873  -45.4669   -9.4304 N   0  0  0  0  0  0  0  0  0  0  0  0
  -17.7083  -46.4013   -9.6452 C   0  0  0  0  0  0  0  0  0  0  0  0
  -17.6835  -46.6856  -11.1291 C   0  0  0  0  0  0  0  0  0  0  0  0
  -18.8426  -45.9419  -11.7530 C   0  0  0  0  0  0  0  0  0  0  0  0
  -19.6560  -45.6118  -10.5463 C   0  0  0  0  0  0  0  0  0  0  0  0
  -20.9072  -45.4965  -10.5880 O   0  0  0  0  0  0  0  0  0  0  0  0
  -17.0151  -41.7580   -7.0267 C   0  0  0  0  0  0  0  0  0  0  0  0
  -15.8497  -42.2978   -7.2103 O   0  0  0  0  0  0  0  0  0  0  0  0
  -16.9704  -40.3495   -6.9083 N   0  0  0  0  0  0  0  0  0  0  0  0
  -23.0489  -38.5143   -6.1403 C   0  0  0  0  0  0  0  0  0  0  0  0
  -22.2120  -37.5903   -5.5750 C   0  0  0  0  0  0  0  0  0  0  0  0
  -20.8853  -37.9064   -5.6750 C   0  0  0  0  0  0  0  0  0  0  0  0
  -13.3486  -41.4288   -9.3662 N   0  0  0  0  0  0  0  0  0  0  0  0
  -13.2583  -42.2390  -10.4357 C   0  0  0  0  0  0  0  0  0  0  0  0
  -13.8178  -41.8899  -11.6506 C   0  0  0  0  0  0  0  0  0  0  0  0
  1  2  1  0
  2  3  1  0
  2  4  1  0
  4  5  2  0
  5  6  1  0
  6  7  1  0
  7  8  1  0
  8  9  1  0
  9 10  1  0
 10 11  1  6
 10 12  1  0
 12 13  1  1
 13 14  1  0
 14 15  1  0
 15 16  2  0
 16 17  1  0
 17 18  1  0
 18 19  1  0
 19 20  1  0
 20 21  1  0
 21 22  1  0
 22 23  1  0
 23 24  2  0
 24 25  1  0
 25 26  2  0
 26 27  1  0
 26 28  1  0
 28 29  1  0
 29 30  1  0
 30 31  1  0
 31 32  1  0
 32 33  2  0
 24 34  1  0
 34 35  2  0
 34 36  1  0
 16 37  1  0
 37 38  2  0
 38 39  1  0
  6 40  2  0
 40 41  1  0
 41 42  2  0
 27 22  2  0
 32 28  1  0
 36 12  1  0
 39 14  2  0
 42  4  1  0
M  END
$$$$
