
     RDKit          3D

 42 46  0  0  0  0  0  0  0  0999 V2000
  -15.1619  -35.5156  -13.1319 C   0  0  0  0  0  0  0  0  0  0  0  0
  -15.2701  -35.5256  -11.6041 C   0  0  0  0  0  0  0  0  0  0  0  0
  -15.0019  -34.1262  -11.1259 C   0  0  0  0  0  0  0  0  0  0  0  0
  -14.2606  -36.4934  -11.0754 C   0  0  0  0  0  0  0  0  0  0  0  0
  -14.5858  -37.3958  -10.0745 C   0  0  0  0  0  0  0  0  0  0  0  0
  -13.6659  -38.2909   -9.5721 C   0  0  0  0  0  0  0  0  0  0  0  0
  -14.0940  -39.2246   -8.5011 C   0  0  0  0  0  0  0  0  0  0  0  0
  -14.7810  -40.3148   -9.0915 N   0  0  0  0  0  0  0  0  0  0  0  0
  -16.0482  -40.0856   -9.6353 C   0  0  0  0  0  0  0  0  0  0  0  0
  -17.0385  -39.3017   -8.8402 C   0  0  1  0  0  0  0  0  0  0  0  0
  -18.0149  -38.8753   -9.7818 O   0  0  0  0  0  0  0  0  0  0  0  0
  -17.7499  -40.1903   -7.8038 C   0  0  2  0  0  0  0  0  0  0  0  0
  -18.4995  -39.4244   -6.7860 C   0  0  0  0  0  0  0  0  0  0  0  0
  -19.9728  -39.2345   -6.8830 C   0  0  0  0  0  0  0  0  0  0  0  0
  -20.9804  -40.1185   -7.1336 C   0  0  0  0  0  0  0  0  0  0  0  0
  -22.2793  -39.6743   -7.1167 C   0  0  0  0  0  0  0  0  0  0  0  0
  -23.5575  -40.4262   -7.3281 C   0  0  0  0  0  0  0  0  0  0  0  0
  -24.0375  -41.2092   -6.1336 C   0  0  0  0  0  0  0  0  0  0  0  0
  -23.4119  -42.5384   -5.9398 C   0  0  0  0  0  0  0  0  0  0  0  0
  -22.5160  -42.7016   -4.7692 C   0  0  0  0  0  0  0  0  0  0  0  0
  -21.5028  -43.6631   -4.8792 O   0  0  0  0  0  0  0  0  0  0  0  0
  -20.3363  -43.7365   -5.6302 C   0  0  0  0  0  0  0  0  0  0  0  0
  -19.2716  -42.8535   -5.6801 C   0  0  0  0  0  0  0  0  0  0  0  0
  -18.2321  -43.1607   -6.5249 C   0  0  0  0  0  0  0  0  0  0  0  0
  -18.2791  -44.3518   -7.2981 C   0  0  0  0  0  0  0  0  0  0  0  0
  -19.3181  -45.2411   -7.2638 C   0  0  0  0  0  0  0  0  0  0  0  0
  -20.3434  -44.9055   -6.4132 C   0  0  0  0  0  0  0  0  0  0  0  0
  -19.3248  -46.4068   -8.0544 N   0  0  0  0  0  0  0  0  0  0  0  0
  -18.2710  -47.3865   -8.1695 C   0  0  0  0  0  0  0  0  0  0  0  0
  -18.4970  -48.0992   -9.4826 C   0  0  0  0  0  0  0  0  0  0  0  0
  -19.7703  -47.5489  -10.0842 C   0  0  0  0  0  0  0  0  0  0  0  0
  -20.3702  -46.8575   -8.9058 C   0  0  0  0  0  0  0  0  0  0  0  0
  -21.6124  -46.7321   -8.7586 O   0  0  0  0  0  0  0  0  0  0  0  0
  -16.9975  -42.4267   -6.8643 C   0  0  0  0  0  0  0  0  0  0  0  0
  -15.9158  -43.1419   -6.9053 O   0  0  0  0  0  0  0  0  0  0  0  0
  -16.7806  -41.0610   -7.1605 N   0  0  0  0  0  0  0  0  0  0  0  0
  -22.5485  -38.3159   -6.8431 C   0  0  0  0  0  0  0  0  0  0  0  0
  -21.5786  -37.3848   -6.5862 C   0  0  0  0  0  0  0  0  0  0  0  0
  -20.3060  -37.8844   -6.6153 C   0  0  0  0  0  0  0  0  0  0  0  0
  -12.4333  -38.2463  -10.1030 N   0  0  0  0  0  0  0  0  0  0  0  0
  -12.0795  -37.3865  -11.0747 C   0  0  0  0  0  0  0  0  0  0  0  0
  -12.9832  -36.4789  -11.5948 C   0  0  0  0  0  0  0  0  0  0  0  0
  1  2  1  0
  2  3  1  0
  2  4  1  0
  4  5  2  0
  5  6  1  0
  6  7  1  0
  7  8  1  0
  8  9  1  0
  9 10  1  0
 10 11  1  6
 10 12  1  0
 12 13  1  1
 13 14  1  0
 14 15  1  0
 15 16  2  0
 16 17  1  0
 17 18  1  0
 18 19  1  0
 19 20  1  0
 20 21  1  0
 21 22  1  0
 22 23  1  0
 23 24  2  0
 24 25  1  0
 25 26  2  0
 26 27  1  0
 26 28  1  0
 28 29  1  0
 29 30  1  0
 30 31  1  0
 31 32  1  0
 32 33  2  0
 24 34  1  0
 34 35  2  0
 34 36  1  0
 16 37  1  0
 37 38  2  0
 38 39  1  0
  6 40  2  0
 40 41  1  0
 41 42  2  0
 27 22  2  0
 32 28  1  0
 36 12  1  0
 39 14  2  0
 42  4  1  0
M  END
$$$$
