
     RDKit          3D

 42 46  0  0  0  0  0  0  0  0999 V2000
  -17.4240  -36.2088  -12.4467 C   0  0  0  0  0  0  0  0  0  0  0  0
  -17.5685  -37.4967  -13.2632 C   0  0  0  0  0  0  0  0  0  0  0  0
  -19.0350  -37.7043  -13.5182 C   0  0  0  0  0  0  0  0  0  0  0  0
  -16.9820  -38.6175  -12.4664 C   0  0  0  0  0  0  0  0  0  0  0  0
  -16.0519  -38.3784  -11.4666 C   0  0  0  0  0  0  0  0  0  0  0  0
  -15.4972  -39.4004  -10.7264 C   0  0  0  0  0  0  0  0  0  0  0  0
  -14.5085  -39.0602   -9.6735 C   0  0  0  0  0  0  0  0  0  0  0  0
  -15.1535  -38.2956   -8.6693 N   0  0  0  0  0  0  0  0  0  0  0  0
  -15.6878  -38.9652   -7.5647 C   0  0  0  0  0  0  0  0  0  0  0  0
  -17.1121  -38.7158   -7.1952 C   0  0  1  0  0  0  0  0  0  0  0  0
  -17.7389  -38.2952   -8.4002 O   0  0  0  0  0  0  0  0  0  0  0  0
  -17.8051  -40.0127   -6.7397 C   0  0  2  0  0  0  0  0  0  0  0  0
  -18.7350  -39.8178   -5.6075 C   0  0  0  0  0  0  0  0  0  0  0  0
  -20.2046  -39.7068   -5.8171 C   0  0  0  0  0  0  0  0  0  0  0  0
  -21.0691  -40.4617   -6.5535 C   0  0  0  0  0  0  0  0  0  0  0  0
  -22.4082  -40.1595   -6.5296 C   0  0  0  0  0  0  0  0  0  0  0  0
  -23.5598  -40.8314   -7.2123 C   0  0  0  0  0  0  0  0  0  0  0  0
  -24.0519  -42.0860   -6.5387 C   0  0  0  0  0  0  0  0  0  0  0  0
  -23.2906  -43.3211   -6.8400 C   0  0  0  0  0  0  0  0  0  0  0  0
  -22.4962  -43.9138   -5.7367 C   0  0  0  0  0  0  0  0  0  0  0  0
  -21.3679  -44.6600   -6.1016 O   0  0  0  0  0  0  0  0  0  0  0  0
  -20.1353  -44.3197   -6.6450 C   0  0  0  0  0  0  0  0  0  0  0  0
  -19.1859  -43.4314   -6.1704 C   0  0  0  0  0  0  0  0  0  0  0  0
  -18.0416  -43.2692   -6.9140 C   0  0  0  0  0  0  0  0  0  0  0  0
  -17.8703  -44.0071   -8.1161 C   0  0  0  0  0  0  0  0  0  0  0  0
  -18.7921  -44.8925   -8.6037 C   0  0  0  0  0  0  0  0  0  0  0  0
  -19.9264  -45.0308   -7.8410 C   0  0  0  0  0  0  0  0  0  0  0  0
  -18.5824  -45.5973   -9.8051 N   0  0  0  0  0  0  0  0  0  0  0  0
  -17.7473  -46.7586   -9.9985 C   0  0  0  0  0  0  0  0  0  0  0  0
  -17.4169  -46.8019  -11.4724 C   0  0  0  0  0  0  0  0  0  0  0  0
  -18.1606  -45.6660  -12.1376 C   0  0  0  0  0  0  0  0  0  0  0  0
  -19.1472  -45.3075  -11.0771 C   0  0  0  0  0  0  0  0  0  0  0  0
  -20.2790  -44.8294  -11.3435 O   0  0  0  0  0  0  0  0  0  0  0  0
  -16.8788  -42.3775   -6.7383 C   0  0  0  0  0  0  0  0  0  0  0  0
  -15.7193  -42.9277   -6.9281 O   0  0  0  0  0  0  0  0  0  0  0  0
  -16.8024  -41.0072   -6.3973 N   0  0  0  0  0  0  0  0  0  0  0  0
  -22.8651  -39.0763   -5.7481 C   0  0  0  0  0  0  0  0  0  0  0  0
  -22.0441  -38.2845   -4.9913 C   0  0  0  0  0  0  0  0  0  0  0  0
  -20.7232  -38.6330   -5.0531 C   0  0  0  0  0  0  0  0  0  0  0  0
  -15.9049  -40.6452  -11.0222 N   0  0  0  0  0  0  0  0  0  0  0  0
  -16.8048  -40.9176  -11.9837 C   0  0  0  0  0  0  0  0  0  0  0  0
  -17.3749  -39.9107  -12.7400 C   0  0  0  0  0  0  0  0  0  0  0  0
  1  2  1  0
  2  3  1  0
  2  4  1  0
  4  5  2  0
  5  6  1  0
  6  7  1  0
  7  8  1  0
  8  9  1  0
  9 10  1  0
 10 11  1  6
 10 12  1  0
 12 13  1  1
 13 14  1  0
 14 15  1  0
 15 16  2  0
 16 17  1  0
 17 18  1  0
 18 19  1  0
 19 20  1  0
 20 21  1  0
 21 22  1  0
 22 23  1  0
 23 24  2  0
 24 25  1  0
 25 26  2  0
 26 27  1  0
 26 28  1  0
 28 29  1  0
 29 30  1  0
 30 31  1  0
 31 32  1  0
 32 33  2  0
 24 34  1  0
 34 35  2  0
 34 36  1  0
 16 37  1  0
 37 38  2  0
 38 39  1  0
  6 40  2  0
 40 41  1  0
 41 42  2  0
 27 22  2  0
 32 28  1  0
 36 12  1  0
 39 14  2  0
 42  4  1  0
M  END
$$$$
