
     RDKit          3D

 42 46  0  0  0  0  0  0  0  0999 V2000
  -10.6302  -39.5696  -10.4035 C   0  0  0  0  0  0  0  0  0  0  0  0
  -11.4954  -40.2431  -11.4731 C   0  0  0  0  0  0  0  0  0  0  0  0
  -12.0224  -39.1598  -12.3717 C   0  0  0  0  0  0  0  0  0  0  0  0
  -12.6010  -40.9736  -10.7809 C   0  0  0  0  0  0  0  0  0  0  0  0
  -13.1153  -40.5229   -9.5750 C   0  0  0  0  0  0  0  0  0  0  0  0
  -14.1306  -41.1873   -8.9209 C   0  0  0  0  0  0  0  0  0  0  0  0
  -14.6256  -40.6390   -7.6339 C   0  0  0  0  0  0  0  0  0  0  0  0
  -15.1253  -39.3312   -7.8551 N   0  0  0  0  0  0  0  0  0  0  0  0
  -16.2076  -39.1718   -8.7254 C   0  0  0  0  0  0  0  0  0  0  0  0
  -17.4852  -38.6193   -8.1868 C   0  0  1  0  0  0  0  0  0  0  0  0
  -18.2961  -38.3802   -9.3301 O   0  0  0  0  0  0  0  0  0  0  0  0
  -18.2134  -39.6532   -7.3091 C   0  0  2  0  0  0  0  0  0  0  0  0
  -19.2053  -39.0537   -6.3920 C   0  0  0  0  0  0  0  0  0  0  0  0
  -20.6595  -39.0528   -6.7102 C   0  0  0  0  0  0  0  0  0  0  0  0
  -21.4863  -40.0447   -7.1487 C   0  0  0  0  0  0  0  0  0  0  0  0
  -22.8220  -39.7761   -7.3175 C   0  0  0  0  0  0  0  0  0  0  0  0
  -23.9378  -40.6749   -7.7544 C   0  0  0  0  0  0  0  0  0  0  0  0
  -24.4777  -41.5833   -6.6805 C   0  0  0  0  0  0  0  0  0  0  0  0
  -23.7102  -42.8284   -6.4428 C   0  0  0  0  0  0  0  0  0  0  0  0
  -22.9852  -42.9421   -5.1540 C   0  0  0  0  0  0  0  0  0  0  0  0
  -21.8438  -43.7544   -5.1415 O   0  0  0  0  0  0  0  0  0  0  0  0
  -20.5793  -43.6300   -5.7037 C   0  0  0  0  0  0  0  0  0  0  0  0
  -19.6518  -42.6138   -5.5529 C   0  0  0  0  0  0  0  0  0  0  0  0
  -18.4653  -42.7317   -6.2364 C   0  0  0  0  0  0  0  0  0  0  0  0
  -18.2311  -43.8708   -7.0528 C   0  0  0  0  0  0  0  0  0  0  0  0
  -19.1303  -44.8888   -7.2151 C   0  0  0  0  0  0  0  0  0  0  0  0
  -20.3077  -44.7414   -6.5226 C   0  0  0  0  0  0  0  0  0  0  0  0
  -18.8575  -45.9965   -8.0414 N   0  0  0  0  0  0  0  0  0  0  0  0
  -18.7688  -46.0068   -9.4821 C   0  0  0  0  0  0  0  0  0  0  0  0
  -19.0114  -47.4353   -9.9110 C   0  0  0  0  0  0  0  0  0  0  0  0
  -19.1632  -48.2660   -8.6570 C   0  0  0  0  0  0  0  0  0  0  0  0
  -18.6170  -47.3349   -7.6268 C   0  0  0  0  0  0  0  0  0  0  0  0
  -18.0477  -47.7437   -6.5831 O   0  0  0  0  0  0  0  0  0  0  0  0
  -17.3076  -41.8237   -6.3505 C   0  0  0  0  0  0  0  0  0  0  0  0
  -16.1434  -42.3875   -6.2498 O   0  0  0  0  0  0  0  0  0  0  0  0
  -17.2400  -40.4262   -6.5565 N   0  0  0  0  0  0  0  0  0  0  0  0
  -23.3144  -38.4831   -7.0372 C   0  0  0  0  0  0  0  0  0  0  0  0
  -22.5320  -37.4500   -6.5965 C   0  0  0  0  0  0  0  0  0  0  0  0
  -21.2126  -37.7762   -6.4459 C   0  0  0  0  0  0  0  0  0  0  0  0
  -14.6001  -42.2975   -9.5127 N   0  0  0  0  0  0  0  0  0  0  0  0
  -14.1281  -42.7661  -10.6816 C   0  0  0  0  0  0  0  0  0  0  0  0
  -13.1103  -42.1185  -11.3566 C   0  0  0  0  0  0  0  0  0  0  0  0
  1  2  1  0
  2  3  1  0
  2  4  1  0
  4  5  2  0
  5  6  1  0
  6  7  1  0
  7  8  1  0
  8  9  1  0
  9 10  1  0
 10 11  1  6
 10 12  1  0
 12 13  1  1
 13 14  1  0
 14 15  1  0
 15 16  2  0
 16 17  1  0
 17 18  1  0
 18 19  1  0
 19 20  1  0
 20 21  1  0
 21 22  1  0
 22 23  1  0
 23 24  2  0
 24 25  1  0
 25 26  2  0
 26 27  1  0
 26 28  1  0
 28 29  1  0
 29 30  1  0
 30 31  1  0
 31 32  1  0
 32 33  2  0
 24 34  1  0
 34 35  2  0
 34 36  1  0
 16 37  1  0
 37 38  2  0
 38 39  1  0
  6 40  2  0
 40 41  1  0
 41 42  2  0
 27 22  2  0
 32 28  1  0
 36 12  1  0
 39 14  2  0
 42  4  1  0
M  END
$$$$
