
     RDKit          3D

 42 46  0  0  0  0  0  0  0  0999 V2000
  -13.4104  -38.1891  -14.1973 C   0  0  0  0  0  0  0  0  0  0  0  0
  -12.2823  -39.1817  -13.9004 C   0  0  0  0  0  0  0  0  0  0  0  0
  -11.9887  -39.9220  -15.1750 C   0  0  0  0  0  0  0  0  0  0  0  0
  -12.7503  -40.1041  -12.8209 C   0  0  0  0  0  0  0  0  0  0  0  0
  -13.2771  -39.6143  -11.6358 C   0  0  0  0  0  0  0  0  0  0  0  0
  -13.7081  -40.4504  -10.6282 C   0  0  0  0  0  0  0  0  0  0  0  0
  -14.2601  -39.8464   -9.3903 C   0  0  0  0  0  0  0  0  0  0  0  0
  -15.1502  -38.8027   -9.7474 N   0  0  0  0  0  0  0  0  0  0  0  0
  -16.5246  -39.0460   -9.6703 C   0  0  0  0  0  0  0  0  0  0  0  0
  -17.2954  -38.4522   -8.5387 C   0  0  1  0  0  0  0  0  0  0  0  0
  -18.3789  -37.7635   -9.1499 O   0  0  0  0  0  0  0  0  0  0  0  0
  -17.8916  -39.5467   -7.6353 C   0  0  2  0  0  0  0  0  0  0  0  0
  -18.6195  -39.0132   -6.4648 C   0  0  0  0  0  0  0  0  0  0  0  0
  -20.1043  -38.9067   -6.4534 C   0  0  0  0  0  0  0  0  0  0  0  0
  -21.0742  -39.8002   -6.8005 C   0  0  0  0  0  0  0  0  0  0  0  0
  -22.3925  -39.4512   -6.6423 C   0  0  0  0  0  0  0  0  0  0  0  0
  -23.6371  -40.2390   -6.9145 C   0  0  0  0  0  0  0  0  0  0  0  0
  -23.9989  -41.2411   -5.8491 C   0  0  0  0  0  0  0  0  0  0  0  0
  -23.2893  -42.5401   -5.9175 C   0  0  0  0  0  0  0  0  0  0  0  0
  -22.3161  -42.8384   -4.8389 C   0  0  0  0  0  0  0  0  0  0  0  0
  -21.2593  -43.6993   -5.1628 O   0  0  0  0  0  0  0  0  0  0  0  0
  -20.1383  -43.5691   -5.9732 C   0  0  0  0  0  0  0  0  0  0  0  0
  -19.1297  -42.6224   -5.9248 C   0  0  0  0  0  0  0  0  0  0  0  0
  -18.1280  -42.7147   -6.8611 C   0  0  0  0  0  0  0  0  0  0  0  0
  -18.1552  -43.7597   -7.8235 C   0  0  0  0  0  0  0  0  0  0  0  0
  -19.1387  -44.7082   -7.8895 C   0  0  0  0  0  0  0  0  0  0  0  0
  -20.1276  -44.5881   -6.9434 C   0  0  0  0  0  0  0  0  0  0  0  0
  -19.1283  -45.7227   -8.8666 N   0  0  0  0  0  0  0  0  0  0  0  0
  -19.6254  -45.6338  -10.2189 C   0  0  0  0  0  0  0  0  0  0  0  0
  -19.8982  -47.0519  -10.6638 C   0  0  0  0  0  0  0  0  0  0  0  0
  -19.4624  -47.9703   -9.5446 C   0  0  0  0  0  0  0  0  0  0  0  0
  -18.6292  -47.0458   -8.7213 C   0  0  0  0  0  0  0  0  0  0  0  0
  -17.6561  -47.4473   -8.0340 O   0  0  0  0  0  0  0  0  0  0  0  0
  -16.9594  -41.8549   -7.1317 C   0  0  0  0  0  0  0  0  0  0  0  0
  -15.8438  -42.4807   -7.3490 O   0  0  0  0  0  0  0  0  0  0  0  0
  -16.8377  -40.4477   -7.2002 N   0  0  0  0  0  0  0  0  0  0  0  0
  -22.7203  -38.1785   -6.1269 C   0  0  0  0  0  0  0  0  0  0  0  0
  -21.7901  -37.2422   -5.7636 C   0  0  0  0  0  0  0  0  0  0  0  0
  -20.4956  -37.6454   -5.9420 C   0  0  0  0  0  0  0  0  0  0  0  0
  -13.5929  -41.7694  -10.8526 N   0  0  0  0  0  0  0  0  0  0  0  0
  -13.0881  -42.2830  -11.9883 C   0  0  0  0  0  0  0  0  0  0  0  0
  -12.6487  -41.4658  -13.0130 C   0  0  0  0  0  0  0  0  0  0  0  0
  1  2  1  0
  2  3  1  0
  2  4  1  0
  4  5  2  0
  5  6  1  0
  6  7  1  0
  7  8  1  0
  8  9  1  0
  9 10  1  0
 10 11  1  6
 10 12  1  0
 12 13  1  1
 13 14  1  0
 14 15  1  0
 15 16  2  0
 16 17  1  0
 17 18  1  0
 18 19  1  0
 19 20  1  0
 20 21  1  0
 21 22  1  0
 22 23  1  0
 23 24  2  0
 24 25  1  0
 25 26  2  0
 26 27  1  0
 26 28  1  0
 28 29  1  0
 29 30  1  0
 30 31  1  0
 31 32  1  0
 32 33  2  0
 24 34  1  0
 34 35  2  0
 34 36  1  0
 16 37  1  0
 37 38  2  0
 38 39  1  0
  6 40  2  0
 40 41  1  0
 41 42  2  0
 27 22  2  0
 32 28  1  0
 36 12  1  0
 39 14  2  0
 42  4  1  0
M  END
$$$$
