
     RDKit          3D

 42 46  0  0  0  0  0  0  0  0999 V2000
  -15.8417  -35.0902  -14.2148 C   0  0  0  0  0  0  0  0  0  0  0  0
  -15.7804  -36.4388  -13.4911 C   0  0  0  0  0  0  0  0  0  0  0  0
  -17.1747  -36.9994  -13.4677 C   0  0  0  0  0  0  0  0  0  0  0  0
  -15.2578  -36.1995  -12.1109 C   0  0  0  0  0  0  0  0  0  0  0  0
  -14.4299  -37.1197  -11.4866 C   0  0  0  0  0  0  0  0  0  0  0  0
  -13.9438  -36.9173  -10.2127 C   0  0  0  0  0  0  0  0  0  0  0  0
  -13.0626  -37.9510   -9.6154 C   0  0  0  0  0  0  0  0  0  0  0  0
  -13.5381  -38.2637   -8.3173 N   0  0  0  0  0  0  0  0  0  0  0  0
  -14.9192  -38.3407   -8.1161 C   0  0  0  0  0  0  0  0  0  0  0  0
  -15.5660  -39.6855   -8.0896 C   0  0  1  0  0  0  0  0  0  0  0  0
  -15.3382  -40.1799   -6.7760 O   0  0  0  0  0  0  0  0  0  0  0  0
  -17.0887  -39.5756   -8.2867 C   0  0  2  0  0  0  0  0  0  0  0  0
  -17.4942  -39.4808   -9.7048 C   0  0  0  0  0  0  0  0  0  0  0  0
  -17.9945  -40.6667  -10.4528 C   0  0  0  0  0  0  0  0  0  0  0  0
  -18.9210  -41.6125  -10.1264 C   0  0  0  0  0  0  0  0  0  0  0  0
  -19.2320  -42.5877  -11.0413 C   0  0  0  0  0  0  0  0  0  0  0  0
  -20.2167  -43.7130  -10.9528 C   0  0  0  0  0  0  0  0  0  0  0  0
  -21.6499  -43.3227  -11.2050 C   0  0  0  0  0  0  0  0  0  0  0  0
  -22.3728  -42.7405  -10.0499 C   0  0  0  0  0  0  0  0  0  0  0  0
  -22.7322  -41.3038  -10.1295 C   0  0  0  0  0  0  0  0  0  0  0  0
  -22.8526  -40.6152   -8.9153 O   0  0  0  0  0  0  0  0  0  0  0  0
  -21.9343  -40.2084   -7.9553 C   0  0  0  0  0  0  0  0  0  0  0  0
  -20.8113  -39.4126   -8.1016 C   0  0  0  0  0  0  0  0  0  0  0  0
  -20.0576  -39.1670   -6.9789 C   0  0  0  0  0  0  0  0  0  0  0  0
  -20.4500  -39.7201   -5.7303 C   0  0  0  0  0  0  0  0  0  0  0  0
  -21.5564  -40.5063   -5.5601 C   0  0  0  0  0  0  0  0  0  0  0  0
  -22.2876  -40.7368   -6.7001 C   0  0  0  0  0  0  0  0  0  0  0  0
  -21.9030  -41.0392   -4.3031 N   0  0  0  0  0  0  0  0  0  0  0  0
  -21.0542  -41.1505   -3.1409 C   0  0  0  0  0  0  0  0  0  0  0  0
  -21.6566  -42.2357   -2.2790 C   0  0  0  0  0  0  0  0  0  0  0  0
  -22.9329  -42.6913   -2.9493 C   0  0  0  0  0  0  0  0  0  0  0  0
  -23.1601  -41.5816   -3.9206 C   0  0  0  0  0  0  0  0  0  0  0  0
  -24.3103  -41.2383   -4.2944 O   0  0  0  0  0  0  0  0  0  0  0  0
  -18.7926  -38.4302   -6.7917 C   0  0  0  0  0  0  0  0  0  0  0  0
  -18.7530  -37.6409   -5.7628 O   0  0  0  0  0  0  0  0  0  0  0  0
  -17.5956  -38.4337   -7.5446 N   0  0  0  0  0  0  0  0  0  0  0  0
  -18.5891  -42.5958  -12.2981 C   0  0  0  0  0  0  0  0  0  0  0  0
  -17.6517  -41.6740  -12.6791 C   0  0  0  0  0  0  0  0  0  0  0  0
  -17.3836  -40.7276  -11.7290 C   0  0  0  0  0  0  0  0  0  0  0  0
  -14.3125  -35.7788   -9.6036 N   0  0  0  0  0  0  0  0  0  0  0  0
  -15.1130  -34.8620  -10.1757 C   0  0  0  0  0  0  0  0  0  0  0  0
  -15.6138  -35.0418  -11.4515 C   0  0  0  0  0  0  0  0  0  0  0  0
  1  2  1  0
  2  3  1  0
  2  4  1  0
  4  5  2  0
  5  6  1  0
  6  7  1  0
  7  8  1  0
  8  9  1  0
  9 10  1  0
 10 11  1  1
 10 12  1  0
 12 13  1  6
 13 14  1  0
 14 15  1  0
 15 16  2  0
 16 17  1  0
 17 18  1  0
 18 19  1  0
 19 20  1  0
 20 21  1  0
 21 22  1  0
 22 23  1  0
 23 24  2  0
 24 25  1  0
 25 26  2  0
 26 27  1  0
 26 28  1  0
 28 29  1  0
 29 30  1  0
 30 31  1  0
 31 32  1  0
 32 33  2  0
 24 34  1  0
 34 35  2  0
 34 36  1  0
 16 37  1  0
 37 38  2  0
 38 39  1  0
  6 40  2  0
 40 41  1  0
 41 42  2  0
 27 22  2  0
 32 28  1  0
 36 12  1  0
 39 14  2  0
 42  4  1  0
M  END
$$$$
