
     RDKit          3D

 42 46  0  0  0  0  0  0  0  0999 V2000
  -20.8237  -38.0966   -5.8176 C   0  0  0  0  0  0  0  0  0  0  0  0
  -21.4699  -39.4473   -6.1406 C   0  0  0  0  0  0  0  0  0  0  0  0
  -21.6116  -40.1981   -4.8464 C   0  0  0  0  0  0  0  0  0  0  0  0
  -20.5801  -40.1672   -7.1025 C   0  0  0  0  0  0  0  0  0  0  0  0
  -19.3110  -40.5849   -6.7327 C   0  0  0  0  0  0  0  0  0  0  0  0
  -18.4759  -41.2448   -7.6085 C   0  0  0  0  0  0  0  0  0  0  0  0
  -17.1322  -41.6591   -7.1343 C   0  0  0  0  0  0  0  0  0  0  0  0
  -16.6732  -40.7178   -6.1792 N   0  0  0  0  0  0  0  0  0  0  0  0
  -15.8978  -39.6433   -6.6247 C   0  0  0  0  0  0  0  0  0  0  0  0
  -16.5892  -38.4307   -7.1529 C   0  0  1  0  0  0  0  0  0  0  0  0
  -15.8354  -38.0423   -8.2942 O   0  0  0  0  0  0  0  0  0  0  0  0
  -18.0143  -38.7648   -7.6295 C   0  0  2  0  0  0  0  0  0  0  0  0
  -18.7324  -37.6053   -8.1991 C   0  0  0  0  0  0  0  0  0  0  0  0
  -18.8356  -37.3990   -9.6697 C   0  0  0  0  0  0  0  0  0  0  0  0
  -19.1699  -38.2540  -10.6781 C   0  0  0  0  0  0  0  0  0  0  0  0
  -19.2350  -37.7782  -11.9643 C   0  0  0  0  0  0  0  0  0  0  0  0
  -19.5979  -38.4832  -13.2351 C   0  0  0  0  0  0  0  0  0  0  0  0
  -21.0766  -38.6670  -13.4582 C   0  0  0  0  0  0  0  0  0  0  0  0
  -21.6948  -39.8221  -12.7659 C   0  0  0  0  0  0  0  0  0  0  0  0
  -22.6395  -39.5243  -11.6621 C   0  0  0  0  0  0  0  0  0  0  0  0
  -22.7620  -40.4934  -10.6576 O   0  0  0  0  0  0  0  0  0  0  0  0
  -21.9127  -40.9345   -9.6504 C   0  0  0  0  0  0  0  0  0  0  0  0
  -21.3015  -40.2094   -8.6422 C   0  0  0  0  0  0  0  0  0  0  0  0
  -20.4907  -40.8954   -7.7700 C   0  0  0  0  0  0  0  0  0  0  0  0
  -20.3148  -42.2969   -7.9234 C   0  0  0  0  0  0  0  0  0  0  0  0
  -20.9101  -43.0354   -8.9090 C   0  0  0  0  0  0  0  0  0  0  0  0
  -21.7115  -42.3222   -9.7671 C   0  0  0  0  0  0  0  0  0  0  0  0
  -20.7006  -44.4234   -9.0268 N   0  0  0  0  0  0  0  0  0  0  0  0
  -19.4362  -45.1031   -9.1777 C   0  0  0  0  0  0  0  0  0  0  0  0
  -19.7484  -46.4452   -9.7978 C   0  0  0  0  0  0  0  0  0  0  0  0
  -21.2514  -46.5479   -9.9245 C   0  0  0  0  0  0  0  0  0  0  0  0
  -21.6925  -45.4418   -9.0254 C   0  0  0  0  0  0  0  0  0  0  0  0
  -22.7821  -45.4762   -8.3993 O   0  0  0  0  0  0  0  0  0  0  0  0
  -19.6542  -40.4354   -6.6445 C   0  0  0  0  0  0  0  0  0  0  0  0
  -19.7216  -41.1559   -5.5676 O   0  0  0  0  0  0  0  0  0  0  0  0
  -18.7757  -39.3332   -6.5300 N   0  0  0  0  0  0  0  0  0  0  0  0
  -18.9545  -36.4186  -12.2202 C   0  0  0  0  0  0  0  0  0  0  0  0
  -18.6128  -35.5163  -11.2491 C   0  0  0  0  0  0  0  0  0  0  0  0
  -18.5650  -36.0461   -9.9893 C   0  0  0  0  0  0  0  0  0  0  0  0
  -18.9548  -41.4653   -8.8435 N   0  0  0  0  0  0  0  0  0  0  0  0
  -20.1796  -41.0763   -9.2398 C   0  0  0  0  0  0  0  0  0  0  0  0
  -21.0355  -40.4126   -8.3808 C   0  0  0  0  0  0  0  0  0  0  0  0
  1  2  1  0
  2  3  1  0
  2  4  1  0
  4  5  2  0
  5  6  1  0
  6  7  1  0
  7  8  1  0
  8  9  1  0
  9 10  1  0
 10 11  1  6
 10 12  1  0
 12 13  1  1
 13 14  1  0
 14 15  1  0
 15 16  2  0
 16 17  1  0
 17 18  1  0
 18 19  1  0
 19 20  1  0
 20 21  1  0
 21 22  1  0
 22 23  1  0
 23 24  2  0
 24 25  1  0
 25 26  2  0
 26 27  1  0
 26 28  1  0
 28 29  1  0
 29 30  1  0
 30 31  1  0
 31 32  1  0
 32 33  2  0
 24 34  1  0
 34 35  2  0
 34 36  1  0
 16 37  1  0
 37 38  2  0
 38 39  1  0
  6 40  2  0
 40 41  1  0
 41 42  2  0
 27 22  2  0
 32 28  1  0
 36 12  1  0
 39 14  2  0
 42  4  1  0
M  END
$$$$
