
     RDKit          3D

 42 46  0  0  0  0  0  0  0  0999 V2000
  -11.5935  -41.8931   -9.3394 C   0  0  0  0  0  0  0  0  0  0  0  0
  -10.9942  -40.6001   -9.9008 C   0  0  0  0  0  0  0  0  0  0  0  0
  -10.6692  -39.7118   -8.7328 C   0  0  0  0  0  0  0  0  0  0  0  0
  -12.0076  -39.9754  -10.8052 C   0  0  0  0  0  0  0  0  0  0  0  0
  -13.2770  -40.5152  -10.9434 C   0  0  0  0  0  0  0  0  0  0  0  0
  -14.2213  -39.9551  -11.7768 C   0  0  0  0  0  0  0  0  0  0  0  0
  -15.5576  -40.5939  -11.8680 C   0  0  0  0  0  0  0  0  0  0  0  0
  -16.0511  -40.8128  -10.5575 N   0  0  0  0  0  0  0  0  0  0  0  0
  -16.5780  -39.7249   -9.8555 C   0  0  0  0  0  0  0  0  0  0  0  0
  -18.0552  -39.6471   -9.6574 C   0  0  1  0  0  0  0  0  0  0  0  0
  -18.6157  -40.2864  -10.7971 O   0  0  0  0  0  0  0  0  0  0  0  0
  -18.4938  -40.4440   -8.4155 C   0  0  2  0  0  0  0  0  0  0  0  0
  -19.1071  -39.6061   -7.3638 C   0  0  0  0  0  0  0  0  0  0  0  0
  -20.5842  -39.5175   -7.2013 C   0  0  0  0  0  0  0  0  0  0  0  0
  -21.5455  -40.4838   -7.1603 C   0  0  0  0  0  0  0  0  0  0  0  0
  -22.8518  -40.1189   -6.9471 C   0  0  0  0  0  0  0  0  0  0  0  0
  -24.0819  -40.9657   -6.8311 C   0  0  0  0  0  0  0  0  0  0  0  0
  -24.2737  -41.6250   -5.4900 C   0  0  0  0  0  0  0  0  0  0  0  0
  -23.5179  -42.8812   -5.2747 C   0  0  0  0  0  0  0  0  0  0  0  0
  -22.4154  -42.8474   -4.2832 C   0  0  0  0  0  0  0  0  0  0  0  0
  -21.3642  -43.7531   -4.4774 O   0  0  0  0  0  0  0  0  0  0  0  0
  -20.3501  -43.8476   -5.4223 C   0  0  0  0  0  0  0  0  0  0  0  0
  -19.3869  -42.9154   -5.7673 C   0  0  0  0  0  0  0  0  0  0  0  0
  -18.4953  -43.2605   -6.7546 C   0  0  0  0  0  0  0  0  0  0  0  0
  -18.5844  -44.5374   -7.3714 C   0  0  0  0  0  0  0  0  0  0  0  0
  -19.5246  -45.4761   -7.0457 C   0  0  0  0  0  0  0  0  0  0  0  0
  -20.4035  -45.1014   -6.0586 C   0  0  0  0  0  0  0  0  0  0  0  0
  -19.5793  -46.7276   -7.6899 N   0  0  0  0  0  0  0  0  0  0  0  0
  -19.4767  -46.9823   -9.1070 C   0  0  0  0  0  0  0  0  0  0  0  0
  -20.1243  -48.3270   -9.3434 C   0  0  0  0  0  0  0  0  0  0  0  0
  -20.5329  -48.8770   -7.9957 C   0  0  0  0  0  0  0  0  0  0  0  0
  -19.7510  -47.9988   -7.0771 C   0  0  0  0  0  0  0  0  0  0  0  0
  -19.3430  -48.3912   -5.9546 O   0  0  0  0  0  0  0  0  0  0  0  0
  -17.4057  -42.5010   -7.3980 C   0  0  0  0  0  0  0  0  0  0  0  0
  -16.2948  -43.1502   -7.5644 O   0  0  0  0  0  0  0  0  0  0  0  0
  -17.3571  -41.1709   -7.8759 N   0  0  0  0  0  0  0  0  0  0  0  0
  -23.1764  -38.7558   -6.7765 C   0  0  0  0  0  0  0  0  0  0  0  0
  -22.2547  -37.7443   -6.8094 C   0  0  0  0  0  0  0  0  0  0  0  0
  -20.9719  -38.1671   -7.0235 C   0  0  0  0  0  0  0  0  0  0  0  0
  -13.8497  -38.8548  -12.4508 N   0  0  0  0  0  0  0  0  0  0  0  0
  -12.6288  -38.3012  -12.3434 C   0  0  0  0  0  0  0  0  0  0  0  0
  -11.6644  -38.8441  -11.5151 C   0  0  0  0  0  0  0  0  0  0  0  0
  1  2  1  0
  2  3  1  0
  2  4  1  0
  4  5  2  0
  5  6  1  0
  6  7  1  0
  7  8  1  0
  8  9  1  0
  9 10  1  0
 10 11  1  6
 10 12  1  0
 12 13  1  1
 13 14  1  0
 14 15  1  0
 15 16  2  0
 16 17  1  0
 17 18  1  0
 18 19  1  0
 19 20  1  0
 20 21  1  0
 21 22  1  0
 22 23  1  0
 23 24  2  0
 24 25  1  0
 25 26  2  0
 26 27  1  0
 26 28  1  0
 28 29  1  0
 29 30  1  0
 30 31  1  0
 31 32  1  0
 32 33  2  0
 24 34  1  0
 34 35  2  0
 34 36  1  0
 16 37  1  0
 37 38  2  0
 38 39  1  0
  6 40  2  0
 40 41  1  0
 41 42  2  0
 27 22  2  0
 32 28  1  0
 36 12  1  0
 39 14  2  0
 42  4  1  0
M  END
$$$$
