
     RDKit          3D

 42 46  0  0  0  0  0  0  0  0999 V2000
  -10.7304  -42.5590  -10.0759 C   0  0  0  0  0  0  0  0  0  0  0  0
  -11.9359  -42.1306   -9.2335 C   0  0  0  0  0  0  0  0  0  0  0  0
  -12.3145  -43.2977   -8.3656 C   0  0  0  0  0  0  0  0  0  0  0  0
  -13.0416  -41.7542  -10.1667 C   0  0  0  0  0  0  0  0  0  0  0  0
  -13.3451  -40.4259  -10.4224 C   0  0  0  0  0  0  0  0  0  0  0  0
  -14.3646  -40.0615  -11.2755 C   0  0  0  0  0  0  0  0  0  0  0  0
  -14.6253  -38.6174  -11.4961 C   0  0  0  0  0  0  0  0  0  0  0  0
  -15.5347  -38.1602  -10.5098 N   0  0  0  0  0  0  0  0  0  0  0  0
  -16.7170  -38.8793  -10.3118 C   0  0  0  0  0  0  0  0  0  0  0  0
  -17.7744  -38.2934   -9.4365 C   0  0  1  0  0  0  0  0  0  0  0  0
  -18.8974  -38.1050  -10.2880 O   0  0  0  0  0  0  0  0  0  0  0  0
  -18.1911  -39.2790   -8.3298 C   0  0  2  0  0  0  0  0  0  0  0  0
  -18.9015  -38.6358   -7.2046 C   0  0  0  0  0  0  0  0  0  0  0  0
  -20.3856  -38.6763   -7.0955 C   0  0  0  0  0  0  0  0  0  0  0  0
  -21.2705  -39.7060   -7.2228 C   0  0  0  0  0  0  0  0  0  0  0  0
  -22.6072  -39.4679   -7.0200 C   0  0  0  0  0  0  0  0  0  0  0  0
  -23.7717  -40.4089   -7.0689 C   0  0  0  0  0  0  0  0  0  0  0  0
  -23.9563  -41.2539   -5.8353 C   0  0  0  0  0  0  0  0  0  0  0  0
  -23.1135  -42.4700   -5.7542 C   0  0  0  0  0  0  0  0  0  0  0  0
  -22.0503  -42.4900   -4.7205 C   0  0  0  0  0  0  0  0  0  0  0  0
  -20.9265  -43.2835   -4.9863 O   0  0  0  0  0  0  0  0  0  0  0  0
  -19.8775  -43.1775   -5.8911 C   0  0  0  0  0  0  0  0  0  0  0  0
  -18.9782  -42.1405   -6.0692 C   0  0  0  0  0  0  0  0  0  0  0  0
  -18.0305  -42.2853   -7.0539 C   0  0  0  0  0  0  0  0  0  0  0  0
  -18.0005  -43.4711   -7.8361 C   0  0  0  0  0  0  0  0  0  0  0  0
  -18.8759  -44.5102   -7.6770 C   0  0  0  0  0  0  0  0  0  0  0  0
  -19.8132  -44.3353   -6.6879 C   0  0  0  0  0  0  0  0  0  0  0  0
  -18.8128  -45.6648   -8.4813 N   0  0  0  0  0  0  0  0  0  0  0  0
  -18.9176  -45.7304   -9.9195 C   0  0  0  0  0  0  0  0  0  0  0  0
  -19.3385  -47.1438  -10.2492 C   0  0  0  0  0  0  0  0  0  0  0  0
  -19.3938  -47.9155   -8.9503 C   0  0  0  0  0  0  0  0  0  0  0  0
  -18.6365  -47.0053   -8.0421 C   0  0  0  0  0  0  0  0  0  0  0  0
  -17.9712  -47.4303   -7.0638 O   0  0  0  0  0  0  0  0  0  0  0  0
  -16.9820  -41.3700   -7.5448 C   0  0  0  0  0  0  0  0  0  0  0  0
  -15.8195  -41.9095   -7.7470 O   0  0  0  0  0  0  0  0  0  0  0  0
  -17.0202  -39.9879   -7.8417 N   0  0  0  0  0  0  0  0  0  0  0  0
  -23.0414  -38.1668   -6.6863 C   0  0  0  0  0  0  0  0  0  0  0  0
  -22.1997  -37.0963   -6.5466 C   0  0  0  0  0  0  0  0  0  0  0  0
  -20.8818  -37.3933   -6.7590 C   0  0  0  0  0  0  0  0  0  0  0  0
  -15.0521  -41.0614  -11.8506 N   0  0  0  0  0  0  0  0  0  0  0  0
  -14.7879  -42.3612  -11.6285 C   0  0  0  0  0  0  0  0  0  0  0  0
  -13.7715  -42.7523  -10.7772 C   0  0  0  0  0  0  0  0  0  0  0  0
  1  2  1  0
  2  3  1  0
  2  4  1  0
  4  5  2  0
  5  6  1  0
  6  7  1  0
  7  8  1  0
  8  9  1  0
  9 10  1  0
 10 11  1  6
 10 12  1  0
 12 13  1  1
 13 14  1  0
 14 15  1  0
 15 16  2  0
 16 17  1  0
 17 18  1  0
 18 19  1  0
 19 20  1  0
 20 21  1  0
 21 22  1  0
 22 23  1  0
 23 24  2  0
 24 25  1  0
 25 26  2  0
 26 27  1  0
 26 28  1  0
 28 29  1  0
 29 30  1  0
 30 31  1  0
 31 32  1  0
 32 33  2  0
 24 34  1  0
 34 35  2  0
 34 36  1  0
 16 37  1  0
 37 38  2  0
 38 39  1  0
  6 40  2  0
 40 41  1  0
 41 42  2  0
 27 22  2  0
 32 28  1  0
 36 12  1  0
 39 14  2  0
 42  4  1  0
M  END
$$$$
