
     RDKit          3D

 42 46  0  0  0  0  0  0  0  0999 V2000
  -11.6466  -37.1249  -10.6872 C   0  0  0  0  0  0  0  0  0  0  0  0
  -12.4331  -37.6144  -11.9070 C   0  0  0  0  0  0  0  0  0  0  0  0
  -13.2829  -36.4695  -12.3822 C   0  0  0  0  0  0  0  0  0  0  0  0
  -13.2655  -38.7815  -11.4825 C   0  0  0  0  0  0  0  0  0  0  0  0
  -13.5530  -39.0106  -10.1458 C   0  0  0  0  0  0  0  0  0  0  0  0
  -14.3142  -40.0845   -9.7368 C   0  0  0  0  0  0  0  0  0  0  0  0
  -14.5768  -40.2588   -8.2868 C   0  0  0  0  0  0  0  0  0  0  0  0
  -15.4146  -39.2052   -7.8431 N   0  0  0  0  0  0  0  0  0  0  0  0
  -16.2467  -38.5799   -8.7763 C   0  0  0  0  0  0  0  0  0  0  0  0
  -17.6800  -38.3590   -8.4241 C   0  0  1  0  0  0  0  0  0  0  0  0
  -18.3844  -38.4667   -9.6546 O   0  0  0  0  0  0  0  0  0  0  0  0
  -18.2021  -39.4672   -7.4918 C   0  0  2  0  0  0  0  0  0  0  0  0
  -19.1503  -38.9787   -6.4687 C   0  0  0  0  0  0  0  0  0  0  0  0
  -20.6219  -39.1288   -6.6357 C   0  0  0  0  0  0  0  0  0  0  0  0
  -21.3822  -40.2000   -7.0018 C   0  0  0  0  0  0  0  0  0  0  0  0
  -22.7489  -40.0721   -7.0285 C   0  0  0  0  0  0  0  0  0  0  0  0
  -23.8046  -41.0810   -7.3619 C   0  0  0  0  0  0  0  0  0  0  0  0
  -24.1331  -42.0455   -6.2519 C   0  0  0  0  0  0  0  0  0  0  0  0
  -23.2200  -43.2043   -6.1130 C   0  0  0  0  0  0  0  0  0  0  0  0
  -22.3574  -43.2467   -4.9073 C   0  0  0  0  0  0  0  0  0  0  0  0
  -21.1427  -43.9351   -5.0244 O   0  0  0  0  0  0  0  0  0  0  0  0
  -19.9632  -43.6766   -5.7115 C   0  0  0  0  0  0  0  0  0  0  0  0
  -19.1355  -42.5694   -5.6416 C   0  0  0  0  0  0  0  0  0  0  0  0
  -18.0205  -42.5596   -6.4451 C   0  0  0  0  0  0  0  0  0  0  0  0
  -17.7554  -43.6645   -7.2982 C   0  0  0  0  0  0  0  0  0  0  0  0
  -18.5561  -44.7704   -7.3825 C   0  0  0  0  0  0  0  0  0  0  0  0
  -19.6641  -44.7500   -6.5706 C   0  0  0  0  0  0  0  0  0  0  0  0
  -18.2570  -45.8399   -8.2490 N   0  0  0  0  0  0  0  0  0  0  0  0
  -18.3800  -45.8556   -9.6871 C   0  0  0  0  0  0  0  0  0  0  0  0
  -18.4832  -47.3090  -10.0874 C   0  0  0  0  0  0  0  0  0  0  0  0
  -18.3331  -48.1373   -8.8315 C   0  0  0  0  0  0  0  0  0  0  0  0
  -17.7757  -47.1272   -7.8852 C   0  0  0  0  0  0  0  0  0  0  0  0
  -17.0085  -47.4407   -6.9399 O   0  0  0  0  0  0  0  0  0  0  0  0
  -16.9814  -41.5348   -6.6640 C   0  0  0  0  0  0  0  0  0  0  0  0
  -15.7609  -41.9740   -6.6919 O   0  0  0  0  0  0  0  0  0  0  0  0
  -17.0809  -40.1371   -6.8548 N   0  0  0  0  0  0  0  0  0  0  0  0
  -23.3411  -38.8390   -6.6797 C   0  0  0  0  0  0  0  0  0  0  0  0
  -22.6286  -37.7314   -6.3063 C   0  0  0  0  0  0  0  0  0  0  0  0
  -21.2740  -37.9182   -6.2970 C   0  0  0  0  0  0  0  0  0  0  0  0
  -14.7666  -40.9015  -10.7017 N   0  0  0  0  0  0  0  0  0  0  0  0
  -14.5099  -40.7128  -12.0082 C   0  0  0  0  0  0  0  0  0  0  0  0
  -13.7489  -39.6441  -12.4437 C   0  0  0  0  0  0  0  0  0  0  0  0
  1  2  1  0
  2  3  1  0
  2  4  1  0
  4  5  2  0
  5  6  1  0
  6  7  1  0
  7  8  1  0
  8  9  1  0
  9 10  1  0
 10 11  1  6
 10 12  1  0
 12 13  1  1
 13 14  1  0
 14 15  1  0
 15 16  2  0
 16 17  1  0
 17 18  1  0
 18 19  1  0
 19 20  1  0
 20 21  1  0
 21 22  1  0
 22 23  1  0
 23 24  2  0
 24 25  1  0
 25 26  2  0
 26 27  1  0
 26 28  1  0
 28 29  1  0
 29 30  1  0
 30 31  1  0
 31 32  1  0
 32 33  2  0
 24 34  1  0
 34 35  2  0
 34 36  1  0
 16 37  1  0
 37 38  2  0
 38 39  1  0
  6 40  2  0
 40 41  1  0
 41 42  2  0
 27 22  2  0
 32 28  1  0
 36 12  1  0
 39 14  2  0
 42  4  1  0
M  END
$$$$
