
     RDKit          3D

 42 46  0  0  0  0  0  0  0  0999 V2000
  -14.0087  -34.4084  -10.4567 C   0  0  0  0  0  0  0  0  0  0  0  0
  -13.1183  -34.9357  -11.5860 C   0  0  0  0  0  0  0  0  0  0  0  0
  -13.8584  -34.7247  -12.8770 C   0  0  0  0  0  0  0  0  0  0  0  0
  -12.8564  -36.3852  -11.3297 C   0  0  0  0  0  0  0  0  0  0  0  0
  -12.9251  -36.9123  -10.0494 C   0  0  0  0  0  0  0  0  0  0  0  0
  -12.6812  -38.2449   -9.7949 C   0  0  0  0  0  0  0  0  0  0  0  0
  -12.7757  -38.7305   -8.3959 C   0  0  0  0  0  0  0  0  0  0  0  0
  -14.1256  -38.6465   -7.9720 N   0  0  0  0  0  0  0  0  0  0  0  0
  -14.7687  -39.8193   -7.5656 C   0  0  0  0  0  0  0  0  0  0  0  0
  -15.8764  -40.3583   -8.4082 C   0  0  1  0  0  0  0  0  0  0  0  0
  -15.7422  -41.7720   -8.3359 O   0  0  0  0  0  0  0  0  0  0  0  0
  -17.2517  -39.9920   -7.8218 C   0  0  2  0  0  0  0  0  0  0  0  0
  -17.7327  -38.6573   -8.2363 C   0  0  0  0  0  0  0  0  0  0  0  0
  -18.7238  -38.4932   -9.3349 C   0  0  0  0  0  0  0  0  0  0  0  0
  -19.9037  -39.1290   -9.5861 C   0  0  0  0  0  0  0  0  0  0  0  0
  -20.6574  -38.7384  -10.6651 C   0  0  0  0  0  0  0  0  0  0  0  0
  -21.9840  -39.2407  -11.1462 C   0  0  0  0  0  0  0  0  0  0  0  0
  -23.1751  -38.7056  -10.3947 C   0  0  0  0  0  0  0  0  0  0  0  0
  -23.4966  -39.3924   -9.1217 C   0  0  0  0  0  0  0  0  0  0  0  0
  -23.2829  -38.6300   -7.8676 C   0  0  0  0  0  0  0  0  0  0  0  0
  -23.0045  -39.3764   -6.7150 O   0  0  0  0  0  0  0  0  0  0  0  0
  -21.9072  -40.1239   -6.3057 C   0  0  0  0  0  0  0  0  0  0  0  0
  -20.5861  -39.7344   -6.1684 C   0  0  0  0  0  0  0  0  0  0  0  0
  -19.6852  -40.6843   -5.7505 C   0  0  0  0  0  0  0  0  0  0  0  0
  -20.1296  -42.0049   -5.4723 C   0  0  0  0  0  0  0  0  0  0  0  0
  -21.4294  -42.4128   -5.5973 C   0  0  0  0  0  0  0  0  0  0  0  0
  -22.3057  -41.4427   -6.0199 C   0  0  0  0  0  0  0  0  0  0  0  0
  -21.8232  -43.7358   -5.3170 N   0  0  0  0  0  0  0  0  0  0  0  0
  -23.0808  -44.1693   -4.7567 C   0  0  0  0  0  0  0  0  0  0  0  0
  -22.8276  -45.5301   -4.1504 C   0  0  0  0  0  0  0  0  0  0  0  0
  -21.3939  -45.9022   -4.4537 C   0  0  0  0  0  0  0  0  0  0  0  0
  -21.0612  -44.9178   -5.5246 C   0  0  0  0  0  0  0  0  0  0  0  0
  -20.2282  -45.1660   -6.4329 O   0  0  0  0  0  0  0  0  0  0  0  0
  -18.2223  -40.6298   -5.5632 C   0  0  0  0  0  0  0  0  0  0  0  0
  -17.7774  -41.1812   -4.4763 O   0  0  0  0  0  0  0  0  0  0  0  0
  -17.2023  -40.0774   -6.3720 N   0  0  0  0  0  0  0  0  0  0  0  0
  -20.1993  -37.6911  -11.4935 C   0  0  0  0  0  0  0  0  0  0  0  0
  -19.0242  -37.0191  -11.2907 C   0  0  0  0  0  0  0  0  0  0  0  0
  -18.3174  -37.4500  -10.2022 C   0  0  0  0  0  0  0  0  0  0  0  0
  -12.3733  -39.0115  -10.8536 N   0  0  0  0  0  0  0  0  0  0  0  0
  -12.2973  -38.5378  -12.1099 C   0  0  0  0  0  0  0  0  0  0  0  0
  -12.5368  -37.2057  -12.3910 C   0  0  0  0  0  0  0  0  0  0  0  0
  1  2  1  0
  2  3  1  0
  2  4  1  0
  4  5  2  0
  5  6  1  0
  6  7  1  0
  7  8  1  0
  8  9  1  0
  9 10  1  0
 10 11  1  1
 10 12  1  0
 12 13  1  1
 13 14  1  0
 14 15  1  0
 15 16  2  0
 16 17  1  0
 17 18  1  0
 18 19  1  0
 19 20  1  0
 20 21  1  0
 21 22  1  0
 22 23  1  0
 23 24  2  0
 24 25  1  0
 25 26  2  0
 26 27  1  0
 26 28  1  0
 28 29  1  0
 29 30  1  0
 30 31  1  0
 31 32  1  0
 32 33  2  0
 24 34  1  0
 34 35  2  0
 34 36  1  0
 16 37  1  0
 37 38  2  0
 38 39  1  0
  6 40  2  0
 40 41  1  0
 41 42  2  0
 27 22  2  0
 32 28  1  0
 36 12  1  0
 39 14  2  0
 42  4  1  0
M  END
$$$$
