
     RDKit          3D

 42 46  0  0  0  0  0  0  0  0999 V2000
  -25.0652  -40.3163   -6.4548 C   0  0  0  0  0  0  0  0  0  0  0  0
  -24.0770  -39.1534   -6.3232 C   0  0  0  0  0  0  0  0  0  0  0  0
  -23.9812  -38.4912   -7.6690 C   0  0  0  0  0  0  0  0  0  0  0  0
  -22.7607  -39.7124   -5.8873 C   0  0  0  0  0  0  0  0  0  0  0  0
  -21.6506  -38.8971   -5.7298 C   0  0  0  0  0  0  0  0  0  0  0  0
  -20.4285  -39.3968   -5.3340 C   0  0  0  0  0  0  0  0  0  0  0  0
  -19.2894  -38.4571   -5.1882 C   0  0  0  0  0  0  0  0  0  0  0  0
  -18.2454  -39.1083   -4.4847 N   0  0  0  0  0  0  0  0  0  0  0  0
  -17.0685  -39.4132   -5.1746 C   0  0  0  0  0  0  0  0  0  0  0  0
  -16.8322  -38.7784   -6.5045 C   0  0  1  0  0  0  0  0  0  0  0  0
  -15.4543  -38.9969   -6.7793 O   0  0  0  0  0  0  0  0  0  0  0  0
  -17.6428  -39.4803   -7.6090 C   0  0  2  0  0  0  0  0  0  0  0  0
  -18.3685  -38.5441   -8.4929 C   0  0  0  0  0  0  0  0  0  0  0  0
  -17.8360  -38.1644   -9.8302 C   0  0  0  0  0  0  0  0  0  0  0  0
  -17.3301  -38.9204  -10.8462 C   0  0  0  0  0  0  0  0  0  0  0  0
  -16.9491  -38.3043  -12.0124 C   0  0  0  0  0  0  0  0  0  0  0  0
  -16.3966  -38.8901  -13.2755 C   0  0  0  0  0  0  0  0  0  0  0  0
  -17.4227  -39.5069  -14.1902 C   0  0  0  0  0  0  0  0  0  0  0  0
  -17.8369  -40.8898  -13.8558 C   0  0  0  0  0  0  0  0  0  0  0  0
  -19.2240  -41.0825  -13.3678 C   0  0  0  0  0  0  0  0  0  0  0  0
  -19.4496  -42.1780  -12.5239 O   0  0  0  0  0  0  0  0  0  0  0  0
  -19.0780  -42.4662  -11.2166 C   0  0  0  0  0  0  0  0  0  0  0  0
  -19.3137  -41.7419  -10.0608 C   0  0  0  0  0  0  0  0  0  0  0  0
  -18.8230  -42.2511   -8.8824 C   0  0  0  0  0  0  0  0  0  0  0  0
  -18.1109  -43.4806   -8.8868 C   0  0  0  0  0  0  0  0  0  0  0  0
  -17.8681  -44.2156  -10.0147 C   0  0  0  0  0  0  0  0  0  0  0  0
  -18.3676  -43.6800  -11.1771 C   0  0  0  0  0  0  0  0  0  0  0  0
  -17.1505  -45.4269   -9.9721 N   0  0  0  0  0  0  0  0  0  0  0  0
  -15.8471  -45.6464   -9.3919 C   0  0  0  0  0  0  0  0  0  0  0  0
  -15.2910  -46.8846  -10.0561 C   0  0  0  0  0  0  0  0  0  0  0  0
  -16.3578  -47.4193  -10.9845 C   0  0  0  0  0  0  0  0  0  0  0  0
  -17.5603  -46.6834  -10.4957 C   0  0  0  0  0  0  0  0  0  0  0  0
  -18.7200  -47.1632  -10.5693 O   0  0  0  0  0  0  0  0  0  0  0  0
  -18.8372  -41.7193   -7.5058 C   0  0  0  0  0  0  0  0  0  0  0  0
  -19.1405  -42.5755   -6.5794 O   0  0  0  0  0  0  0  0  0  0  0  0
  -18.5719  -40.4224   -7.0083 N   0  0  0  0  0  0  0  0  0  0  0  0
  -17.0852  -36.9049  -12.1389 C   0  0  0  0  0  0  0  0  0  0  0  0
  -17.5845  -36.0969  -11.1532 C   0  0  0  0  0  0  0  0  0  0  0  0
  -17.9480  -36.7651  -10.0168 C   0  0  0  0  0  0  0  0  0  0  0  0
  -20.3660  -40.7188   -5.1064 N   0  0  0  0  0  0  0  0  0  0  0  0
  -21.4199  -41.5421   -5.2476 C   0  0  0  0  0  0  0  0  0  0  0  0
  -22.6556  -41.0656   -5.6437 C   0  0  0  0  0  0  0  0  0  0  0  0
  1  2  1  0
  2  3  1  0
  2  4  1  0
  4  5  2  0
  5  6  1  0
  6  7  1  0
  7  8  1  0
  8  9  1  0
  9 10  1  0
 10 11  1  6
 10 12  1  0
 12 13  1  1
 13 14  1  0
 14 15  1  0
 15 16  2  0
 16 17  1  0
 17 18  1  0
 18 19  1  0
 19 20  1  0
 20 21  1  0
 21 22  1  0
 22 23  1  0
 23 24  2  0
 24 25  1  0
 25 26  2  0
 26 27  1  0
 26 28  1  0
 28 29  1  0
 29 30  1  0
 30 31  1  0
 31 32  1  0
 32 33  2  0
 24 34  1  0
 34 35  2  0
 34 36  1  0
 16 37  1  0
 37 38  2  0
 38 39  1  0
  6 40  2  0
 40 41  1  0
 41 42  2  0
 27 22  2  0
 32 28  1  0
 36 12  1  0
 39 14  2  0
 42  4  1  0
M  END
$$$$
