
     RDKit          3D

 42 46  0  0  0  0  0  0  0  0999 V2000
  -12.5242  -36.1451  -13.8820 C   0  0  0  0  0  0  0  0  0  0  0  0
  -13.5305  -36.2231  -12.7299 C   0  0  0  0  0  0  0  0  0  0  0  0
  -13.0275  -35.3270  -11.6332 C   0  0  0  0  0  0  0  0  0  0  0  0
  -13.6141  -37.6479  -12.2847 C   0  0  0  0  0  0  0  0  0  0  0  0
  -13.8260  -37.9736  -10.9539 C   0  0  0  0  0  0  0  0  0  0  0  0
  -13.9002  -39.2817  -10.5258 C   0  0  0  0  0  0  0  0  0  0  0  0
  -14.1298  -39.5459   -9.0838 C   0  0  0  0  0  0  0  0  0  0  0  0
  -14.6571  -38.3760   -8.4820 N   0  0  0  0  0  0  0  0  0  0  0  0
  -15.5927  -38.5216   -7.4537 C   0  0  0  0  0  0  0  0  0  0  0  0
  -17.0438  -38.5409   -7.8021 C   0  0  1  0  0  0  0  0  0  0  0  0
  -17.0849  -38.7796   -9.2032 O   0  0  0  0  0  0  0  0  0  0  0  0
  -17.7677  -39.7103   -7.1105 C   0  0  2  0  0  0  0  0  0  0  0  0
  -18.6946  -39.2808   -6.0425 C   0  0  0  0  0  0  0  0  0  0  0  0
  -20.1609  -39.1788   -6.2784 C   0  0  0  0  0  0  0  0  0  0  0  0
  -21.0416  -40.0412   -6.8616 C   0  0  0  0  0  0  0  0  0  0  0  0
  -22.3732  -39.7098   -6.9043 C   0  0  0  0  0  0  0  0  0  0  0  0
  -23.5391  -40.4740   -7.4525 C   0  0  0  0  0  0  0  0  0  0  0  0
  -24.0615  -41.5646   -6.5537 C   0  0  0  0  0  0  0  0  0  0  0  0
  -23.3289  -42.8515   -6.6080 C   0  0  0  0  0  0  0  0  0  0  0  0
  -22.5504  -43.2393   -5.4067 C   0  0  0  0  0  0  0  0  0  0  0  0
  -21.4392  -44.0669   -5.6149 O   0  0  0  0  0  0  0  0  0  0  0  0
  -20.1981  -43.8653   -6.2059 C   0  0  0  0  0  0  0  0  0  0  0  0
  -19.2290  -42.9241   -5.9047 C   0  0  0  0  0  0  0  0  0  0  0  0
  -18.0799  -42.9336   -6.6586 C   0  0  0  0  0  0  0  0  0  0  0  0
  -17.9240  -43.8920   -7.6958 C   0  0  0  0  0  0  0  0  0  0  0  0
  -18.8654  -44.8334   -8.0102 C   0  0  0  0  0  0  0  0  0  0  0  0
  -20.0039  -44.7971   -7.2421 C   0  0  0  0  0  0  0  0  0  0  0  0
  -18.6703  -45.7601   -9.0529 N   0  0  0  0  0  0  0  0  0  0  0  0
  -19.1617  -45.6634  -10.4066 C   0  0  0  0  0  0  0  0  0  0  0  0
  -19.1811  -47.0726  -10.9517 C   0  0  0  0  0  0  0  0  0  0  0  0
  -18.6046  -47.9787   -9.8876 C   0  0  0  0  0  0  0  0  0  0  0  0
  -17.9518  -46.9850   -8.9859 C   0  0  0  0  0  0  0  0  0  0  0  0
  -16.9310  -47.2608   -8.3060 O   0  0  0  0  0  0  0  0  0  0  0  0
  -16.8969  -42.0512   -6.6501 C   0  0  0  0  0  0  0  0  0  0  0  0
  -15.7503  -42.6537   -6.7238 O   0  0  0  0  0  0  0  0  0  0  0  0
  -16.7891  -40.6430   -6.5777 N   0  0  0  0  0  0  0  0  0  0  0  0
  -22.8060  -38.4868   -6.3478 C   0  0  0  0  0  0  0  0  0  0  0  0
  -21.9679  -37.5832   -5.7519 C   0  0  0  0  0  0  0  0  0  0  0  0
  -20.6554  -37.9669   -5.7377 C   0  0  0  0  0  0  0  0  0  0  0  0
  -13.7576  -40.2298  -11.4660 N   0  0  0  0  0  0  0  0  0  0  0  0
  -13.5514  -39.9542  -12.7660 C   0  0  0  0  0  0  0  0  0  0  0  0
  -13.4725  -38.6510  -13.2203 C   0  0  0  0  0  0  0  0  0  0  0  0
  1  2  1  0
  2  3  1  0
  2  4  1  0
  4  5  2  0
  5  6  1  0
  6  7  1  0
  7  8  1  0
  8  9  1  0
  9 10  1  0
 10 11  1  6
 10 12  1  0
 12 13  1  1
 13 14  1  0
 14 15  1  0
 15 16  2  0
 16 17  1  0
 17 18  1  0
 18 19  1  0
 19 20  1  0
 20 21  1  0
 21 22  1  0
 22 23  1  0
 23 24  2  0
 24 25  1  0
 25 26  2  0
 26 27  1  0
 26 28  1  0
 28 29  1  0
 29 30  1  0
 30 31  1  0
 31 32  1  0
 32 33  2  0
 24 34  1  0
 34 35  2  0
 34 36  1  0
 16 37  1  0
 37 38  2  0
 38 39  1  0
  6 40  2  0
 40 41  1  0
 41 42  2  0
 27 22  2  0
 32 28  1  0
 36 12  1  0
 39 14  2  0
 42  4  1  0
M  END
$$$$
