
     RDKit          3D

 36 38  0  0  0  0  0  0  0  0999 V2000
  -14.4367  -36.7291  -15.3887 C   0  0  0  0  0  0  0  0  0  0  0  0
  -14.8353  -36.3099  -13.9708 C   0  0  0  0  0  0  0  0  0  0  0  0
  -13.6006  -36.4207  -13.0789 C   0  0  0  0  0  0  0  0  0  0  0  0
  -13.8844  -35.9746  -11.6816 C   0  0  0  0  0  0  0  0  0  0  0  0
  -13.2637  -36.7971  -10.6685 N   0  0  0  0  0  0  0  0  0  0  0  0
  -13.8116  -38.0668  -10.3386 C   0  0  0  0  0  0  0  0  0  0  0  0
  -14.7293  -38.5083  -11.0763 O   0  0  0  0  0  0  0  0  0  0  0  0
  -13.3199  -38.8481   -9.1639 C   0  0  2  0  0  0  0  0  0  0  0  0
  -12.2256  -39.7673   -9.6334 C   0  0  0  0  0  0  0  0  0  0  0  0
  -14.4385  -39.7298   -8.5900 C   0  0  0  0  0  0  0  0  0  0  0  0
  -15.5345  -38.8159   -8.1487 C   0  0  2  0  0  0  0  0  0  0  0  0
  -15.2483  -38.3327   -6.8846 O   0  0  0  0  0  0  0  0  0  0  0  0
  -16.9063  -39.3725   -8.2368 C   0  0  2  0  0  0  0  0  0  0  0  0
  -17.9061  -38.2012   -8.1553 C   0  0  0  0  0  0  0  0  0  0  0  0
  -19.3327  -38.5962   -8.1848 C   0  0  0  0  0  0  0  0  0  0  0  0
  -19.9318  -38.3479   -9.4622 C   0  0  0  0  0  0  0  0  0  0  0  0
  -21.2325  -38.6370   -9.7493 C   0  0  0  0  0  0  0  0  0  0  0  0
  -21.9873  -39.1875   -8.7695 C   0  0  0  0  0  0  0  0  0  0  0  0
  -23.3746  -39.5005   -9.0558 O   0  0  0  0  0  0  0  0  0  0  0  0
  -21.4724  -39.4646   -7.4835 C   0  0  0  0  0  0  0  0  0  0  0  0
  -22.5701  -40.0582   -6.6805 C   0  0  0  0  0  0  0  0  0  0  0  0
  -22.2649  -41.0425   -5.6237 C   0  0  0  0  0  0  0  0  0  0  0  0
  -22.0044  -40.5558   -4.3499 C   0  0  0  0  0  0  0  0  0  0  0  0
  -21.7145  -41.3136   -3.2441 C   0  0  0  0  0  0  0  0  0  0  0  0
  -21.6748  -42.6775   -3.3936 C   0  0  0  0  0  0  0  0  0  0  0  0
  -21.9290  -43.1884   -4.6459 C   0  0  0  0  0  0  0  0  0  0  0  0
  -22.2229  -42.4294   -5.7730 C   0  0  0  0  0  0  0  0  0  0  0  0
  -22.4444  -43.1037   -6.9263 O   0  0  0  0  0  0  0  0  0  0  0  0
  -21.9762  -43.0721   -8.2356 C   0  0  0  0  0  0  0  0  0  0  0  0
  -20.5769  -43.5962   -8.4274 C   0  0  0  0  0  0  0  0  0  0  0  0
  -19.5396  -43.0740   -7.5230 C   0  0  0  0  0  0  0  0  0  0  0  0
  -18.4074  -42.3324   -8.2503 C   0  0  0  0  0  0  0  0  0  0  0  0
  -17.4717  -41.6854   -7.3027 C   0  0  0  0  0  0  0  0  0  0  0  0
  -16.8832  -42.4844   -6.4900 O   0  0  0  0  0  0  0  0  0  0  0  0
  -17.1614  -40.3428   -7.1914 N   0  0  0  0  0  0  0  0  0  0  0  0
  -20.1614  -39.1607   -7.2263 C   0  0  0  0  0  0  0  0  0  0  0  0
  1  2  1  0
  2  3  1  0
  3  4  1  0
  4  5  1  0
  5  6  1  0
  6  7  2  0
  6  8  1  0
  8  9  1  6
  8 10  1  0
 10 11  1  0
 11 12  1  1
 11 13  1  0
 13 14  1  1
 14 15  1  0
 15 16  2  0
 16 17  1  0
 17 18  2  0
 18 19  1  0
 18 20  1  0
 20 21  1  0
 21 22  1  0
 22 23  2  0
 23 24  1  0
 24 25  2  0
 25 26  1  0
 26 27  2  0
 27 28  1  0
 28 29  1  0
 29 30  1  0
 30 31  1  0
 31 32  1  0
 32 33  1  0
 33 34  2  0
 33 35  1  0
 20 36  2  0
 27 22  1  0
 35 13  1  0
 36 15  1  0
M  END
$$$$
