
     RDKit          3D

 36 38  0  0  0  0  0  0  0  0999 V2000
  -10.1909  -35.6006  -12.7725 C   0  0  0  0  0  0  0  0  0  0  0  0
  -11.0888  -35.3609  -11.5554 C   0  0  0  0  0  0  0  0  0  0  0  0
  -11.5731  -36.7179  -11.0490 C   0  0  0  0  0  0  0  0  0  0  0  0
  -12.8924  -37.0921  -11.6417 C   0  0  0  0  0  0  0  0  0  0  0  0
  -13.2048  -38.4986  -11.5305 N   0  0  0  0  0  0  0  0  0  0  0  0
  -14.2015  -38.9437  -10.6197 C   0  0  0  0  0  0  0  0  0  0  0  0
  -15.3948  -38.6423  -10.8779 O   0  0  0  0  0  0  0  0  0  0  0  0
  -13.8498  -39.7375   -9.4039 C   0  0  2  0  0  0  0  0  0  0  0  0
  -12.9404  -40.8609   -9.8208 C   0  0  0  0  0  0  0  0  0  0  0  0
  -15.1043  -40.3736   -8.7876 C   0  0  0  0  0  0  0  0  0  0  0  0
  -16.0904  -39.2736   -8.5667 C   0  0  2  0  0  0  0  0  0  0  0  0
  -15.6531  -38.4659   -7.5325 O   0  0  0  0  0  0  0  0  0  0  0  0
  -17.4980  -39.7033   -8.3835 C   0  0  2  0  0  0  0  0  0  0  0  0
  -18.3553  -38.4461   -8.1333 C   0  0  0  0  0  0  0  0  0  0  0  0
  -19.7908  -38.7098   -7.8847 C   0  0  0  0  0  0  0  0  0  0  0  0
  -20.5978  -38.4075   -9.0292 C   0  0  0  0  0  0  0  0  0  0  0  0
  -21.9498  -38.5771   -9.0592 C   0  0  0  0  0  0  0  0  0  0  0  0
  -22.5502  -39.0572   -7.9448 C   0  0  0  0  0  0  0  0  0  0  0  0
  -23.9889  -39.2428   -7.9573 O   0  0  0  0  0  0  0  0  0  0  0  0
  -21.8265  -39.3807   -6.7755 C   0  0  0  0  0  0  0  0  0  0  0  0
  -22.7995  -39.8725   -5.7689 C   0  0  0  0  0  0  0  0  0  0  0  0
  -22.3876  -40.8810   -4.7728 C   0  0  0  0  0  0  0  0  0  0  0  0
  -21.8467  -40.4207   -3.5800 C   0  0  0  0  0  0  0  0  0  0  0  0
  -21.4202  -41.2022   -2.5367 C   0  0  0  0  0  0  0  0  0  0  0  0
  -21.5316  -42.5641   -2.6681 C   0  0  0  0  0  0  0  0  0  0  0  0
  -22.0643  -43.0490   -3.8407 C   0  0  0  0  0  0  0  0  0  0  0  0
  -22.4988  -42.2659   -4.9040 C   0  0  0  0  0  0  0  0  0  0  0  0
  -22.9953  -42.9167   -5.9828 O   0  0  0  0  0  0  0  0  0  0  0  0
  -22.7843  -42.9271   -7.3575 C   0  0  0  0  0  0  0  0  0  0  0  0
  -21.4997  -43.5760   -7.8027 C   0  0  0  0  0  0  0  0  0  0  0  0
  -20.2666  -43.1507   -7.1206 C   0  0  0  0  0  0  0  0  0  0  0  0
  -19.2322  -42.5146   -8.0620 C   0  0  0  0  0  0  0  0  0  0  0  0
  -18.0791  -41.9557   -7.3202 C   0  0  0  0  0  0  0  0  0  0  0  0
  -17.4203  -42.8053   -6.6208 O   0  0  0  0  0  0  0  0  0  0  0  0
  -17.6347  -40.6469   -7.2925 N   0  0  0  0  0  0  0  0  0  0  0  0
  -20.4686  -39.1972   -6.7770 C   0  0  0  0  0  0  0  0  0  0  0  0
  1  2  1  0
  2  3  1  0
  3  4  1  0
  4  5  1  0
  5  6  1  0
  6  7  2  0
  6  8  1  0
  8  9  1  6
  8 10  1  0
 10 11  1  0
 11 12  1  1
 11 13  1  0
 13 14  1  1
 14 15  1  0
 15 16  2  0
 16 17  1  0
 17 18  2  0
 18 19  1  0
 18 20  1  0
 20 21  1  0
 21 22  1  0
 22 23  2  0
 23 24  1  0
 24 25  2  0
 25 26  1  0
 26 27  2  0
 27 28  1  0
 28 29  1  0
 29 30  1  0
 30 31  1  0
 31 32  1  0
 32 33  1  0
 33 34  2  0
 33 35  1  0
 20 36  2  0
 27 22  1  0
 35 13  1  0
 36 15  1  0
M  END
$$$$
