
     RDKit          3D

 36 38  0  0  0  0  0  0  0  0999 V2000
  -14.7235  -33.8806  -11.8513 C   0  0  0  0  0  0  0  0  0  0  0  0
  -13.5309  -34.8321  -11.7197 C   0  0  0  0  0  0  0  0  0  0  0  0
  -14.0565  -36.1900  -11.2590 C   0  0  0  0  0  0  0  0  0  0  0  0
  -12.9629  -37.2031  -11.1600 C   0  0  0  0  0  0  0  0  0  0  0  0
  -13.0459  -38.0392   -9.9843 N   0  0  0  0  0  0  0  0  0  0  0  0
  -13.6167  -39.3387  -10.0654 C   0  0  0  0  0  0  0  0  0  0  0  0
  -14.2350  -39.6323  -11.1203 O   0  0  0  0  0  0  0  0  0  0  0  0
  -13.4894  -40.3187   -8.9450 C   0  0  2  0  0  0  0  0  0  0  0  0
  -12.6505  -41.4730   -9.4210 C   0  0  0  0  0  0  0  0  0  0  0  0
  -14.8635  -40.8850   -8.5586 C   0  0  0  0  0  0  0  0  0  0  0  0
  -15.7821  -39.7212   -8.3769 C   0  0  2  0  0  0  0  0  0  0  0  0
  -15.3708  -38.9776   -7.2855 O   0  0  0  0  0  0  0  0  0  0  0  0
  -17.2271  -40.0499   -8.3168 C   0  0  2  0  0  0  0  0  0  0  0  0
  -18.0079  -38.7411   -8.0806 C   0  0  0  0  0  0  0  0  0  0  0  0
  -19.4736  -38.9045   -7.9508 C   0  0  0  0  0  0  0  0  0  0  0  0
  -20.1656  -38.5026   -9.1391 C   0  0  0  0  0  0  0  0  0  0  0  0
  -21.5200  -38.5688   -9.2767 C   0  0  0  0  0  0  0  0  0  0  0  0
  -22.2380  -39.0409   -8.2306 C   0  0  0  0  0  0  0  0  0  0  0  0
  -23.6811  -39.1171   -8.3579 O   0  0  0  0  0  0  0  0  0  0  0  0
  -21.6323  -39.4584   -7.0246 C   0  0  0  0  0  0  0  0  0  0  0  0
  -22.7134  -39.9103   -6.1140 C   0  0  0  0  0  0  0  0  0  0  0  0
  -22.4539  -40.9810   -5.1316 C   0  0  0  0  0  0  0  0  0  0  0  0
  -21.9751  -40.6045   -3.8841 C   0  0  0  0  0  0  0  0  0  0  0  0
  -21.6884  -41.4517   -2.8444 C   0  0  0  0  0  0  0  0  0  0  0  0
  -21.8876  -42.7959   -3.0387 C   0  0  0  0  0  0  0  0  0  0  0  0
  -22.3617  -43.1983   -4.2664 C   0  0  0  0  0  0  0  0  0  0  0  0
  -22.6547  -42.3482   -5.3267 C   0  0  0  0  0  0  0  0  0  0  0  0
  -23.1120  -42.9218   -6.4649 O   0  0  0  0  0  0  0  0  0  0  0  0
  -22.7966  -42.9002   -7.8193 C   0  0  0  0  0  0  0  0  0  0  0  0
  -21.5317  -43.6282   -8.1933 C   0  0  0  0  0  0  0  0  0  0  0  0
  -20.3275  -43.3208   -7.4044 C   0  0  0  0  0  0  0  0  0  0  0  0
  -19.1801  -42.7320   -8.2395 C   0  0  0  0  0  0  0  0  0  0  0  0
  -18.0503  -42.2878   -7.3918 C   0  0  0  0  0  0  0  0  0  0  0  0
  -17.5109  -43.2084   -6.6800 O   0  0  0  0  0  0  0  0  0  0  0  0
  -17.5158  -41.0179   -7.2780 N   0  0  0  0  0  0  0  0  0  0  0  0
  -20.2687  -39.3777   -6.9173 C   0  0  0  0  0  0  0  0  0  0  0  0
  1  2  1  0
  2  3  1  0
  3  4  1  0
  4  5  1  0
  5  6  1  0
  6  7  2  0
  6  8  1  0
  8  9  1  6
  8 10  1  0
 10 11  1  0
 11 12  1  1
 11 13  1  0
 13 14  1  1
 14 15  1  0
 15 16  2  0
 16 17  1  0
 17 18  2  0
 18 19  1  0
 18 20  1  0
 20 21  1  0
 21 22  1  0
 22 23  2  0
 23 24  1  0
 24 25  2  0
 25 26  1  0
 26 27  2  0
 27 28  1  0
 28 29  1  0
 29 30  1  0
 30 31  1  0
 31 32  1  0
 32 33  1  0
 33 34  2  0
 33 35  1  0
 20 36  2  0
 27 22  1  0
 35 13  1  0
 36 15  1  0
M  END
$$$$
