
     RDKit          3D

 36 38  0  0  0  0  0  0  0  0999 V2000
  -12.7175  -33.5258  -11.9338 C   0  0  0  0  0  0  0  0  0  0  0  0
  -12.0234  -34.7849  -12.4608 C   0  0  0  0  0  0  0  0  0  0  0  0
  -12.1656  -35.8811  -11.4069 C   0  0  0  0  0  0  0  0  0  0  0  0
  -13.5985  -36.1741  -11.1018 C   0  0  0  0  0  0  0  0  0  0  0  0
  -13.7972  -36.8885   -9.8615 N   0  0  0  0  0  0  0  0  0  0  0  0
  -13.8813  -38.3076   -9.8550 C   0  0  0  0  0  0  0  0  0  0  0  0
  -14.5369  -38.8508  -10.7805 O   0  0  0  0  0  0  0  0  0  0  0  0
  -13.2193  -39.1242   -8.7934 C   0  0  2  0  0  0  0  0  0  0  0  0
  -12.3570  -40.1589   -9.4632 C   0  0  0  0  0  0  0  0  0  0  0  0
  -14.2632  -39.8766   -7.9553 C   0  0  0  0  0  0  0  0  0  0  0  0
  -15.3534  -38.9060   -7.6384 C   0  0  2  0  0  0  0  0  0  0  0  0
  -15.1594  -38.3967   -6.3670 O   0  0  0  0  0  0  0  0  0  0  0  0
  -16.7349  -39.4089   -7.8341 C   0  0  2  0  0  0  0  0  0  0  0  0
  -17.7001  -38.2096   -7.7425 C   0  0  0  0  0  0  0  0  0  0  0  0
  -19.1344  -38.5525   -7.8737 C   0  0  0  0  0  0  0  0  0  0  0  0
  -19.6508  -38.2142   -9.1665 C   0  0  0  0  0  0  0  0  0  0  0  0
  -20.9413  -38.4418   -9.5415 C   0  0  0  0  0  0  0  0  0  0  0  0
  -21.7684  -39.0182   -8.6380 C   0  0  0  0  0  0  0  0  0  0  0  0
  -23.1461  -39.2667   -9.0184 O   0  0  0  0  0  0  0  0  0  0  0  0
  -21.3375  -39.3828   -7.3429 C   0  0  0  0  0  0  0  0  0  0  0  0
  -22.4978  -39.9807   -6.6372 C   0  0  0  0  0  0  0  0  0  0  0  0
  -22.2853  -41.0311   -5.6221 C   0  0  0  0  0  0  0  0  0  0  0  0
  -22.0834  -40.6240   -4.3104 C   0  0  0  0  0  0  0  0  0  0  0  0
  -21.8818  -41.4505   -3.2346 C   0  0  0  0  0  0  0  0  0  0  0  0
  -21.8767  -42.8048   -3.4583 C   0  0  0  0  0  0  0  0  0  0  0  0
  -22.0744  -43.2375   -4.7497 C   0  0  0  0  0  0  0  0  0  0  0  0
  -22.2788  -42.4084   -5.8468 C   0  0  0  0  0  0  0  0  0  0  0  0
  -22.4547  -43.0107   -7.0468 O   0  0  0  0  0  0  0  0  0  0  0  0
  -21.9111  -42.9242   -8.3242 C   0  0  0  0  0  0  0  0  0  0  0  0
  -20.5203  -43.4855   -8.4669 C   0  0  0  0  0  0  0  0  0  0  0  0
  -19.5208  -43.0498   -7.4781 C   0  0  0  0  0  0  0  0  0  0  0  0
  -18.3257  -42.3095   -8.0981 C   0  0  0  0  0  0  0  0  0  0  0  0
  -17.4261  -41.7481   -7.0649 C   0  0  0  0  0  0  0  0  0  0  0  0
  -16.9111  -42.6102   -6.2670 O   0  0  0  0  0  0  0  0  0  0  0  0
  -17.0804  -40.4252   -6.8609 N   0  0  0  0  0  0  0  0  0  0  0  0
  -20.0344  -39.1392   -6.9963 C   0  0  0  0  0  0  0  0  0  0  0  0
  1  2  1  0
  2  3  1  0
  3  4  1  0
  4  5  1  0
  5  6  1  0
  6  7  2  0
  6  8  1  0
  8  9  1  6
  8 10  1  0
 10 11  1  0
 11 12  1  1
 11 13  1  0
 13 14  1  1
 14 15  1  0
 15 16  2  0
 16 17  1  0
 17 18  2  0
 18 19  1  0
 18 20  1  0
 20 21  1  0
 21 22  1  0
 22 23  2  0
 23 24  1  0
 24 25  2  0
 25 26  1  0
 26 27  2  0
 27 28  1  0
 28 29  1  0
 29 30  1  0
 30 31  1  0
 31 32  1  0
 32 33  1  0
 33 34  2  0
 33 35  1  0
 20 36  2  0
 27 22  1  0
 35 13  1  0
 36 15  1  0
M  END
$$$$
