
     RDKit          3D

 36 38  0  0  0  0  0  0  0  0999 V2000
   -9.0350  -37.0238  -11.6067 C   0  0  0  0  0  0  0  0  0  0  0  0
   -9.8626  -38.2730  -11.9223 C   0  0  0  0  0  0  0  0  0  0  0  0
  -11.3279  -37.9573  -11.6297 C   0  0  0  0  0  0  0  0  0  0  0  0
  -11.6339  -38.0489  -10.1702 C   0  0  0  0  0  0  0  0  0  0  0  0
  -12.8430  -38.7820   -9.8719 N   0  0  0  0  0  0  0  0  0  0  0  0
  -13.7352  -38.3183   -8.8669 C   0  0  0  0  0  0  0  0  0  0  0  0
  -13.8033  -37.0759   -8.6847 O   0  0  0  0  0  0  0  0  0  0  0  0
  -14.5601  -39.2652   -8.0577 C   0  0  2  0  0  0  0  0  0  0  0  0
  -13.6297  -40.1743   -7.3022 C   0  0  0  0  0  0  0  0  0  0  0  0
  -15.4211  -40.1523   -8.9688 C   0  0  0  0  0  0  0  0  0  0  0  0
  -16.4865  -39.2811   -9.5493 C   0  0  2  0  0  0  0  0  0  0  0  0
  -16.1766  -37.9546   -9.3088 O   0  0  0  0  0  0  0  0  0  0  0  0
  -17.8746  -39.6127   -9.1458 C   0  0  2  0  0  0  0  0  0  0  0  0
  -18.5803  -38.3050   -8.7332 C   0  0  0  0  0  0  0  0  0  0  0  0
  -19.9724  -38.4712   -8.2574 C   0  0  0  0  0  0  0  0  0  0  0  0
  -20.9287  -38.0741   -9.2474 C   0  0  0  0  0  0  0  0  0  0  0  0
  -22.2767  -38.1436   -9.0582 C   0  0  0  0  0  0  0  0  0  0  0  0
  -22.7234  -38.6144   -7.8701 C   0  0  0  0  0  0  0  0  0  0  0  0
  -24.1550  -38.6941   -7.6496 O   0  0  0  0  0  0  0  0  0  0  0  0
  -21.8466  -39.0273   -6.8422 C   0  0  0  0  0  0  0  0  0  0  0  0
  -22.6783  -39.4790   -5.6993 C   0  0  0  0  0  0  0  0  0  0  0  0
  -22.1892  -40.5464   -4.8048 C   0  0  0  0  0  0  0  0  0  0  0  0
  -21.4279  -40.1654   -3.7081 C   0  0  0  0  0  0  0  0  0  0  0  0
  -20.8993  -41.0092   -2.7649 C   0  0  0  0  0  0  0  0  0  0  0  0
  -21.1354  -42.3543   -2.9032 C   0  0  0  0  0  0  0  0  0  0  0  0
  -21.8873  -42.7612   -3.9817 C   0  0  0  0  0  0  0  0  0  0  0  0
  -22.4269  -41.9146   -4.9434 C   0  0  0  0  0  0  0  0  0  0  0  0
  -23.1407  -42.4923   -5.9386 O   0  0  0  0  0  0  0  0  0  0  0  0
  -23.1572  -42.4737   -7.3292 C   0  0  0  0  0  0  0  0  0  0  0  0
  -22.0159  -43.2000   -7.9923 C   0  0  0  0  0  0  0  0  0  0  0  0
  -20.6593  -42.8879   -7.5138 C   0  0  0  0  0  0  0  0  0  0  0  0
  -19.7455  -42.2989   -8.5995 C   0  0  0  0  0  0  0  0  0  0  0  0
  -18.4475  -41.8498   -8.0464 C   0  0  0  0  0  0  0  0  0  0  0  0
  -17.7515  -42.7673   -7.4817 O   0  0  0  0  0  0  0  0  0  0  0  0
  -17.9048  -40.5785   -8.0661 N   0  0  0  0  0  0  0  0  0  0  0  0
  -20.4969  -38.9433   -7.0632 C   0  0  0  0  0  0  0  0  0  0  0  0
  1  2  1  0
  2  3  1  0
  3  4  1  0
  4  5  1  0
  5  6  1  0
  6  7  2  0
  6  8  1  0
  8  9  1  6
  8 10  1  0
 10 11  1  0
 11 12  1  1
 11 13  1  0
 13 14  1  1
 14 15  1  0
 15 16  2  0
 16 17  1  0
 17 18  2  0
 18 19  1  0
 18 20  1  0
 20 21  1  0
 21 22  1  0
 22 23  2  0
 23 24  1  0
 24 25  2  0
 25 26  1  0
 26 27  2  0
 27 28  1  0
 28 29  1  0
 29 30  1  0
 30 31  1  0
 31 32  1  0
 32 33  1  0
 33 34  2  0
 33 35  1  0
 20 36  2  0
 27 22  1  0
 35 13  1  0
 36 15  1  0
M  END
$$$$
