
     RDKit          3D

 36 38  0  0  0  0  0  0  0  0999 V2000
  -10.5705  -34.5005  -11.8578 C   0  0  0  0  0  0  0  0  0  0  0  0
  -10.2007  -35.9784  -12.0126 C   0  0  0  0  0  0  0  0  0  0  0  0
  -10.5273  -36.6887  -10.7007 C   0  0  0  0  0  0  0  0  0  0  0  0
  -10.8846  -38.1226  -10.9207 C   0  0  0  0  0  0  0  0  0  0  0  0
  -12.3054  -38.3594  -11.0361 N   0  0  0  0  0  0  0  0  0  0  0  0
  -13.1035  -38.5241   -9.8712 C   0  0  0  0  0  0  0  0  0  0  0  0
  -12.5993  -38.1769   -8.7727 O   0  0  0  0  0  0  0  0  0  0  0  0
  -14.4856  -39.0867   -9.9446 C   0  0  2  0  0  0  0  0  0  0  0  0
  -15.4569  -37.9415  -10.0338 C   0  0  0  0  0  0  0  0  0  0  0  0
  -14.8229  -39.8698   -8.6674 C   0  0  0  0  0  0  0  0  0  0  0  0
  -15.8025  -39.0482   -7.8951 C   0  0  2  0  0  0  0  0  0  0  0  0
  -15.4280  -39.0183   -6.5639 O   0  0  0  0  0  0  0  0  0  0  0  0
  -17.2273  -39.4224   -8.0665 C   0  0  2  0  0  0  0  0  0  0  0  0
  -18.0785  -38.1425   -7.9414 C   0  0  0  0  0  0  0  0  0  0  0  0
  -19.5402  -38.3534   -8.0454 C   0  0  0  0  0  0  0  0  0  0  0  0
  -20.0504  -37.9539   -9.3231 C   0  0  0  0  0  0  0  0  0  0  0  0
  -21.3635  -38.0599   -9.6727 C   0  0  0  0  0  0  0  0  0  0  0  0
  -22.2205  -38.5709   -8.7578 C   0  0  0  0  0  0  0  0  0  0  0  0
  -23.6225  -38.6898   -9.1112 O   0  0  0  0  0  0  0  0  0  0  0  0
  -21.7978  -38.9891   -7.4763 C   0  0  0  0  0  0  0  0  0  0  0  0
  -22.9927  -39.4891   -6.7522 C   0  0  0  0  0  0  0  0  0  0  0  0
  -22.8550  -40.5670   -5.7533 C   0  0  0  0  0  0  0  0  0  0  0  0
  -22.5904  -40.1962   -4.4419 C   0  0  0  0  0  0  0  0  0  0  0  0
  -22.4422  -41.0510   -3.3796 C   0  0  0  0  0  0  0  0  0  0  0  0
  -22.5638  -42.3973   -3.6178 C   0  0  0  0  0  0  0  0  0  0  0  0
  -22.8260  -42.7942   -4.9092 C   0  0  0  0  0  0  0  0  0  0  0  0
  -22.9772  -41.9364   -5.9928 C   0  0  0  0  0  0  0  0  0  0  0  0
  -23.2312  -42.5053   -7.1951 O   0  0  0  0  0  0  0  0  0  0  0  0
  -22.7082  -42.4519   -8.4828 C   0  0  0  0  0  0  0  0  0  0  0  0
  -21.3769  -43.1341   -8.6614 C   0  0  0  0  0  0  0  0  0  0  0  0
  -20.3222  -42.8024   -7.6896 C   0  0  0  0  0  0  0  0  0  0  0  0
  -19.0782  -42.1648   -8.3273 C   0  0  0  0  0  0  0  0  0  0  0  0
  -18.1107  -41.6996   -7.3076 C   0  0  0  0  0  0  0  0  0  0  0  0
  -17.6592  -42.6144   -6.5302 O   0  0  0  0  0  0  0  0  0  0  0  0
  -17.6431  -40.4157   -7.0970 N   0  0  0  0  0  0  0  0  0  0  0  0
  -20.4713  -38.8679   -7.1552 C   0  0  0  0  0  0  0  0  0  0  0  0
  1  2  1  0
  2  3  1  0
  3  4  1  0
  4  5  1  0
  5  6  1  0
  6  7  2  0
  6  8  1  0
  8  9  1  1
  8 10  1  0
 10 11  1  0
 11 12  1  1
 11 13  1  0
 13 14  1  1
 14 15  1  0
 15 16  2  0
 16 17  1  0
 17 18  2  0
 18 19  1  0
 18 20  1  0
 20 21  1  0
 21 22  1  0
 22 23  2  0
 23 24  1  0
 24 25  2  0
 25 26  1  0
 26 27  2  0
 27 28  1  0
 28 29  1  0
 29 30  1  0
 30 31  1  0
 31 32  1  0
 32 33  1  0
 33 34  2  0
 33 35  1  0
 20 36  2  0
 27 22  1  0
 35 13  1  0
 36 15  1  0
M  END
$$$$
