
     RDKit          3D

 36 38  0  0  0  0  0  0  0  0999 V2000
  -10.4956  -36.4795  -14.3636 C   0  0  0  0  0  0  0  0  0  0  0  0
  -10.6419  -35.8421  -12.9790 C   0  0  0  0  0  0  0  0  0  0  0  0
  -12.0640  -36.1007  -12.4859 C   0  0  0  0  0  0  0  0  0  0  0  0
  -12.3083  -37.5531  -12.2351 C   0  0  0  0  0  0  0  0  0  0  0  0
  -13.6751  -37.8631  -11.8828 N   0  0  0  0  0  0  0  0  0  0  0  0
  -13.9754  -39.0278  -11.1250 C   0  0  0  0  0  0  0  0  0  0  0  0
  -14.4150  -40.0259  -11.7512 O   0  0  0  0  0  0  0  0  0  0  0  0
  -13.7782  -39.0686   -9.6447 C   0  0  2  0  0  0  0  0  0  0  0  0
  -12.4039  -39.6135   -9.3667 C   0  0  0  0  0  0  0  0  0  0  0  0
  -14.7864  -40.0226   -8.9875 C   0  0  0  0  0  0  0  0  0  0  0  0
  -15.7540  -39.1794   -8.2234 C   0  0  2  0  0  0  0  0  0  0  0  0
  -15.3061  -39.0303   -6.9232 O   0  0  0  0  0  0  0  0  0  0  0  0
  -17.1694  -39.6190   -8.2799 C   0  0  2  0  0  0  0  0  0  0  0  0
  -18.0645  -38.3913   -8.0155 C   0  0  0  0  0  0  0  0  0  0  0  0
  -19.5179  -38.6726   -7.9938 C   0  0  0  0  0  0  0  0  0  0  0  0
  -20.1651  -38.2452   -9.1983 C   0  0  0  0  0  0  0  0  0  0  0  0
  -21.4989  -38.4035   -9.4295 C   0  0  0  0  0  0  0  0  0  0  0  0
  -22.2403  -38.9972   -8.4648 C   0  0  0  0  0  0  0  0  0  0  0  0
  -23.6622  -39.1728   -8.6922 O   0  0  0  0  0  0  0  0  0  0  0  0
  -21.6787  -39.4479   -7.2493 C   0  0  0  0  0  0  0  0  0  0  0  0
  -22.7746  -40.0397   -6.4425 C   0  0  0  0  0  0  0  0  0  0  0  0
  -22.4920  -41.1512   -5.5133 C   0  0  0  0  0  0  0  0  0  0  0  0
  -22.1221  -40.8242   -4.2158 C   0  0  0  0  0  0  0  0  0  0  0  0
  -21.8337  -41.7153   -3.2139 C   0  0  0  0  0  0  0  0  0  0  0  0
  -21.9134  -43.0546   -3.5040 C   0  0  0  0  0  0  0  0  0  0  0  0
  -22.2777  -43.4083   -4.7830 C   0  0  0  0  0  0  0  0  0  0  0  0
  -22.5714  -42.5135   -5.8057 C   0  0  0  0  0  0  0  0  0  0  0  0
  -22.9110  -43.0423   -7.0052 O   0  0  0  0  0  0  0  0  0  0  0  0
  -22.5155  -42.9064   -8.3317 C   0  0  0  0  0  0  0  0  0  0  0  0
  -21.1763  -43.5106   -8.6651 C   0  0  0  0  0  0  0  0  0  0  0  0
  -20.0511  -43.1672   -7.7804 C   0  0  0  0  0  0  0  0  0  0  0  0
  -18.9047  -42.4393   -8.4992 C   0  0  0  0  0  0  0  0  0  0  0  0
  -17.8681  -41.9693   -7.5523 C   0  0  0  0  0  0  0  0  0  0  0  0
  -17.3022  -42.8923   -6.8647 O   0  0  0  0  0  0  0  0  0  0  0  0
  -17.4439  -40.6733   -7.3247 N   0  0  0  0  0  0  0  0  0  0  0  0
  -20.3350  -39.2724   -7.0469 C   0  0  0  0  0  0  0  0  0  0  0  0
  1  2  1  0
  2  3  1  0
  3  4  1  0
  4  5  1  0
  5  6  1  0
  6  7  2  0
  6  8  1  0
  8  9  1  6
  8 10  1  0
 10 11  1  0
 11 12  1  1
 11 13  1  0
 13 14  1  1
 14 15  1  0
 15 16  2  0
 16 17  1  0
 17 18  2  0
 18 19  1  0
 18 20  1  0
 20 21  1  0
 21 22  1  0
 22 23  2  0
 23 24  1  0
 24 25  2  0
 25 26  1  0
 26 27  2  0
 27 28  1  0
 28 29  1  0
 29 30  1  0
 30 31  1  0
 31 32  1  0
 32 33  1  0
 33 34  2  0
 33 35  1  0
 20 36  2  0
 27 22  1  0
 35 13  1  0
 36 15  1  0
M  END
$$$$
