
     RDKit          3D

 36 38  0  0  0  0  0  0  0  0999 V2000
  -14.4779  -34.0903  -11.8365 C   0  0  0  0  0  0  0  0  0  0  0  0
  -13.4875  -34.8717  -10.9685 C   0  0  0  0  0  0  0  0  0  0  0  0
  -12.7827  -35.8945  -11.8571 C   0  0  0  0  0  0  0  0  0  0  0  0
  -13.3313  -37.2703  -11.6615 C   0  0  0  0  0  0  0  0  0  0  0  0
  -13.0227  -37.8443  -10.3718 N   0  0  0  0  0  0  0  0  0  0  0  0
  -13.4833  -39.1466  -10.0359 C   0  0  0  0  0  0  0  0  0  0  0  0
  -14.1027  -39.7862  -10.9240 O   0  0  0  0  0  0  0  0  0  0  0  0
  -13.2435  -39.7351   -8.6838 C   0  0  2  0  0  0  0  0  0  0  0  0
  -12.1766  -40.7880   -8.8102 C   0  0  0  0  0  0  0  0  0  0  0  0
  -14.5086  -40.4310   -8.1610 C   0  0  0  0  0  0  0  0  0  0  0  0
  -15.5009  -39.3594   -7.8478 C   0  0  2  0  0  0  0  0  0  0  0  0
  -15.2240  -38.8272   -6.6015 O   0  0  0  0  0  0  0  0  0  0  0  0
  -16.9259  -39.7466   -7.9861 C   0  0  2  0  0  0  0  0  0  0  0  0
  -17.7841  -38.4708   -7.8666 C   0  0  0  0  0  0  0  0  0  0  0  0
  -19.2459  -38.6938   -7.9395 C   0  0  0  0  0  0  0  0  0  0  0  0
  -19.7827  -38.3197   -9.2139 C   0  0  0  0  0  0  0  0  0  0  0  0
  -21.1013  -38.4409   -9.5370 C   0  0  0  0  0  0  0  0  0  0  0  0
  -21.9373  -38.9424   -8.5977 C   0  0  0  0  0  0  0  0  0  0  0  0
  -23.3447  -39.0772   -8.9225 O   0  0  0  0  0  0  0  0  0  0  0  0
  -21.4877  -39.3357   -7.3175 C   0  0  0  0  0  0  0  0  0  0  0  0
  -22.6651  -39.8318   -6.5627 C   0  0  0  0  0  0  0  0  0  0  0  0
  -22.5008  -40.8917   -5.5485 C   0  0  0  0  0  0  0  0  0  0  0  0
  -22.2145  -40.4967   -4.2487 C   0  0  0  0  0  0  0  0  0  0  0  0
  -22.0401  -41.3323   -3.1752 C   0  0  0  0  0  0  0  0  0  0  0  0
  -22.1562  -42.6833   -3.3884 C   0  0  0  0  0  0  0  0  0  0  0  0
  -22.4395  -43.1039   -4.6678 C   0  0  0  0  0  0  0  0  0  0  0  0
  -22.6172  -42.2657   -5.7626 C   0  0  0  0  0  0  0  0  0  0  0  0
  -22.8894  -42.8568   -6.9501 O   0  0  0  0  0  0  0  0  0  0  0  0
  -22.3910  -42.8215   -8.2482 C   0  0  0  0  0  0  0  0  0  0  0  0
  -21.0582  -43.4971   -8.4403 C   0  0  0  0  0  0  0  0  0  0  0  0
  -19.9880  -43.1416   -7.4943 C   0  0  0  0  0  0  0  0  0  0  0  0
  -18.7609  -42.5061   -8.1658 C   0  0  0  0  0  0  0  0  0  0  0  0
  -17.7780  -42.0167   -7.1725 C   0  0  0  0  0  0  0  0  0  0  0  0
  -17.3054  -42.9151   -6.3884 O   0  0  0  0  0  0  0  0  0  0  0  0
  -17.3161  -40.7262   -6.9924 N   0  0  0  0  0  0  0  0  0  0  0  0
  -20.1563  -39.1997   -7.0234 C   0  0  0  0  0  0  0  0  0  0  0  0
  1  2  1  0
  2  3  1  0
  3  4  1  0
  4  5  1  0
  5  6  1  0
  6  7  2  0
  6  8  1  0
  8  9  1  6
  8 10  1  0
 10 11  1  0
 11 12  1  1
 11 13  1  0
 13 14  1  1
 14 15  1  0
 15 16  2  0
 16 17  1  0
 17 18  2  0
 18 19  1  0
 18 20  1  0
 20 21  1  0
 21 22  1  0
 22 23  2  0
 23 24  1  0
 24 25  2  0
 25 26  1  0
 26 27  2  0
 27 28  1  0
 28 29  1  0
 29 30  1  0
 30 31  1  0
 31 32  1  0
 32 33  1  0
 33 34  2  0
 33 35  1  0
 20 36  2  0
 27 22  1  0
 35 13  1  0
 36 15  1  0
M  END
$$$$
