
     RDKit          3D

 36 38  0  0  0  0  0  0  0  0999 V2000
  -11.0478  -43.1901  -10.8389 C   0  0  0  0  0  0  0  0  0  0  0  0
  -10.1154  -42.3109  -10.0008 C   0  0  0  0  0  0  0  0  0  0  0  0
  -10.7129  -40.9067   -9.9428 C   0  0  0  0  0  0  0  0  0  0  0  0
  -11.7343  -40.6943  -11.0122 C   0  0  0  0  0  0  0  0  0  0  0  0
  -12.2838  -39.3581  -11.0379 N   0  0  0  0  0  0  0  0  0  0  0  0
  -13.0159  -38.8605   -9.9255 C   0  0  0  0  0  0  0  0  0  0  0  0
  -12.3562  -38.4738   -8.9272 O   0  0  0  0  0  0  0  0  0  0  0  0
  -14.5086  -38.7980   -9.9378 C   0  0  2  0  0  0  0  0  0  0  0  0
  -14.9277  -37.4364   -9.4549 C   0  0  0  0  0  0  0  0  0  0  0  0
  -15.1044  -39.8275   -8.9667 C   0  0  0  0  0  0  0  0  0  0  0  0
  -16.1117  -39.1092   -8.1297 C   0  0  2  0  0  0  0  0  0  0  0  0
  -15.6190  -38.9593   -6.8459 O   0  0  0  0  0  0  0  0  0  0  0  0
  -17.4789  -39.6837   -8.1400 C   0  0  2  0  0  0  0  0  0  0  0  0
  -18.4893  -38.5204   -8.0740 C   0  0  0  0  0  0  0  0  0  0  0  0
  -19.9110  -38.9312   -8.0310 C   0  0  0  0  0  0  0  0  0  0  0  0
  -20.5607  -38.7484   -9.2947 C   0  0  0  0  0  0  0  0  0  0  0  0
  -21.8676  -39.0640   -9.5185 C   0  0  0  0  0  0  0  0  0  0  0  0
  -22.5783  -39.5767   -8.4866 C   0  0  0  0  0  0  0  0  0  0  0  0
  -23.9714  -39.9171   -8.7053 O   0  0  0  0  0  0  0  0  0  0  0  0
  -22.0121  -39.7889   -7.2098 C   0  0  0  0  0  0  0  0  0  0  0  0
  -23.0715  -40.3563   -6.3394 C   0  0  0  0  0  0  0  0  0  0  0  0
  -22.7147  -41.2876   -5.2511 C   0  0  0  0  0  0  0  0  0  0  0  0
  -22.4125  -40.7400   -4.0117 C   0  0  0  0  0  0  0  0  0  0  0  0
  -22.0721  -41.4430   -2.8843 C   0  0  0  0  0  0  0  0  0  0  0  0
  -22.0213  -42.8118   -2.9728 C   0  0  0  0  0  0  0  0  0  0  0  0
  -22.3161  -43.3825   -4.1899 C   0  0  0  0  0  0  0  0  0  0  0  0
  -22.6614  -42.6794   -5.3384 C   0  0  0  0  0  0  0  0  0  0  0  0
  -22.9179  -43.4084   -6.4504 O   0  0  0  0  0  0  0  0  0  0  0  0
  -22.4996  -43.4322   -7.7767 C   0  0  0  0  0  0  0  0  0  0  0  0
  -21.1022  -43.9499   -7.9976 C   0  0  0  0  0  0  0  0  0  0  0  0
  -20.0380  -43.3757   -7.1582 C   0  0  0  0  0  0  0  0  0  0  0  0
  -18.9432  -42.6565   -7.9612 C   0  0  0  0  0  0  0  0  0  0  0  0
  -17.9805  -41.9568   -7.0804 C   0  0  0  0  0  0  0  0  0  0  0  0
  -17.3522  -42.7113   -6.2551 O   0  0  0  0  0  0  0  0  0  0  0  0
  -17.6827  -40.6073   -7.0424 N   0  0  0  0  0  0  0  0  0  0  0  0
  -20.6961  -39.4596   -7.0169 C   0  0  0  0  0  0  0  0  0  0  0  0
  1  2  1  0
  2  3  1  0
  3  4  1  0
  4  5  1  0
  5  6  1  0
  6  7  2  0
  6  8  1  0
  8  9  1  1
  8 10  1  0
 10 11  1  0
 11 12  1  1
 11 13  1  0
 13 14  1  1
 14 15  1  0
 15 16  2  0
 16 17  1  0
 17 18  2  0
 18 19  1  0
 18 20  1  0
 20 21  1  0
 21 22  1  0
 22 23  2  0
 23 24  1  0
 24 25  2  0
 25 26  1  0
 26 27  2  0
 27 28  1  0
 28 29  1  0
 29 30  1  0
 30 31  1  0
 31 32  1  0
 32 33  1  0
 33 34  2  0
 33 35  1  0
 20 36  2  0
 27 22  1  0
 35 13  1  0
 36 15  1  0
M  END
$$$$
