
     RDKit          3D

 36 38  0  0  0  0  0  0  0  0999 V2000
  -11.2199  -34.9457  -13.0242 C   0  0  0  0  0  0  0  0  0  0  0  0
  -12.1378  -36.1220  -12.6798 C   0  0  0  0  0  0  0  0  0  0  0  0
  -13.4087  -35.5615  -12.0449 C   0  0  0  0  0  0  0  0  0  0  0  0
  -14.3226  -36.6486  -11.5811 C   0  0  0  0  0  0  0  0  0  0  0  0
  -13.9632  -37.2055  -10.2970 N   0  0  0  0  0  0  0  0  0  0  0  0
  -13.7697  -38.6062  -10.1498 C   0  0  0  0  0  0  0  0  0  0  0  0
  -13.9266  -39.3208  -11.1726 O   0  0  0  0  0  0  0  0  0  0  0  0
  -13.3952  -39.2088   -8.8351 C   0  0  2  0  0  0  0  0  0  0  0  0
  -12.2689  -40.1792   -9.0647 C   0  0  0  0  0  0  0  0  0  0  0  0
  -14.5688  -40.0062   -8.2478 C   0  0  0  0  0  0  0  0  0  0  0  0
  -15.6677  -39.0321   -7.9745 C   0  0  2  0  0  0  0  0  0  0  0  0
  -15.4443  -38.4183   -6.7552 O   0  0  0  0  0  0  0  0  0  0  0  0
  -17.0443  -39.5729   -8.0841 C   0  0  2  0  0  0  0  0  0  0  0  0
  -18.0350  -38.4047   -7.9054 C   0  0  0  0  0  0  0  0  0  0  0  0
  -19.4645  -38.7881   -7.9441 C   0  0  0  0  0  0  0  0  0  0  0  0
  -20.0783  -38.4452   -9.1923 C   0  0  0  0  0  0  0  0  0  0  0  0
  -21.3845  -38.7054   -9.4821 C   0  0  0  0  0  0  0  0  0  0  0  0
  -22.1304  -39.3204   -8.5344 C   0  0  0  0  0  0  0  0  0  0  0  0
  -23.5233  -39.6039   -8.8239 O   0  0  0  0  0  0  0  0  0  0  0  0
  -21.6009  -39.6922   -7.2785 C   0  0  0  0  0  0  0  0  0  0  0  0
  -22.6922  -40.3355   -6.5057 C   0  0  0  0  0  0  0  0  0  0  0  0
  -22.3800  -41.3949   -5.5263 C   0  0  0  0  0  0  0  0  0  0  0  0
  -22.0999  -41.0026   -4.2245 C   0  0  0  0  0  0  0  0  0  0  0  0
  -21.8009  -41.8395   -3.1798 C   0  0  0  0  0  0  0  0  0  0  0  0
  -21.7724  -43.1894   -3.4273 C   0  0  0  0  0  0  0  0  0  0  0  0
  -22.0461  -43.6074   -4.7096 C   0  0  0  0  0  0  0  0  0  0  0  0
  -22.3494  -42.7677   -5.7753 C   0  0  0  0  0  0  0  0  0  0  0  0
  -22.5903  -43.3561   -6.9709 O   0  0  0  0  0  0  0  0  0  0  0  0
  -22.1388  -43.2333   -8.2807 C   0  0  0  0  0  0  0  0  0  0  0  0
  -20.7456  -43.7505   -8.5283 C   0  0  0  0  0  0  0  0  0  0  0  0
  -19.6932  -43.3006   -7.6027 C   0  0  0  0  0  0  0  0  0  0  0  0
  -18.5655  -42.5153   -8.2899 C   0  0  0  0  0  0  0  0  0  0  0  0
  -17.6133  -41.9436   -7.3109 C   0  0  0  0  0  0  0  0  0  0  0  0
  -17.0198  -42.8023   -6.5655 O   0  0  0  0  0  0  0  0  0  0  0  0
  -17.2925  -40.6142   -7.1077 N   0  0  0  0  0  0  0  0  0  0  0  0
  -20.2846  -39.4152   -7.0177 C   0  0  0  0  0  0  0  0  0  0  0  0
  1  2  1  0
  2  3  1  0
  3  4  1  0
  4  5  1  0
  5  6  1  0
  6  7  2  0
  6  8  1  0
  8  9  1  6
  8 10  1  0
 10 11  1  0
 11 12  1  1
 11 13  1  0
 13 14  1  1
 14 15  1  0
 15 16  2  0
 16 17  1  0
 17 18  2  0
 18 19  1  0
 18 20  1  0
 20 21  1  0
 21 22  1  0
 22 23  2  0
 23 24  1  0
 24 25  2  0
 25 26  1  0
 26 27  2  0
 27 28  1  0
 28 29  1  0
 29 30  1  0
 30 31  1  0
 31 32  1  0
 32 33  1  0
 33 34  2  0
 33 35  1  0
 20 36  2  0
 27 22  1  0
 35 13  1  0
 36 15  1  0
M  END
$$$$
