
     RDKit          3D

 36 38  0  0  0  0  0  0  0  0999 V2000
  -11.4981  -34.8244  -12.0070 C   0  0  0  0  0  0  0  0  0  0  0  0
  -12.9500  -34.4699  -11.6732 C   0  0  0  0  0  0  0  0  0  0  0  0
  -13.5216  -35.5850  -10.8003 C   0  0  0  0  0  0  0  0  0  0  0  0
  -12.9988  -36.9260  -11.2011 C   0  0  0  0  0  0  0  0  0  0  0  0
  -12.7579  -37.8155  -10.0880 N   0  0  0  0  0  0  0  0  0  0  0  0
  -13.7627  -38.7292   -9.6677 C   0  0  0  0  0  0  0  0  0  0  0  0
  -14.6131  -39.0849  -10.5231 O   0  0  0  0  0  0  0  0  0  0  0  0
  -13.8101  -39.2480   -8.2675 C   0  0  2  0  0  0  0  0  0  0  0  0
  -13.3776  -40.6886   -8.2834 C   0  0  0  0  0  0  0  0  0  0  0  0
  -15.2449  -39.2107   -7.7216 C   0  0  0  0  0  0  0  0  0  0  0  0
  -16.1577  -39.0768   -8.8963 C   0  0  2  0  0  0  0  0  0  0  0  0
  -16.1831  -37.7571   -9.3101 O   0  0  0  0  0  0  0  0  0  0  0  0
  -17.5210  -39.6315   -8.7138 C   0  0  2  0  0  0  0  0  0  0  0  0
  -18.4993  -38.4528   -8.5353 C   0  0  0  0  0  0  0  0  0  0  0  0
  -19.9075  -38.8422   -8.2958 C   0  0  0  0  0  0  0  0  0  0  0  0
  -20.7177  -38.6711   -9.4649 C   0  0  0  0  0  0  0  0  0  0  0  0
  -22.0465  -38.9715   -9.5068 C   0  0  0  0  0  0  0  0  0  0  0  0
  -22.6194  -39.4565   -8.3801 C   0  0  0  0  0  0  0  0  0  0  0  0
  -24.0332  -39.7803   -8.4049 O   0  0  0  0  0  0  0  0  0  0  0  0
  -21.8905  -39.6555   -7.1864 C   0  0  0  0  0  0  0  0  0  0  0  0
  -22.8311  -40.1929   -6.1722 C   0  0  0  0  0  0  0  0  0  0  0  0
  -22.3437  -41.1109   -5.1242 C   0  0  0  0  0  0  0  0  0  0  0  0
  -21.8722  -40.5472   -3.9464 C   0  0  0  0  0  0  0  0  0  0  0  0
  -21.3929  -41.2360   -2.8615 C   0  0  0  0  0  0  0  0  0  0  0  0
  -21.3710  -42.6068   -2.9307 C   0  0  0  0  0  0  0  0  0  0  0  0
  -21.8324  -43.1933   -4.0869 C   0  0  0  0  0  0  0  0  0  0  0  0
  -22.3194  -42.5046   -5.1921 C   0  0  0  0  0  0  0  0  0  0  0  0
  -22.7307  -43.2482   -6.2463 O   0  0  0  0  0  0  0  0  0  0  0  0
  -22.4935  -43.3003   -7.6158 C   0  0  0  0  0  0  0  0  0  0  0  0
  -21.1444  -43.8418   -8.0113 C   0  0  0  0  0  0  0  0  0  0  0  0
  -19.9709  -43.2692   -7.3318 C   0  0  0  0  0  0  0  0  0  0  0  0
  -18.9843  -42.5795   -8.2866 C   0  0  0  0  0  0  0  0  0  0  0  0
  -17.9043  -41.8791   -7.5550 C   0  0  0  0  0  0  0  0  0  0  0  0
  -17.1807  -42.6288   -6.8069 O   0  0  0  0  0  0  0  0  0  0  0  0
  -17.5877  -40.5337   -7.5820 N   0  0  0  0  0  0  0  0  0  0  0  0
  -20.5566  -39.3422   -7.1766 C   0  0  0  0  0  0  0  0  0  0  0  0
  1  2  1  0
  2  3  1  0
  3  4  1  0
  4  5  1  0
  5  6  1  0
  6  7  2  0
  6  8  1  0
  8  9  1  6
  8 10  1  0
 10 11  1  0
 11 12  1  1
 11 13  1  0
 13 14  1  1
 14 15  1  0
 15 16  2  0
 16 17  1  0
 17 18  2  0
 18 19  1  0
 18 20  1  0
 20 21  1  0
 21 22  1  0
 22 23  2  0
 23 24  1  0
 24 25  2  0
 25 26  1  0
 26 27  2  0
 27 28  1  0
 28 29  1  0
 29 30  1  0
 30 31  1  0
 31 32  1  0
 32 33  1  0
 33 34  2  0
 33 35  1  0
 20 36  2  0
 27 22  1  0
 35 13  1  0
 36 15  1  0
M  END
$$$$
