
     RDKit          3D

 36 38  0  0  0  0  0  0  0  0999 V2000
  -16.1511  -33.9481  -11.2241 C   0  0  0  0  0  0  0  0  0  0  0  0
  -14.9291  -34.8453  -11.0084 C   0  0  0  0  0  0  0  0  0  0  0  0
  -14.9452  -35.9339  -12.0794 C   0  0  0  0  0  0  0  0  0  0  0  0
  -13.7583  -36.8348  -11.9720 C   0  0  0  0  0  0  0  0  0  0  0  0
  -13.5642  -37.3903  -10.6522 N   0  0  0  0  0  0  0  0  0  0  0  0
  -14.0552  -38.6871  -10.3389 C   0  0  0  0  0  0  0  0  0  0  0  0
  -14.9463  -39.1630  -11.0878 O   0  0  0  0  0  0  0  0  0  0  0  0
  -13.5364  -39.4568   -9.1682 C   0  0  2  0  0  0  0  0  0  0  0  0
  -12.6733  -40.5755   -9.6842 C   0  0  0  0  0  0  0  0  0  0  0  0
  -14.6905  -40.0983   -8.3841 C   0  0  0  0  0  0  0  0  0  0  0  0
  -15.7447  -39.0527   -8.2213 C   0  0  2  0  0  0  0  0  0  0  0  0
  -15.5056  -38.3361   -7.0626 O   0  0  0  0  0  0  0  0  0  0  0  0
  -17.1441  -39.5373   -8.3000 C   0  0  2  0  0  0  0  0  0  0  0  0
  -18.0821  -38.3209   -8.1622 C   0  0  0  0  0  0  0  0  0  0  0  0
  -19.5270  -38.6433   -8.1762 C   0  0  0  0  0  0  0  0  0  0  0  0
  -20.1358  -38.3244   -9.4332 C   0  0  0  0  0  0  0  0  0  0  0  0
  -21.4543  -38.5391   -9.7037 C   0  0  0  0  0  0  0  0  0  0  0  0
  -22.2182  -39.0826   -8.7271 C   0  0  0  0  0  0  0  0  0  0  0  0
  -23.6244  -39.3169   -8.9958 O   0  0  0  0  0  0  0  0  0  0  0  0
  -21.6949  -39.4264   -7.4607 C   0  0  0  0  0  0  0  0  0  0  0  0
  -22.8064  -39.9903   -6.6554 C   0  0  0  0  0  0  0  0  0  0  0  0
  -22.5322  -41.0221   -5.6361 C   0  0  0  0  0  0  0  0  0  0  0  0
  -22.2246  -40.5904   -4.3530 C   0  0  0  0  0  0  0  0  0  0  0  0
  -21.9534  -41.3969   -3.2773 C   0  0  0  0  0  0  0  0  0  0  0  0
  -21.9851  -42.7556   -3.4702 C   0  0  0  0  0  0  0  0  0  0  0  0
  -22.2871  -43.2125   -4.7328 C   0  0  0  0  0  0  0  0  0  0  0  0
  -22.5627  -42.4038   -5.8295 C   0  0  0  0  0  0  0  0  0  0  0  0
  -22.8386  -43.0287   -6.9988 O   0  0  0  0  0  0  0  0  0  0  0  0
  -22.3930  -42.9782   -8.3154 C   0  0  0  0  0  0  0  0  0  0  0  0
  -21.0255  -43.5648   -8.5510 C   0  0  0  0  0  0  0  0  0  0  0  0
  -19.9471  -43.1243   -7.6511 C   0  0  0  0  0  0  0  0  0  0  0  0
  -18.7924  -42.4168   -8.3768 C   0  0  0  0  0  0  0  0  0  0  0  0
  -17.8083  -41.8481   -7.4279 C   0  0  0  0  0  0  0  0  0  0  0  0
  -17.2463  -42.7012   -6.6523 O   0  0  0  0  0  0  0  0  0  0  0  0
  -17.4289  -40.5269   -7.2807 N   0  0  0  0  0  0  0  0  0  0  0  0
  -20.3657  -39.1965   -7.2198 C   0  0  0  0  0  0  0  0  0  0  0  0
  1  2  1  0
  2  3  1  0
  3  4  1  0
  4  5  1  0
  5  6  1  0
  6  7  2  0
  6  8  1  0
  8  9  1  6
  8 10  1  0
 10 11  1  0
 11 12  1  1
 11 13  1  0
 13 14  1  1
 14 15  1  0
 15 16  2  0
 16 17  1  0
 17 18  2  0
 18 19  1  0
 18 20  1  0
 20 21  1  0
 21 22  1  0
 22 23  2  0
 23 24  1  0
 24 25  2  0
 25 26  1  0
 26 27  2  0
 27 28  1  0
 28 29  1  0
 29 30  1  0
 30 31  1  0
 31 32  1  0
 32 33  1  0
 33 34  2  0
 33 35  1  0
 20 36  2  0
 27 22  1  0
 35 13  1  0
 36 15  1  0
M  END
$$$$
