
     RDKit          3D

 36 38  0  0  0  0  0  0  0  0999 V2000
  -17.7413  -35.7111  -12.7504 C   0  0  0  0  0  0  0  0  0  0  0  0
  -16.4519  -35.0667  -12.2336 C   0  0  0  0  0  0  0  0  0  0  0  0
  -15.3373  -36.1078  -12.3116 C   0  0  0  0  0  0  0  0  0  0  0  0
  -14.7996  -36.4466  -10.9595 C   0  0  0  0  0  0  0  0  0  0  0  0
  -13.9196  -37.5928  -10.9513 N   0  0  0  0  0  0  0  0  0  0  0  0
  -14.3754  -38.8453  -10.4570 C   0  0  0  0  0  0  0  0  0  0  0  0
  -15.3553  -39.3741  -11.0416 O   0  0  0  0  0  0  0  0  0  0  0  0
  -13.7199  -39.5098   -9.2905 C   0  0  2  0  0  0  0  0  0  0  0  0
  -12.7944  -40.5744   -9.8129 C   0  0  0  0  0  0  0  0  0  0  0  0
  -14.7624  -40.2088   -8.4057 C   0  0  0  0  0  0  0  0  0  0  0  0
  -15.7759  -39.1794   -8.0257 C   0  0  2  0  0  0  0  0  0  0  0  0
  -15.4638  -38.6659   -6.7798 O   0  0  0  0  0  0  0  0  0  0  0  0
  -17.1917  -39.6125   -8.1130 C   0  0  2  0  0  0  0  0  0  0  0  0
  -18.0860  -38.3664   -7.9529 C   0  0  0  0  0  0  0  0  0  0  0  0
  -19.5414  -38.6370   -7.9725 C   0  0  0  0  0  0  0  0  0  0  0  0
  -20.1379  -38.2739   -9.2234 C   0  0  0  0  0  0  0  0  0  0  0  0
  -21.4630  -38.4366   -9.4975 C   0  0  0  0  0  0  0  0  0  0  0  0
  -22.2462  -38.9704   -8.5309 C   0  0  0  0  0  0  0  0  0  0  0  0
  -23.6597  -39.1497   -8.8037 O   0  0  0  0  0  0  0  0  0  0  0  0
  -21.7360  -39.3556   -7.2711 C   0  0  0  0  0  0  0  0  0  0  0  0
  -22.8673  -39.8942   -6.4760 C   0  0  0  0  0  0  0  0  0  0  0  0
  -22.6303  -40.9535   -5.4757 C   0  0  0  0  0  0  0  0  0  0  0  0
  -22.3083  -40.5564   -4.1850 C   0  0  0  0  0  0  0  0  0  0  0  0
  -22.0664  -41.3915   -3.1243 C   0  0  0  0  0  0  0  0  0  0  0  0
  -22.1461  -42.7445   -3.3419 C   0  0  0  0  0  0  0  0  0  0  0  0
  -22.4636  -43.1673   -4.6125 C   0  0  0  0  0  0  0  0  0  0  0  0
  -22.7098  -42.3295   -5.6943 C   0  0  0  0  0  0  0  0  0  0  0  0
  -23.0071  -42.9228   -6.8747 O   0  0  0  0  0  0  0  0  0  0  0  0
  -22.5593  -42.8642   -8.1902 C   0  0  0  0  0  0  0  0  0  0  0  0
  -21.2134  -43.4946   -8.4366 C   0  0  0  0  0  0  0  0  0  0  0  0
  -20.1205  -43.1090   -7.5291 C   0  0  0  0  0  0  0  0  0  0  0  0
  -18.9410  -42.4299   -8.2420 C   0  0  0  0  0  0  0  0  0  0  0  0
  -17.9379  -41.9138   -7.2830 C   0  0  0  0  0  0  0  0  0  0  0  0
  -17.4069  -42.8003   -6.5232 O   0  0  0  0  0  0  0  0  0  0  0  0
  -17.5119  -40.6098   -7.1118 N   0  0  0  0  0  0  0  0  0  0  0  0
  -20.3997  -39.1774   -7.0262 C   0  0  0  0  0  0  0  0  0  0  0  0
  1  2  1  0
  2  3  1  0
  3  4  1  0
  4  5  1  0
  5  6  1  0
  6  7  2  0
  6  8  1  0
  8  9  1  6
  8 10  1  0
 10 11  1  0
 11 12  1  1
 11 13  1  0
 13 14  1  1
 14 15  1  0
 15 16  2  0
 16 17  1  0
 17 18  2  0
 18 19  1  0
 18 20  1  0
 20 21  1  0
 21 22  1  0
 22 23  2  0
 23 24  1  0
 24 25  2  0
 25 26  1  0
 26 27  2  0
 27 28  1  0
 28 29  1  0
 29 30  1  0
 30 31  1  0
 31 32  1  0
 32 33  1  0
 33 34  2  0
 33 35  1  0
 20 36  2  0
 27 22  1  0
 35 13  1  0
 36 15  1  0
M  END
$$$$
