
     RDKit          3D

 36 38  0  0  0  0  0  0  0  0999 V2000
  -12.8654  -36.2377  -14.5534 C   0  0  0  0  0  0  0  0  0  0  0  0
  -12.8970  -35.6336  -13.1467 C   0  0  0  0  0  0  0  0  0  0  0  0
  -12.9943  -36.7788  -12.1410 C   0  0  0  0  0  0  0  0  0  0  0  0
  -12.6465  -36.3332  -10.7581 C   0  0  0  0  0  0  0  0  0  0  0  0
  -13.4168  -36.9846   -9.7235 N   0  0  0  0  0  0  0  0  0  0  0  0
  -13.5221  -38.4019   -9.6904 C   0  0  0  0  0  0  0  0  0  0  0  0
  -13.8079  -38.9844  -10.7676 O   0  0  0  0  0  0  0  0  0  0  0  0
  -13.3028  -39.1720   -8.4290 C   0  0  2  0  0  0  0  0  0  0  0  0
  -12.1466  -40.1099   -8.6439 C   0  0  0  0  0  0  0  0  0  0  0  0
  -14.5302  -40.0330   -8.0968 C   0  0  0  0  0  0  0  0  0  0  0  0
  -15.5961  -39.1073   -7.6088 C   0  0  2  0  0  0  0  0  0  0  0  0
  -15.3586  -38.7917   -6.2832 O   0  0  0  0  0  0  0  0  0  0  0  0
  -16.9900  -39.5609   -7.8342 C   0  0  2  0  0  0  0  0  0  0  0  0
  -17.9029  -38.3180   -7.8515 C   0  0  0  0  0  0  0  0  0  0  0  0
  -19.3448  -38.6060   -8.0238 C   0  0  0  0  0  0  0  0  0  0  0  0
  -19.7935  -38.3219   -9.3544 C   0  0  0  0  0  0  0  0  0  0  0  0
  -21.0769  -38.5152   -9.7703 C   0  0  0  0  0  0  0  0  0  0  0  0
  -21.9646  -39.0019   -8.8715 C   0  0  0  0  0  0  0  0  0  0  0  0
  -23.3359  -39.2127   -9.2953 O   0  0  0  0  0  0  0  0  0  0  0  0
  -21.6026  -39.3086   -7.5408 C   0  0  0  0  0  0  0  0  0  0  0  0
  -22.8161  -39.8139   -6.8522 C   0  0  0  0  0  0  0  0  0  0  0  0
  -22.6920  -40.8115   -5.7714 C   0  0  0  0  0  0  0  0  0  0  0  0
  -22.5242  -40.3376   -4.4773 C   0  0  0  0  0  0  0  0  0  0  0  0
  -22.4034  -41.1079   -3.3490 C   0  0  0  0  0  0  0  0  0  0  0  0
  -22.4508  -42.4719   -3.4954 C   0  0  0  0  0  0  0  0  0  0  0  0
  -22.6163  -42.9703   -4.7675 C   0  0  0  0  0  0  0  0  0  0  0  0
  -22.7390  -42.1986   -5.9174 C   0  0  0  0  0  0  0  0  0  0  0  0
  -22.8941  -42.8617   -7.0878 O   0  0  0  0  0  0  0  0  0  0  0  0
  -22.2966  -42.8732   -8.3438 C   0  0  0  0  0  0  0  0  0  0  0  0
  -20.9282  -43.5011   -8.3956 C   0  0  0  0  0  0  0  0  0  0  0  0
  -19.9501  -43.0518   -7.3915 C   0  0  0  0  0  0  0  0  0  0  0  0
  -18.6990  -42.4010   -8.0012 C   0  0  0  0  0  0  0  0  0  0  0  0
  -17.8167  -41.8195   -6.9640 C   0  0  0  0  0  0  0  0  0  0  0  0
  -17.3734  -42.6549   -6.0976 O   0  0  0  0  0  0  0  0  0  0  0  0
  -17.4198  -40.5030   -6.8207 N   0  0  0  0  0  0  0  0  0  0  0  0
  -20.3047  -39.1013   -7.1536 C   0  0  0  0  0  0  0  0  0  0  0  0
  1  2  1  0
  2  3  1  0
  3  4  1  0
  4  5  1  0
  5  6  1  0
  6  7  2  0
  6  8  1  0
  8  9  1  6
  8 10  1  0
 10 11  1  0
 11 12  1  1
 11 13  1  0
 13 14  1  1
 14 15  1  0
 15 16  2  0
 16 17  1  0
 17 18  2  0
 18 19  1  0
 18 20  1  0
 20 21  1  0
 21 22  1  0
 22 23  2  0
 23 24  1  0
 24 25  2  0
 25 26  1  0
 26 27  2  0
 27 28  1  0
 28 29  1  0
 29 30  1  0
 30 31  1  0
 31 32  1  0
 32 33  1  0
 33 34  2  0
 33 35  1  0
 20 36  2  0
 27 22  1  0
 35 13  1  0
 36 15  1  0
M  END
$$$$
