
     RDKit          3D

 36 38  0  0  0  0  0  0  0  0999 V2000
  -10.0013  -42.2208  -13.6623 C   0  0  0  0  0  0  0  0  0  0  0  0
  -10.5955  -42.7315  -12.3466 C   0  0  0  0  0  0  0  0  0  0  0  0
  -11.1280  -41.5298  -11.5689 C   0  0  0  0  0  0  0  0  0  0  0  0
  -10.8779  -41.6638  -10.1021 C   0  0  0  0  0  0  0  0  0  0  0  0
  -12.0038  -41.2827   -9.2804 N   0  0  0  0  0  0  0  0  0  0  0  0
  -12.7094  -40.0767   -9.5427 C   0  0  0  0  0  0  0  0  0  0  0  0
  -12.0313  -39.0229   -9.6478 O   0  0  0  0  0  0  0  0  0  0  0  0
  -14.1962  -40.0577   -9.6882 C   0  0  2  0  0  0  0  0  0  0  0  0
  -14.6080  -38.6847  -10.1444 C   0  0  0  0  0  0  0  0  0  0  0  0
  -14.8786  -40.3107   -8.3360 C   0  0  0  0  0  0  0  0  0  0  0  0
  -15.8733  -39.2146   -8.1350 C   0  0  2  0  0  0  0  0  0  0  0  0
  -15.6329  -38.5931   -6.9229 O   0  0  0  0  0  0  0  0  0  0  0  0
  -17.2957  -39.6048   -8.2906 C   0  0  2  0  0  0  0  0  0  0  0  0
  -18.1611  -38.3378   -8.1349 C   0  0  0  0  0  0  0  0  0  0  0  0
  -19.6214  -38.5660   -8.2203 C   0  0  0  0  0  0  0  0  0  0  0  0
  -20.1556  -38.1555   -9.4846 C   0  0  0  0  0  0  0  0  0  0  0  0
  -21.4723  -38.2735   -9.8162 C   0  0  0  0  0  0  0  0  0  0  0  0
  -22.3090  -38.8082   -8.8960 C   0  0  0  0  0  0  0  0  0  0  0  0
  -23.7145  -38.9402   -9.2302 O   0  0  0  0  0  0  0  0  0  0  0  0
  -21.8619  -39.2385   -7.6269 C   0  0  0  0  0  0  0  0  0  0  0  0
  -23.0394  -39.7639   -6.8922 C   0  0  0  0  0  0  0  0  0  0  0  0
  -22.8731  -40.8537   -5.9107 C   0  0  0  0  0  0  0  0  0  0  0  0
  -22.5937  -40.4977   -4.5983 C   0  0  0  0  0  0  0  0  0  0  0  0
  -22.4188  -41.3651   -3.5504 C   0  0  0  0  0  0  0  0  0  0  0  0
  -22.5268  -42.7095   -3.8057 C   0  0  0  0  0  0  0  0  0  0  0  0
  -22.8033  -43.0918   -5.0985 C   0  0  0  0  0  0  0  0  0  0  0  0
  -22.9815  -42.2211   -6.1676 C   0  0  0  0  0  0  0  0  0  0  0  0
  -23.2462  -42.7765   -7.3738 O   0  0  0  0  0  0  0  0  0  0  0  0
  -22.7433  -42.6985   -8.6683 C   0  0  0  0  0  0  0  0  0  0  0  0
  -21.4062  -43.3610   -8.8761 C   0  0  0  0  0  0  0  0  0  0  0  0
  -20.3414  -43.0293   -7.9155 C   0  0  0  0  0  0  0  0  0  0  0  0
  -19.1153  -42.3669   -8.5624 C   0  0  0  0  0  0  0  0  0  0  0  0
  -18.1386  -41.9034   -7.5507 C   0  0  0  0  0  0  0  0  0  0  0  0
  -17.6640  -42.8230   -6.7930 O   0  0  0  0  0  0  0  0  0  0  0  0
  -17.6842  -40.6167   -7.3291 N   0  0  0  0  0  0  0  0  0  0  0  0
  -20.5324  -39.1047   -7.3237 C   0  0  0  0  0  0  0  0  0  0  0  0
  1  2  1  0
  2  3  1  0
  3  4  1  0
  4  5  1  0
  5  6  1  0
  6  7  2  0
  6  8  1  0
  8  9  1  1
  8 10  1  0
 10 11  1  0
 11 12  1  1
 11 13  1  0
 13 14  1  1
 14 15  1  0
 15 16  2  0
 16 17  1  0
 17 18  2  0
 18 19  1  0
 18 20  1  0
 20 21  1  0
 21 22  1  0
 22 23  2  0
 23 24  1  0
 24 25  2  0
 25 26  1  0
 26 27  2  0
 27 28  1  0
 28 29  1  0
 29 30  1  0
 30 31  1  0
 31 32  1  0
 32 33  1  0
 33 34  2  0
 33 35  1  0
 20 36  2  0
 27 22  1  0
 35 13  1  0
 36 15  1  0
M  END
$$$$
