
     RDKit          3D

 36 38  0  0  0  0  0  0  0  0999 V2000
   -9.8570  -35.0350  -11.3441 C   0  0  0  0  0  0  0  0  0  0  0  0
  -10.9116  -35.3841  -10.2902 C   0  0  0  0  0  0  0  0  0  0  0  0
  -12.2590  -35.5232  -10.9956 C   0  0  0  0  0  0  0  0  0  0  0  0
  -12.7090  -36.9466  -11.0555 C   0  0  0  0  0  0  0  0  0  0  0  0
  -13.6132  -37.3185   -9.9914 N   0  0  0  0  0  0  0  0  0  0  0  0
  -13.9850  -38.6782   -9.8066 C   0  0  0  0  0  0  0  0  0  0  0  0
  -14.2498  -39.3489  -10.8369 O   0  0  0  0  0  0  0  0  0  0  0  0
  -14.0593  -39.2893   -8.4454 C   0  0  2  0  0  0  0  0  0  0  0  0
  -12.9233  -40.2651   -8.3037 C   0  0  0  0  0  0  0  0  0  0  0  0
  -15.3632  -40.0826   -8.2755 C   0  0  0  0  0  0  0  0  0  0  0  0
  -16.4850  -39.1651   -8.6374 C   0  0  2  0  0  0  0  0  0  0  0  0
  -16.3582  -37.9834   -7.9299 O   0  0  0  0  0  0  0  0  0  0  0  0
  -17.8463  -39.7423   -8.5220 C   0  0  2  0  0  0  0  0  0  0  0  0
  -18.8485  -38.5810   -8.3634 C   0  0  0  0  0  0  0  0  0  0  0  0
  -20.2595  -38.9946   -8.1899 C   0  0  0  0  0  0  0  0  0  0  0  0
  -21.0230  -38.8132   -9.3885 C   0  0  0  0  0  0  0  0  0  0  0  0
  -22.3443  -39.1315   -9.4912 C   0  0  0  0  0  0  0  0  0  0  0  0
  -22.9561  -39.6453   -8.3983 C   0  0  0  0  0  0  0  0  0  0  0  0
  -24.3628  -39.9885   -8.4880 O   0  0  0  0  0  0  0  0  0  0  0  0
  -22.2745  -39.8562   -7.1790 C   0  0  0  0  0  0  0  0  0  0  0  0
  -23.2483  -40.4255   -6.2148 C   0  0  0  0  0  0  0  0  0  0  0  0
  -22.7912  -41.3559   -5.1640 C   0  0  0  0  0  0  0  0  0  0  0  0
  -22.3774  -40.8076   -3.9576 C   0  0  0  0  0  0  0  0  0  0  0  0
  -21.9333  -41.5096   -2.8663 C   0  0  0  0  0  0  0  0  0  0  0  0
  -21.8882  -42.8784   -2.9590 C   0  0  0  0  0  0  0  0  0  0  0  0
  -22.2925  -43.4498   -4.1439 C   0  0  0  0  0  0  0  0  0  0  0  0
  -22.7434  -42.7476   -5.2558 C   0  0  0  0  0  0  0  0  0  0  0  0
  -23.0995  -43.4773   -6.3395 O   0  0  0  0  0  0  0  0  0  0  0  0
  -22.8050  -43.5006   -7.6987 C   0  0  0  0  0  0  0  0  0  0  0  0
  -21.4327  -44.0156   -8.0471 C   0  0  0  0  0  0  0  0  0  0  0  0
  -20.2971  -43.4392   -7.3091 C   0  0  0  0  0  0  0  0  0  0  0  0
  -19.2821  -42.7180   -8.2093 C   0  0  0  0  0  0  0  0  0  0  0  0
  -18.2438  -42.0162   -7.4208 C   0  0  0  0  0  0  0  0  0  0  0  0
  -17.5409  -42.7694   -6.6567 O   0  0  0  0  0  0  0  0  0  0  0  0
  -17.9465  -40.6662   -7.4103 N   0  0  0  0  0  0  0  0  0  0  0  0
  -20.9470  -39.5243   -7.1079 C   0  0  0  0  0  0  0  0  0  0  0  0
  1  2  1  0
  2  3  1  0
  3  4  1  0
  4  5  1  0
  5  6  1  0
  6  7  2  0
  6  8  1  0
  8  9  1  6
  8 10  1  0
 10 11  1  0
 11 12  1  1
 11 13  1  0
 13 14  1  1
 14 15  1  0
 15 16  2  0
 16 17  1  0
 17 18  2  0
 18 19  1  0
 18 20  1  0
 20 21  1  0
 21 22  1  0
 22 23  2  0
 23 24  1  0
 24 25  2  0
 25 26  1  0
 26 27  2  0
 27 28  1  0
 28 29  1  0
 29 30  1  0
 30 31  1  0
 31 32  1  0
 32 33  1  0
 33 34  2  0
 33 35  1  0
 20 36  2  0
 27 22  1  0
 35 13  1  0
 36 15  1  0
M  END
$$$$
