
     RDKit          3D

 36 38  0  0  0  0  0  0  0  0999 V2000
  -11.2249  -34.8391  -10.6915 C   0  0  0  0  0  0  0  0  0  0  0  0
  -11.8084  -35.5239  -11.9307 C   0  0  0  0  0  0  0  0  0  0  0  0
  -13.3278  -35.5603  -11.7809 C   0  0  0  0  0  0  0  0  0  0  0  0
  -13.8440  -36.9602  -11.7054 C   0  0  0  0  0  0  0  0  0  0  0  0
  -13.7115  -37.5619  -10.3982 N   0  0  0  0  0  0  0  0  0  0  0  0
  -14.0058  -38.9396  -10.2080 C   0  0  0  0  0  0  0  0  0  0  0  0
  -14.5131  -39.5602  -11.1770 O   0  0  0  0  0  0  0  0  0  0  0  0
  -13.7255  -39.6262   -8.9110 C   0  0  2  0  0  0  0  0  0  0  0  0
  -12.9100  -40.8577   -9.1958 C   0  0  0  0  0  0  0  0  0  0  0  0
  -15.0305  -40.0893   -8.2472 C   0  0  0  0  0  0  0  0  0  0  0  0
  -16.0476  -39.0221   -8.4879 C   0  0  2  0  0  0  0  0  0  0  0  0
  -15.8000  -37.9535   -7.6452 O   0  0  0  0  0  0  0  0  0  0  0  0
  -17.4627  -39.4624   -8.4311 C   0  0  2  0  0  0  0  0  0  0  0  0
  -18.3527  -38.2069   -8.3301 C   0  0  0  0  0  0  0  0  0  0  0  0
  -19.8038  -38.4788   -8.2191 C   0  0  0  0  0  0  0  0  0  0  0  0
  -20.4902  -38.2402   -9.4537 C   0  0  0  0  0  0  0  0  0  0  0  0
  -21.8302  -38.4296   -9.6153 C   0  0  0  0  0  0  0  0  0  0  0  0
  -22.5388  -38.8666   -8.5477 C   0  0  0  0  0  0  0  0  0  0  0  0
  -23.9667  -39.0724   -8.7001 O   0  0  0  0  0  0  0  0  0  0  0  0
  -21.9376  -39.1263   -7.2960 C   0  0  0  0  0  0  0  0  0  0  0  0
  -23.0055  -39.5850   -6.3734 C   0  0  0  0  0  0  0  0  0  0  0  0
  -22.6902  -40.5412   -5.2939 C   0  0  0  0  0  0  0  0  0  0  0  0
  -22.2803  -40.0195   -4.0745 C   0  0  0  0  0  0  0  0  0  0  0  0
  -21.9575  -40.7466   -2.9573 C   0  0  0  0  0  0  0  0  0  0  0  0
  -22.0424  -42.1144   -3.0355 C   0  0  0  0  0  0  0  0  0  0  0  0
  -22.4461  -42.6598   -4.2329 C   0  0  0  0  0  0  0  0  0  0  0  0
  -22.7747  -41.9321   -5.3709 C   0  0  0  0  0  0  0  0  0  0  0  0
  -23.1507  -42.6382   -6.4635 O   0  0  0  0  0  0  0  0  0  0  0  0
  -22.7979  -42.7084   -7.8071 C   0  0  0  0  0  0  0  0  0  0  0  0
  -21.4682  -43.3593   -8.0863 C   0  0  0  0  0  0  0  0  0  0  0  0
  -20.3165  -42.8863   -7.3011 C   0  0  0  0  0  0  0  0  0  0  0  0
  -19.1957  -42.2796   -8.1592 C   0  0  0  0  0  0  0  0  0  0  0  0
  -18.1309  -41.6717   -7.3293 C   0  0  0  0  0  0  0  0  0  0  0  0
  -17.5407  -42.4793   -6.5264 O   0  0  0  0  0  0  0  0  0  0  0  0
  -17.7036  -40.3570   -7.3171 N   0  0  0  0  0  0  0  0  0  0  0  0
  -20.5886  -38.9244   -7.1658 C   0  0  0  0  0  0  0  0  0  0  0  0
  1  2  1  0
  2  3  1  0
  3  4  1  0
  4  5  1  0
  5  6  1  0
  6  7  2  0
  6  8  1  0
  8  9  1  6
  8 10  1  0
 10 11  1  0
 11 12  1  1
 11 13  1  0
 13 14  1  1
 14 15  1  0
 15 16  2  0
 16 17  1  0
 17 18  2  0
 18 19  1  0
 18 20  1  0
 20 21  1  0
 21 22  1  0
 22 23  2  0
 23 24  1  0
 24 25  2  0
 25 26  1  0
 26 27  2  0
 27 28  1  0
 28 29  1  0
 29 30  1  0
 30 31  1  0
 31 32  1  0
 32 33  1  0
 33 34  2  0
 33 35  1  0
 20 36  2  0
 27 22  1  0
 35 13  1  0
 36 15  1  0
M  END
$$$$
