
     RDKit          3D

 36 38  0  0  0  0  0  0  0  0999 V2000
   -9.3063  -41.4128  -13.5379 C   0  0  0  0  0  0  0  0  0  0  0  0
  -10.0291  -41.3595  -12.1890 C   0  0  0  0  0  0  0  0  0  0  0  0
  -10.7432  -40.0134  -12.0867 C   0  0  0  0  0  0  0  0  0  0  0  0
  -12.2273  -40.1658  -12.1657 C   0  0  0  0  0  0  0  0  0  0  0  0
  -12.9543  -38.9430  -11.9119 N   0  0  0  0  0  0  0  0  0  0  0  0
  -13.2773  -38.5620  -10.5809 C   0  0  0  0  0  0  0  0  0  0  0  0
  -12.3469  -38.5765   -9.7349 O   0  0  0  0  0  0  0  0  0  0  0  0
  -14.6644  -38.1600  -10.1985 C   0  0  2  0  0  0  0  0  0  0  0  0
  -14.5900  -36.8503   -9.4623 C   0  0  0  0  0  0  0  0  0  0  0  0
  -15.2831  -39.1862   -9.2381 C   0  0  0  0  0  0  0  0  0  0  0  0
  -16.2856  -38.4576   -8.4042 C   0  0  2  0  0  0  0  0  0  0  0  0
  -15.7541  -38.2215   -7.1492 O   0  0  0  0  0  0  0  0  0  0  0  0
  -17.6311  -39.0776   -8.3337 C   0  0  2  0  0  0  0  0  0  0  0  0
  -18.6578  -37.9650   -8.0398 C   0  0  0  0  0  0  0  0  0  0  0  0
  -20.0558  -38.4298   -7.8936 C   0  0  0  0  0  0  0  0  0  0  0  0
  -20.8415  -38.1415   -9.0563 C   0  0  0  0  0  0  0  0  0  0  0  0
  -22.1563  -38.4800   -9.1757 C   0  0  0  0  0  0  0  0  0  0  0  0
  -22.7393  -39.1219   -8.1361 C   0  0  0  0  0  0  0  0  0  0  0  0
  -24.1387  -39.4887   -8.2440 O   0  0  0  0  0  0  0  0  0  0  0  0
  -22.0345  -39.4438   -6.9548 C   0  0  0  0  0  0  0  0  0  0  0  0
  -22.9799  -40.1364   -6.0445 C   0  0  0  0  0  0  0  0  0  0  0  0
  -22.4851  -41.1613   -5.1045 C   0  0  0  0  0  0  0  0  0  0  0  0
  -22.0661  -40.7338   -3.8519 C   0  0  0  0  0  0  0  0  0  0  0  0
  -21.5892  -41.5364   -2.8471 C   0  0  0  0  0  0  0  0  0  0  0  0
  -21.5133  -42.8860   -3.0856 C   0  0  0  0  0  0  0  0  0  0  0  0
  -21.9220  -43.3385   -4.3193 C   0  0  0  0  0  0  0  0  0  0  0  0
  -22.4061  -42.5337   -5.3445 C   0  0  0  0  0  0  0  0  0  0  0  0
  -22.7614  -43.1530   -6.4951 O   0  0  0  0  0  0  0  0  0  0  0  0
  -22.4870  -43.0246   -7.8526 C   0  0  0  0  0  0  0  0  0  0  0  0
  -21.1085  -43.4654   -8.2711 C   0  0  0  0  0  0  0  0  0  0  0  0
  -19.9756  -42.9423   -7.4903 C   0  0  0  0  0  0  0  0  0  0  0  0
  -18.9916  -42.1046   -8.3214 C   0  0  0  0  0  0  0  0  0  0  0  0
  -17.9583  -41.4647   -7.4758 C   0  0  0  0  0  0  0  0  0  0  0  0
  -17.2263  -42.2768   -6.8051 O   0  0  0  0  0  0  0  0  0  0  0  0
  -17.6926  -40.1164   -7.3255 N   0  0  0  0  0  0  0  0  0  0  0  0
  -20.7142  -39.0884   -6.8655 C   0  0  0  0  0  0  0  0  0  0  0  0
  1  2  1  0
  2  3  1  0
  3  4  1  0
  4  5  1  0
  5  6  1  0
  6  7  2  0
  6  8  1  0
  8  9  1  1
  8 10  1  0
 10 11  1  0
 11 12  1  1
 11 13  1  0
 13 14  1  1
 14 15  1  0
 15 16  2  0
 16 17  1  0
 17 18  2  0
 18 19  1  0
 18 20  1  0
 20 21  1  0
 21 22  1  0
 22 23  2  0
 23 24  1  0
 24 25  2  0
 25 26  1  0
 26 27  2  0
 27 28  1  0
 28 29  1  0
 29 30  1  0
 30 31  1  0
 31 32  1  0
 32 33  1  0
 33 34  2  0
 33 35  1  0
 20 36  2  0
 27 22  1  0
 35 13  1  0
 36 15  1  0
M  END
$$$$
