
     RDKit          3D

 36 38  0  0  0  0  0  0  0  0999 V2000
  -14.1773  -35.1081  -14.2031 C   0  0  0  0  0  0  0  0  0  0  0  0
  -13.6563  -36.5344  -14.0050 C   0  0  0  0  0  0  0  0  0  0  0  0
  -13.7264  -36.8621  -12.5150 C   0  0  0  0  0  0  0  0  0  0  0  0
  -12.3943  -37.2670  -11.9732 C   0  0  0  0  0  0  0  0  0  0  0  0
  -12.3946  -37.5190  -10.5503 N   0  0  0  0  0  0  0  0  0  0  0  0
  -13.0428  -38.6697  -10.0243 C   0  0  0  0  0  0  0  0  0  0  0  0
  -13.0909  -39.6903  -10.7574 O   0  0  0  0  0  0  0  0  0  0  0  0
  -13.6440  -38.6706   -8.6566 C   0  0  2  0  0  0  0  0  0  0  0  0
  -12.6127  -39.1820   -7.6883 C   0  0  0  0  0  0  0  0  0  0  0  0
  -14.8433  -39.6274   -8.5899 C   0  0  0  0  0  0  0  0  0  0  0  0
  -15.8829  -38.9691   -7.7432 C   0  0  2  0  0  0  0  0  0  0  0  0
  -15.4441  -38.9204   -6.4324 O   0  0  0  0  0  0  0  0  0  0  0  0
  -17.2500  -39.5333   -7.8543 C   0  0  2  0  0  0  0  0  0  0  0  0
  -18.2561  -38.3650   -7.8204 C   0  0  0  0  0  0  0  0  0  0  0  0
  -19.6799  -38.7666   -7.8773 C   0  0  0  0  0  0  0  0  0  0  0  0
  -20.2482  -38.5459   -9.1738 C   0  0  0  0  0  0  0  0  0  0  0  0
  -21.5402  -38.8461   -9.4871 C   0  0  0  0  0  0  0  0  0  0  0  0
  -22.3170  -39.3807   -8.5158 C   0  0  0  0  0  0  0  0  0  0  0  0
  -23.6955  -39.7052   -8.8300 O   0  0  0  0  0  0  0  0  0  0  0  0
  -21.8330  -39.6306   -7.2122 C   0  0  0  0  0  0  0  0  0  0  0  0
  -22.9480  -40.2131   -6.4251 C   0  0  0  0  0  0  0  0  0  0  0  0
  -22.6652  -41.1753   -5.3421 C   0  0  0  0  0  0  0  0  0  0  0  0
  -22.4383  -40.6628   -4.0719 C   0  0  0  0  0  0  0  0  0  0  0  0
  -22.1729  -41.3977   -2.9447 C   0  0  0  0  0  0  0  0  0  0  0  0
  -22.1242  -42.7641   -3.0665 C   0  0  0  0  0  0  0  0  0  0  0  0
  -22.3454  -43.3003   -4.3145 C   0  0  0  0  0  0  0  0  0  0  0  0
  -22.6142  -42.5647   -5.4631 C   0  0  0  0  0  0  0  0  0  0  0  0
  -22.8045  -43.2622   -6.6081 O   0  0  0  0  0  0  0  0  0  0  0  0
  -22.3042  -43.2541   -7.9058 C   0  0  0  0  0  0  0  0  0  0  0  0
  -20.8985  -43.7758   -8.0528 C   0  0  0  0  0  0  0  0  0  0  0  0
  -19.8859  -43.2316   -7.1334 C   0  0  0  0  0  0  0  0  0  0  0  0
  -18.7390  -42.4993   -7.8469 C   0  0  0  0  0  0  0  0  0  0  0  0
  -17.8294  -41.8300   -6.8893 C   0  0  0  0  0  0  0  0  0  0  0  0
  -17.2582  -42.6105   -6.0469 O   0  0  0  0  0  0  0  0  0  0  0  0
  -17.5272  -40.4842   -6.7967 N   0  0  0  0  0  0  0  0  0  0  0  0
  -20.5299  -39.3160   -6.9288 C   0  0  0  0  0  0  0  0  0  0  0  0
  1  2  1  0
  2  3  1  0
  3  4  1  0
  4  5  1  0
  5  6  1  0
  6  7  2  0
  6  8  1  0
  8  9  1  1
  8 10  1  0
 10 11  1  0
 11 12  1  1
 11 13  1  0
 13 14  1  1
 14 15  1  0
 15 16  2  0
 16 17  1  0
 17 18  2  0
 18 19  1  0
 18 20  1  0
 20 21  1  0
 21 22  1  0
 22 23  2  0
 23 24  1  0
 24 25  2  0
 25 26  1  0
 26 27  2  0
 27 28  1  0
 28 29  1  0
 29 30  1  0
 30 31  1  0
 31 32  1  0
 32 33  1  0
 33 34  2  0
 33 35  1  0
 20 36  2  0
 27 22  1  0
 35 13  1  0
 36 15  1  0
M  END
$$$$
