
     RDKit          3D

 36 38  0  0  0  0  0  0  0  0999 V2000
  -13.0477  -33.3724  -10.5330 C   0  0  0  0  0  0  0  0  0  0  0  0
  -12.1712  -34.4996   -9.9798 C   0  0  0  0  0  0  0  0  0  0  0  0
  -12.6908  -35.8222  -10.5393 C   0  0  0  0  0  0  0  0  0  0  0  0
  -11.8593  -36.9792  -10.0897 C   0  0  0  0  0  0  0  0  0  0  0  0
  -12.4715  -37.7672   -9.0445 N   0  0  0  0  0  0  0  0  0  0  0  0
  -13.2190  -38.9326   -9.3674 C   0  0  0  0  0  0  0  0  0  0  0  0
  -13.4654  -39.1415  -10.5827 O   0  0  0  0  0  0  0  0  0  0  0  0
  -13.6945  -39.8735   -8.3088 C   0  0  2  0  0  0  0  0  0  0  0  0
  -12.6776  -40.9723   -8.1629 C   0  0  0  0  0  0  0  0  0  0  0  0
  -15.0189  -40.5323   -8.7212 C   0  0  0  0  0  0  0  0  0  0  0  0
  -16.0532  -39.4551   -8.7535 C   0  0  2  0  0  0  0  0  0  0  0  0
  -15.7508  -38.4996   -7.8002 O   0  0  0  0  0  0  0  0  0  0  0  0
  -17.4597  -39.9154   -8.6570 C   0  0  2  0  0  0  0  0  0  0  0  0
  -18.3571  -38.6780   -8.4528 C   0  0  0  0  0  0  0  0  0  0  0  0
  -19.7989  -38.9733   -8.2919 C   0  0  0  0  0  0  0  0  0  0  0  0
  -20.5423  -38.6812   -9.4812 C   0  0  0  0  0  0  0  0  0  0  0  0
  -21.8862  -38.8790   -9.5930 C   0  0  0  0  0  0  0  0  0  0  0  0
  -22.5418  -39.3783   -8.5189 C   0  0  0  0  0  0  0  0  0  0  0  0
  -23.9729  -39.5940   -8.6184 O   0  0  0  0  0  0  0  0  0  0  0  0
  -21.8826  -39.6934   -7.3098 C   0  0  0  0  0  0  0  0  0  0  0  0
  -22.9034  -40.2116   -6.3656 C   0  0  0  0  0  0  0  0  0  0  0  0
  -22.5303  -41.2171   -5.3514 C   0  0  0  0  0  0  0  0  0  0  0  0
  -22.0717  -40.7526   -4.1262 C   0  0  0  0  0  0  0  0  0  0  0  0
  -21.6918  -41.5312   -3.0629 C   0  0  0  0  0  0  0  0  0  0  0  0
  -21.7660  -42.8943   -3.2071 C   0  0  0  0  0  0  0  0  0  0  0  0
  -22.2172  -43.3834   -4.4117 C   0  0  0  0  0  0  0  0  0  0  0  0
  -22.6039  -42.6032   -5.4956 C   0  0  0  0  0  0  0  0  0  0  0  0
  -23.0210  -43.2579   -6.6052 O   0  0  0  0  0  0  0  0  0  0  0  0
  -22.7280  -43.2556   -7.9648 C   0  0  0  0  0  0  0  0  0  0  0  0
  -21.4054  -43.8748   -8.3352 C   0  0  0  0  0  0  0  0  0  0  0  0
  -20.2247  -43.4277   -7.5785 C   0  0  0  0  0  0  0  0  0  0  0  0
  -19.1497  -42.7644   -8.4532 C   0  0  0  0  0  0  0  0  0  0  0  0
  -18.0552  -42.1858   -7.6410 C   0  0  0  0  0  0  0  0  0  0  0  0
  -17.4214  -43.0255   -6.9073 O   0  0  0  0  0  0  0  0  0  0  0  0
  -17.6413  -40.8682   -7.5806 N   0  0  0  0  0  0  0  0  0  0  0  0
  -20.5312  -39.4814   -7.2291 C   0  0  0  0  0  0  0  0  0  0  0  0
  1  2  1  0
  2  3  1  0
  3  4  1  0
  4  5  1  0
  5  6  1  0
  6  7  2  0
  6  8  1  0
  8  9  1  6
  8 10  1  0
 10 11  1  0
 11 12  1  1
 11 13  1  0
 13 14  1  1
 14 15  1  0
 15 16  2  0
 16 17  1  0
 17 18  2  0
 18 19  1  0
 18 20  1  0
 20 21  1  0
 21 22  1  0
 22 23  2  0
 23 24  1  0
 24 25  2  0
 25 26  1  0
 26 27  2  0
 27 28  1  0
 28 29  1  0
 29 30  1  0
 30 31  1  0
 31 32  1  0
 32 33  1  0
 33 34  2  0
 33 35  1  0
 20 36  2  0
 27 22  1  0
 35 13  1  0
 36 15  1  0
M  END
$$$$
