
     RDKit          3D

 36 38  0  0  0  0  0  0  0  0999 V2000
  -13.3624  -33.8520  -11.9233 C   0  0  0  0  0  0  0  0  0  0  0  0
  -12.6100  -35.0931  -11.4349 C   0  0  0  0  0  0  0  0  0  0  0  0
  -13.2296  -36.3175  -12.1052 C   0  0  0  0  0  0  0  0  0  0  0  0
  -12.5134  -37.5748  -11.7335 C   0  0  0  0  0  0  0  0  0  0  0  0
  -12.7207  -37.9817  -10.3625 N   0  0  0  0  0  0  0  0  0  0  0  0
  -13.6413  -39.0197  -10.0523 C   0  0  0  0  0  0  0  0  0  0  0  0
  -14.3679  -39.4445  -10.9865 O   0  0  0  0  0  0  0  0  0  0  0  0
  -13.7445  -39.5855   -8.6734 C   0  0  2  0  0  0  0  0  0  0  0  0
  -12.6880  -40.6450   -8.5180 C   0  0  0  0  0  0  0  0  0  0  0  0
  -15.1049  -40.2668   -8.4652 C   0  0  0  0  0  0  0  0  0  0  0  0
  -16.1371  -39.1873   -8.4428 C   0  0  2  0  0  0  0  0  0  0  0  0
  -15.8522  -38.3008   -7.4199 O   0  0  0  0  0  0  0  0  0  0  0  0
  -17.5458  -39.6496   -8.4056 C   0  0  2  0  0  0  0  0  0  0  0  0
  -18.4571  -38.4077   -8.3308 C   0  0  0  0  0  0  0  0  0  0  0  0
  -19.9053  -38.7018   -8.2415 C   0  0  0  0  0  0  0  0  0  0  0  0
  -20.5747  -38.4852   -9.4895 C   0  0  0  0  0  0  0  0  0  0  0  0
  -21.9086  -38.6974   -9.6716 C   0  0  0  0  0  0  0  0  0  0  0  0
  -22.6280  -39.1362   -8.6120 C   0  0  0  0  0  0  0  0  0  0  0  0
  -24.0497  -39.3661   -8.7861 O   0  0  0  0  0  0  0  0  0  0  0  0
  -22.0438  -39.3751   -7.3481 C   0  0  0  0  0  0  0  0  0  0  0  0
  -23.1196  -39.8425   -6.4392 C   0  0  0  0  0  0  0  0  0  0  0  0
  -22.8073  -40.7839   -5.3459 C   0  0  0  0  0  0  0  0  0  0  0  0
  -22.4263  -40.2448   -4.1246 C   0  0  0  0  0  0  0  0  0  0  0  0
  -22.1107  -40.9567   -2.9956 C   0  0  0  0  0  0  0  0  0  0  0  0
  -22.1726  -42.3263   -3.0627 C   0  0  0  0  0  0  0  0  0  0  0  0
  -22.5475  -42.8887   -4.2615 C   0  0  0  0  0  0  0  0  0  0  0  0
  -22.8686  -42.1765   -5.4115 C   0  0  0  0  0  0  0  0  0  0  0  0
  -23.2149  -42.8983   -6.5037 O   0  0  0  0  0  0  0  0  0  0  0  0
  -22.8386  -42.9749   -7.8405 C   0  0  0  0  0  0  0  0  0  0  0  0
  -21.4943  -43.6069   -8.0915 C   0  0  0  0  0  0  0  0  0  0  0  0
  -20.3635  -43.1085   -7.2917 C   0  0  0  0  0  0  0  0  0  0  0  0
  -19.2382  -42.4917   -8.1366 C   0  0  0  0  0  0  0  0  0  0  0  0
  -18.1973  -41.8594   -7.2947 C   0  0  0  0  0  0  0  0  0  0  0  0
  -17.6079  -42.6503   -6.4748 O   0  0  0  0  0  0  0  0  0  0  0  0
  -17.7911  -40.5380   -7.2875 N   0  0  0  0  0  0  0  0  0  0  0  0
  -20.7005  -39.1504   -7.1973 C   0  0  0  0  0  0  0  0  0  0  0  0
  1  2  1  0
  2  3  1  0
  3  4  1  0
  4  5  1  0
  5  6  1  0
  6  7  2  0
  6  8  1  0
  8  9  1  6
  8 10  1  0
 10 11  1  0
 11 12  1  1
 11 13  1  0
 13 14  1  1
 14 15  1  0
 15 16  2  0
 16 17  1  0
 17 18  2  0
 18 19  1  0
 18 20  1  0
 20 21  1  0
 21 22  1  0
 22 23  2  0
 23 24  1  0
 24 25  2  0
 25 26  1  0
 26 27  2  0
 27 28  1  0
 28 29  1  0
 29 30  1  0
 30 31  1  0
 31 32  1  0
 32 33  1  0
 33 34  2  0
 33 35  1  0
 20 36  2  0
 27 22  1  0
 35 13  1  0
 36 15  1  0
M  END
$$$$
