
     RDKit          3D

 36 38  0  0  0  0  0  0  0  0999 V2000
  -11.5749  -34.1463  -11.8158 C   0  0  0  0  0  0  0  0  0  0  0  0
  -11.1870  -35.6245  -11.9124 C   0  0  0  0  0  0  0  0  0  0  0  0
  -11.6755  -36.3265  -10.6471 C   0  0  0  0  0  0  0  0  0  0  0  0
  -12.4085  -37.5897  -10.9618 C   0  0  0  0  0  0  0  0  0  0  0  0
  -12.9108  -38.2796   -9.7956 N   0  0  0  0  0  0  0  0  0  0  0  0
  -13.6377  -39.4932   -9.9360 C   0  0  0  0  0  0  0  0  0  0  0  0
  -13.9332  -39.8568  -11.1030 O   0  0  0  0  0  0  0  0  0  0  0  0
  -14.0365  -40.3065   -8.7479 C   0  0  2  0  0  0  0  0  0  0  0  0
  -13.0728  -41.4541   -8.6169 C   0  0  0  0  0  0  0  0  0  0  0  0
  -15.4353  -40.9086   -8.9453 C   0  0  0  0  0  0  0  0  0  0  0  0
  -16.3964  -39.7679   -9.0253 C   0  0  2  0  0  0  0  0  0  0  0  0
  -15.9510  -38.7350   -8.2204 O   0  0  0  0  0  0  0  0  0  0  0  0
  -17.8161  -40.1078   -8.7640 C   0  0  2  0  0  0  0  0  0  0  0  0
  -18.5741  -38.8006   -8.4559 C   0  0  0  0  0  0  0  0  0  0  0  0
  -20.0071  -38.9738   -8.1267 C   0  0  0  0  0  0  0  0  0  0  0  0
  -20.8570  -38.6079   -9.2204 C   0  0  0  0  0  0  0  0  0  0  0  0
  -22.2167  -38.6896   -9.1733 C   0  0  0  0  0  0  0  0  0  0  0  0
  -22.7822  -39.1418   -8.0295 C   0  0  0  0  0  0  0  0  0  0  0  0
  -24.2283  -39.2340   -7.9600 O   0  0  0  0  0  0  0  0  0  0  0  0
  -22.0153  -39.5237   -6.9062 C   0  0  0  0  0  0  0  0  0  0  0  0
  -22.9591  -39.9624   -5.8484 C   0  0  0  0  0  0  0  0  0  0  0  0
  -22.5572  -41.0059   -4.8848 C   0  0  0  0  0  0  0  0  0  0  0  0
  -21.9201  -40.5941   -3.7221 C   0  0  0  0  0  0  0  0  0  0  0  0
  -21.4863  -41.4126   -2.7107 C   0  0  0  0  0  0  0  0  0  0  0  0
  -21.6934  -42.7629   -2.8448 C   0  0  0  0  0  0  0  0  0  0  0  0
  -22.3228  -43.2000   -3.9879 C   0  0  0  0  0  0  0  0  0  0  0  0
  -22.7656  -42.3792   -5.0190 C   0  0  0  0  0  0  0  0  0  0  0  0
  -23.3643  -42.9851   -6.0716 O   0  0  0  0  0  0  0  0  0  0  0  0
  -23.2335  -42.9944   -7.4563 C   0  0  0  0  0  0  0  0  0  0  0  0
  -22.0214  -43.7202   -7.9795 C   0  0  0  0  0  0  0  0  0  0  0  0
  -20.7262  -43.3826   -7.3670 C   0  0  0  0  0  0  0  0  0  0  0  0
  -19.7083  -42.8046   -8.3621 C   0  0  0  0  0  0  0  0  0  0  0  0
  -18.4807  -42.3292   -7.6845 C   0  0  0  0  0  0  0  0  0  0  0  0
  -17.8395  -43.2269   -7.0301 O   0  0  0  0  0  0  0  0  0  0  0  0
  -17.9513  -41.0522   -7.6734 N   0  0  0  0  0  0  0  0  0  0  0  0
  -20.6507  -39.4282   -6.9850 C   0  0  0  0  0  0  0  0  0  0  0  0
  1  2  1  0
  2  3  1  0
  3  4  1  0
  4  5  1  0
  5  6  1  0
  6  7  2  0
  6  8  1  0
  8  9  1  6
  8 10  1  0
 10 11  1  0
 11 12  1  1
 11 13  1  0
 13 14  1  1
 14 15  1  0
 15 16  2  0
 16 17  1  0
 17 18  2  0
 18 19  1  0
 18 20  1  0
 20 21  1  0
 21 22  1  0
 22 23  2  0
 23 24  1  0
 24 25  2  0
 25 26  1  0
 26 27  2  0
 27 28  1  0
 28 29  1  0
 29 30  1  0
 30 31  1  0
 31 32  1  0
 32 33  1  0
 33 34  2  0
 33 35  1  0
 20 36  2  0
 27 22  1  0
 35 13  1  0
 36 15  1  0
M  END
$$$$
