
     RDKit          3D

 36 38  0  0  0  0  0  0  0  0999 V2000
  -11.0356  -34.9552  -12.1568 C   0  0  0  0  0  0  0  0  0  0  0  0
  -12.3212  -35.5155  -11.5419 C   0  0  0  0  0  0  0  0  0  0  0  0
  -12.6074  -36.8676  -12.1917 C   0  0  0  0  0  0  0  0  0  0  0  0
  -13.0389  -37.8854  -11.1867 C   0  0  0  0  0  0  0  0  0  0  0  0
  -14.2986  -38.5195  -11.5015 N   0  0  0  0  0  0  0  0  0  0  0  0
  -14.8053  -39.5604  -10.6764 C   0  0  0  0  0  0  0  0  0  0  0  0
  -16.0080  -39.8904  -10.8373 O   0  0  0  0  0  0  0  0  0  0  0  0
  -13.9470  -40.2374   -9.6580 C   0  0  2  0  0  0  0  0  0  0  0  0
  -13.6590  -41.6340  -10.1371 C   0  0  0  0  0  0  0  0  0  0  0  0
  -14.6868  -40.3606   -8.3180 C   0  0  0  0  0  0  0  0  0  0  0  0
  -15.6634  -39.2324   -8.2509 C   0  0  2  0  0  0  0  0  0  0  0  0
  -15.3616  -38.4277   -7.1671 O   0  0  0  0  0  0  0  0  0  0  0  0
  -17.0942  -39.6222   -8.2763 C   0  0  2  0  0  0  0  0  0  0  0  0
  -17.9435  -38.3377   -8.1934 C   0  0  0  0  0  0  0  0  0  0  0  0
  -19.4071  -38.5591   -8.1628 C   0  0  0  0  0  0  0  0  0  0  0  0
  -20.0198  -38.2711   -9.4254 C   0  0  0  0  0  0  0  0  0  0  0  0
  -21.3554  -38.4086   -9.6595 C   0  0  0  0  0  0  0  0  0  0  0  0
  -22.1333  -38.8410   -8.6394 C   0  0  0  0  0  0  0  0  0  0  0  0
  -23.5577  -38.9919   -8.8690 O   0  0  0  0  0  0  0  0  0  0  0  0
  -21.6073  -39.1474   -7.3645 C   0  0  0  0  0  0  0  0  0  0  0  0
  -22.7371  -39.5856   -6.5080 C   0  0  0  0  0  0  0  0  0  0  0  0
  -22.5120  -40.5741   -5.4351 C   0  0  0  0  0  0  0  0  0  0  0  0
  -22.1479  -40.0921   -4.1851 C   0  0  0  0  0  0  0  0  0  0  0  0
  -21.9092  -40.8528   -3.0691 C   0  0  0  0  0  0  0  0  0  0  0  0
  -22.0379  -42.2147   -3.1815 C   0  0  0  0  0  0  0  0  0  0  0  0
  -22.3978  -42.7209   -4.4096 C   0  0  0  0  0  0  0  0  0  0  0  0
  -22.6412  -41.9591   -5.5468 C   0  0  0  0  0  0  0  0  0  0  0  0
  -22.9845  -42.6291   -6.6724 O   0  0  0  0  0  0  0  0  0  0  0  0
  -22.5652  -42.6850   -7.9974 C   0  0  0  0  0  0  0  0  0  0  0  0
  -21.2464  -43.3779   -8.2223 C   0  0  0  0  0  0  0  0  0  0  0  0
  -20.1211  -42.9627   -7.3691 C   0  0  0  0  0  0  0  0  0  0  0  0
  -18.9367  -42.3798   -8.1553 C   0  0  0  0  0  0  0  0  0  0  0  0
  -17.8957  -41.8276   -7.2588 C   0  0  0  0  0  0  0  0  0  0  0  0
  -17.3767  -42.6720   -6.4447 O   0  0  0  0  0  0  0  0  0  0  0  0
  -17.4238  -40.5297   -7.1960 N   0  0  0  0  0  0  0  0  0  0  0  0
  -20.2607  -38.9971   -7.1611 C   0  0  0  0  0  0  0  0  0  0  0  0
  1  2  1  0
  2  3  1  0
  3  4  1  0
  4  5  1  0
  5  6  1  0
  6  7  2  0
  6  8  1  0
  8  9  1  6
  8 10  1  0
 10 11  1  0
 11 12  1  1
 11 13  1  0
 13 14  1  1
 14 15  1  0
 15 16  2  0
 16 17  1  0
 17 18  2  0
 18 19  1  0
 18 20  1  0
 20 21  1  0
 21 22  1  0
 22 23  2  0
 23 24  1  0
 24 25  2  0
 25 26  1  0
 26 27  2  0
 27 28  1  0
 28 29  1  0
 29 30  1  0
 30 31  1  0
 31 32  1  0
 32 33  1  0
 33 34  2  0
 33 35  1  0
 20 36  2  0
 27 22  1  0
 35 13  1  0
 36 15  1  0
M  END
$$$$
