
     RDKit          3D

 34 34  0  0  0  0  0  0  0  0999 V2000
  -11.4509  -34.3307  -13.6247 C   0  0  0  0  0  0  0  0  0  0  0  0
  -12.3010  -35.5867  -13.5952 C   0  0  0  0  0  0  0  0  0  0  0  0
  -12.6677  -35.9735  -12.1810 C   0  0  0  0  0  0  0  0  0  0  0  0
  -13.4727  -37.2427  -12.1201 C   0  0  0  0  0  0  0  0  0  0  0  0
  -13.3289  -37.9470  -10.8814 N   0  0  0  0  0  0  0  0  0  0  0  0
  -14.2299  -39.0116  -10.5899 C   0  0  0  0  0  0  0  0  0  0  0  0
  -14.9465  -39.4350  -11.5167 O   0  0  0  0  0  0  0  0  0  0  0  0
  -14.2725  -39.5489   -9.2429 C   0  0  2  0  0  0  0  0  0  0  0  0
  -13.2732  -40.7177   -9.1308 C   0  0  0  0  0  0  0  0  0  0  0  0
  -15.5686  -39.9650   -8.6799 C   0  0  0  0  0  0  0  0  0  0  0  0
  -16.5787  -38.9302   -8.3722 C   0  0  2  0  0  0  0  0  0  0  0  0
  -16.2754  -37.9953   -7.4282 O   0  0  0  0  0  0  0  0  0  0  0  0
  -17.9261  -39.6229   -8.0514 C   0  0  2  0  0  0  0  0  0  0  0  0
  -18.2391  -39.4788   -6.6153 C   0  0  0  0  0  0  0  0  0  0  0  0
  -19.5125  -38.7557   -6.2968 C   0  0  2  0  0  0  0  0  0  0  0  0
  -19.9013  -39.1552   -4.8730 C   0  0  0  0  0  0  0  0  0  0  0  0
  -20.6611  -38.9843   -7.1887 C   0  0  0  0  0  0  0  0  0  0  0  0
  -21.9199  -39.5068   -6.4790 C   0  0  0  0  0  0  0  0  0  0  0  0
  -22.8390  -40.0104   -7.5711 C   0  0  0  0  0  0  0  0  0  0  0  0
  -23.6478  -41.2192   -7.1227 C   0  0  0  0  0  0  0  0  0  0  0  0
  -23.4563  -42.3819   -8.0520 C   0  0  0  0  0  0  0  0  0  0  0  0
  -23.7548  -43.7122   -7.4654 C   0  0  2  0  0  0  0  0  0  0  0  0
  -25.2700  -43.9110   -7.3806 C   0  0  0  0  0  0  0  0  0  0  0  0
  -23.1792  -43.9773   -6.1248 C   0  0  0  0  0  0  0  0  0  0  0  0
  -21.6785  -43.8306   -6.0665 C   0  0  0  0  0  0  0  0  0  0  0  0
  -20.9829  -44.3364   -7.2472 C   0  0  0  0  0  0  0  0  0  0  0  0
  -21.2983  -45.4386   -7.7599 O   0  0  0  0  0  0  0  0  0  0  0  0
  -19.9184  -43.6159   -7.8778 N   0  0  0  0  0  0  0  0  0  0  0  0
  -19.5573  -43.9488   -9.2314 C   0  0  0  0  0  0  0  0  0  0  0  0
  -19.2307  -42.5560   -7.1157 C   0  0  1  0  0  0  0  0  0  0  0  0
  -18.8134  -43.2308   -5.8063 C   0  0  0  0  0  0  0  0  0  0  0  0
  -18.0104  -42.1772   -7.8703 C   0  0  0  0  0  0  0  0  0  0  0  0
  -17.1086  -43.0945   -7.8706 O   0  0  0  0  0  0  0  0  0  0  0  0
  -17.7776  -40.9666   -8.5444 N   0  0  0  0  0  0  0  0  0  0  0  0
  1  2  1  0
  2  3  1  0
  3  4  1  0
  4  5  1  0
  5  6  1  0
  6  7  2  0
  6  8  1  0
  8  9  1  6
  8 10  1  0
 10 11  1  0
 11 12  1  1
 11 13  1  0
 13 14  1  1
 14 15  1  0
 15 16  1  1
 15 17  1  0
 17 18  1  0
 18 19  1  0
 19 20  1  0
 20 21  1  0
 21 22  1  0
 22 23  1  1
 22 24  1  0
 24 25  1  0
 25 26  1  0
 26 27  2  0
 26 28  1  0
 28 29  1  0
 28 30  1  0
 30 31  1  1
 30 32  1  0
 32 33  2  0
 32 34  1  0
 34 13  1  0
M  END
$$$$
