
     RDKit          3D

 34 34  0  0  0  0  0  0  0  0999 V2000
  -12.2369  -35.9977  -14.4584 C   0  0  0  0  0  0  0  0  0  0  0  0
  -11.9257  -36.3837  -13.0248 C   0  0  0  0  0  0  0  0  0  0  0  0
  -13.1879  -36.6455  -12.2359 C   0  0  0  0  0  0  0  0  0  0  0  0
  -12.9065  -37.0551  -10.8161 C   0  0  0  0  0  0  0  0  0  0  0  0
  -12.6727  -38.4600  -10.6666 N   0  0  0  0  0  0  0  0  0  0  0  0
  -13.7916  -39.3418  -10.6387 C   0  0  0  0  0  0  0  0  0  0  0  0
  -14.5901  -39.2956  -11.5936 O   0  0  0  0  0  0  0  0  0  0  0  0
  -13.9494  -40.2434   -9.5131 C   0  0  2  0  0  0  0  0  0  0  0  0
  -13.2950  -41.5977   -9.8518 C   0  0  0  0  0  0  0  0  0  0  0  0
  -15.2985  -40.4803   -8.9708 C   0  0  0  0  0  0  0  0  0  0  0  0
  -16.0214  -39.3562   -8.3387 C   0  0  2  0  0  0  0  0  0  0  0  0
  -15.4632  -38.7659   -7.2446 O   0  0  0  0  0  0  0  0  0  0  0  0
  -17.4775  -39.7958   -8.0471 C   0  0  2  0  0  0  0  0  0  0  0  0
  -17.8190  -39.5107   -6.6388 C   0  0  0  0  0  0  0  0  0  0  0  0
  -18.9652  -38.5691   -6.4256 C   0  0  2  0  0  0  0  0  0  0  0  0
  -19.4719  -38.8075   -5.0028 C   0  0  0  0  0  0  0  0  0  0  0  0
  -20.0993  -38.6620   -7.3594 C   0  0  0  0  0  0  0  0  0  0  0  0
  -21.4551  -38.9237   -6.6853 C   0  0  0  0  0  0  0  0  0  0  0  0
  -22.4011  -39.3379   -7.7918 C   0  0  0  0  0  0  0  0  0  0  0  0
  -23.4181  -40.3659   -7.3172 C   0  0  0  0  0  0  0  0  0  0  0  0
  -23.3869  -41.6012   -8.1688 C   0  0  0  0  0  0  0  0  0  0  0  0
  -23.9269  -42.8240   -7.5239 C   0  0  2  0  0  0  0  0  0  0  0  0
  -25.4562  -42.7649   -7.5038 C   0  0  0  0  0  0  0  0  0  0  0  0
  -23.4577  -43.0942   -6.1434 C   0  0  0  0  0  0  0  0  0  0  0  0
  -21.9573  -43.1931   -6.0185 C   0  0  0  0  0  0  0  0  0  0  0  0
  -21.3095  -43.8808   -7.1327 C   0  0  0  0  0  0  0  0  0  0  0  0
  -21.7842  -44.9464   -7.5976 O   0  0  0  0  0  0  0  0  0  0  0  0
  -20.1152  -43.3871   -7.7488 N   0  0  0  0  0  0  0  0  0  0  0  0
  -19.7611  -43.8605   -9.0618 C   0  0  0  0  0  0  0  0  0  0  0  0
  -19.2907  -42.4084   -7.0142 C   0  0  1  0  0  0  0  0  0  0  0  0
  -19.0449  -43.0577   -5.6497 C   0  0  0  0  0  0  0  0  0  0  0  0
  -17.9952  -42.2845   -7.7269 C   0  0  0  0  0  0  0  0  0  0  0  0
  -17.2602  -43.3359   -7.6306 O   0  0  0  0  0  0  0  0  0  0  0  0
  -17.5364  -41.1742   -8.4557 N   0  0  0  0  0  0  0  0  0  0  0  0
  1  2  1  0
  2  3  1  0
  3  4  1  0
  4  5  1  0
  5  6  1  0
  6  7  2  0
  6  8  1  0
  8  9  1  6
  8 10  1  0
 10 11  1  0
 11 12  1  1
 11 13  1  0
 13 14  1  1
 14 15  1  0
 15 16  1  1
 15 17  1  0
 17 18  1  0
 18 19  1  0
 19 20  1  0
 20 21  1  0
 21 22  1  0
 22 23  1  1
 22 24  1  0
 24 25  1  0
 25 26  1  0
 26 27  2  0
 26 28  1  0
 28 29  1  0
 28 30  1  0
 30 31  1  1
 30 32  1  0
 32 33  2  0
 32 34  1  0
 34 13  1  0
M  END
$$$$
