
     RDKit          3D

 34 34  0  0  0  0  0  0  0  0999 V2000
  -12.2644  -33.9070  -11.9386 C   0  0  0  0  0  0  0  0  0  0  0  0
  -13.1073  -35.1384  -11.6660 C   0  0  0  0  0  0  0  0  0  0  0  0
  -12.6175  -36.3300  -12.4560 C   0  0  0  0  0  0  0  0  0  0  0  0
  -13.4508  -37.5601  -12.2212 C   0  0  0  0  0  0  0  0  0  0  0  0
  -13.4135  -38.0206  -10.8657 N   0  0  0  0  0  0  0  0  0  0  0  0
  -13.8338  -39.3523  -10.5825 C   0  0  0  0  0  0  0  0  0  0  0  0
  -14.2064  -40.0584  -11.5387 O   0  0  0  0  0  0  0  0  0  0  0  0
  -13.8095  -39.8212   -9.2098 C   0  0  2  0  0  0  0  0  0  0  0  0
  -12.8465  -41.0202   -9.0999 C   0  0  0  0  0  0  0  0  0  0  0  0
  -15.0811  -40.1599   -8.5476 C   0  0  0  0  0  0  0  0  0  0  0  0
  -16.0276  -39.0723   -8.2204 C   0  0  2  0  0  0  0  0  0  0  0  0
  -15.7225  -38.2442   -7.1820 O   0  0  0  0  0  0  0  0  0  0  0  0
  -17.4445  -39.6736   -8.0501 C   0  0  2  0  0  0  0  0  0  0  0  0
  -17.8734  -39.5656   -6.6410 C   0  0  0  0  0  0  0  0  0  0  0  0
  -19.1149  -38.7619   -6.3990 C   0  0  2  0  0  0  0  0  0  0  0  0
  -19.6569  -39.1893   -5.0346 C   0  0  0  0  0  0  0  0  0  0  0  0
  -20.1927  -38.8658   -7.3962 C   0  0  0  0  0  0  0  0  0  0  0  0
  -21.5441  -39.3203   -6.8232 C   0  0  0  0  0  0  0  0  0  0  0  0
  -22.3958  -39.7073   -8.0131 C   0  0  0  0  0  0  0  0  0  0  0  0
  -23.3262  -40.8688   -7.6942 C   0  0  0  0  0  0  0  0  0  0  0  0
  -23.1365  -42.0033   -8.6581 C   0  0  0  0  0  0  0  0  0  0  0  0
  -23.5810  -43.3302   -8.1637 C   0  0  2  0  0  0  0  0  0  0  0  0
  -25.1081  -43.4170   -8.2190 C   0  0  0  0  0  0  0  0  0  0  0  0
  -23.1478  -43.6933   -6.7927 C   0  0  0  0  0  0  0  0  0  0  0  0
  -21.6518  -43.6633   -6.5987 C   0  0  0  0  0  0  0  0  0  0  0  0
  -20.8916  -44.1711   -7.7380 C   0  0  0  0  0  0  0  0  0  0  0  0
  -21.2384  -45.2241   -8.3281 O   0  0  0  0  0  0  0  0  0  0  0  0
  -19.7261  -43.5079   -8.2396 N   0  0  0  0  0  0  0  0  0  0  0  0
  -19.2705  -43.8110   -9.5716 C   0  0  0  0  0  0  0  0  0  0  0  0
  -19.0348  -42.5356   -7.3714 C   0  0  1  0  0  0  0  0  0  0  0  0
  -18.7856  -43.2936   -6.0648 C   0  0  0  0  0  0  0  0  0  0  0  0
  -17.7280  -42.2194   -7.9993 C   0  0  0  0  0  0  0  0  0  0  0  0
  -16.8980  -43.2016   -7.9660 O   0  0  0  0  0  0  0  0  0  0  0  0
  -17.3496  -41.0031   -8.5923 N   0  0  0  0  0  0  0  0  0  0  0  0
  1  2  1  0
  2  3  1  0
  3  4  1  0
  4  5  1  0
  5  6  1  0
  6  7  2  0
  6  8  1  0
  8  9  1  6
  8 10  1  0
 10 11  1  0
 11 12  1  1
 11 13  1  0
 13 14  1  1
 14 15  1  0
 15 16  1  1
 15 17  1  0
 17 18  1  0
 18 19  1  0
 19 20  1  0
 20 21  1  0
 21 22  1  0
 22 23  1  1
 22 24  1  0
 24 25  1  0
 25 26  1  0
 26 27  2  0
 26 28  1  0
 28 29  1  0
 28 30  1  0
 30 31  1  1
 30 32  1  0
 32 33  2  0
 32 34  1  0
 34 13  1  0
M  END
$$$$
