
     RDKit          3D

 34 34  0  0  0  0  0  0  0  0999 V2000
  -12.8068  -35.1887  -14.1503 C   0  0  0  0  0  0  0  0  0  0  0  0
  -12.4329  -36.6531  -14.0214 C   0  0  0  0  0  0  0  0  0  0  0  0
  -12.4876  -37.1135  -12.5830 C   0  0  0  0  0  0  0  0  0  0  0  0
  -12.2053  -38.5838  -12.4365 C   0  0  0  0  0  0  0  0  0  0  0  0
  -12.3378  -39.0557  -11.0909 N   0  0  0  0  0  0  0  0  0  0  0  0
  -13.6147  -39.5035  -10.6444 C   0  0  0  0  0  0  0  0  0  0  0  0
  -14.5033  -39.6689  -11.5014 O   0  0  0  0  0  0  0  0  0  0  0  0
  -13.8208  -39.7439   -9.2286 C   0  0  2  0  0  0  0  0  0  0  0  0
  -12.9535  -40.9391   -8.7852 C   0  0  0  0  0  0  0  0  0  0  0  0
  -15.1935  -39.9301   -8.7276 C   0  0  0  0  0  0  0  0  0  0  0  0
  -16.1492  -38.8067   -8.8289 C   0  0  2  0  0  0  0  0  0  0  0  0
  -15.8258  -37.6300   -8.2224 O   0  0  0  0  0  0  0  0  0  0  0  0
  -17.5481  -39.2948   -8.3783 C   0  0  2  0  0  0  0  0  0  0  0  0
  -17.7237  -39.0588   -6.9311 C   0  0  0  0  0  0  0  0  0  0  0  0
  -18.8583  -38.1558   -6.5526 C   0  0  2  0  0  0  0  0  0  0  0  0
  -19.1833  -38.4479   -5.0873 C   0  0  0  0  0  0  0  0  0  0  0  0
  -20.0944  -38.2543   -7.3458 C   0  0  0  0  0  0  0  0  0  0  0  0
  -21.3519  -38.5726   -6.5221 C   0  0  0  0  0  0  0  0  0  0  0  0
  -22.4145  -38.9820   -7.5193 C   0  0  0  0  0  0  0  0  0  0  0  0
  -23.3412  -40.0509   -6.9581 C   0  0  0  0  0  0  0  0  0  0  0  0
  -23.3831  -41.2606   -7.8452 C   0  0  0  0  0  0  0  0  0  0  0  0
  -23.8111  -42.5155   -7.1784 C   0  0  2  0  0  0  0  0  0  0  0  0
  -25.3278  -42.4998   -6.9729 C   0  0  0  0  0  0  0  0  0  0  0  0
  -23.1720  -42.8109   -5.8733 C   0  0  0  0  0  0  0  0  0  0  0  0
  -21.6655  -42.8712   -5.9327 C   0  0  0  0  0  0  0  0  0  0  0  0
  -21.1406  -43.5092   -7.1375 C   0  0  0  0  0  0  0  0  0  0  0  0
  -21.6419  -44.5743   -7.5749 O   0  0  0  0  0  0  0  0  0  0  0  0
  -20.0420  -42.9653   -7.8770 N   0  0  0  0  0  0  0  0  0  0  0  0
  -19.8378  -43.3919   -9.2371 C   0  0  0  0  0  0  0  0  0  0  0  0
  -19.1589  -41.9848   -7.2167 C   0  0  1  0  0  0  0  0  0  0  0  0
  -18.7341  -42.6648   -5.9124 C   0  0  0  0  0  0  0  0  0  0  0  0
  -17.9624  -41.8049   -8.0757 C   0  0  0  0  0  0  0  0  0  0  0  0
  -17.1958  -42.8376   -8.1011 O   0  0  0  0  0  0  0  0  0  0  0  0
  -17.6223  -40.6624   -8.8195 N   0  0  0  0  0  0  0  0  0  0  0  0
  1  2  1  0
  2  3  1  0
  3  4  1  0
  4  5  1  0
  5  6  1  0
  6  7  2  0
  6  8  1  0
  8  9  1  6
  8 10  1  0
 10 11  1  0
 11 12  1  1
 11 13  1  0
 13 14  1  1
 14 15  1  0
 15 16  1  1
 15 17  1  0
 17 18  1  0
 18 19  1  0
 19 20  1  0
 20 21  1  0
 21 22  1  0
 22 23  1  1
 22 24  1  0
 24 25  1  0
 25 26  1  0
 26 27  2  0
 26 28  1  0
 28 29  1  0
 28 30  1  0
 30 31  1  1
 30 32  1  0
 32 33  2  0
 32 34  1  0
 34 13  1  0
M  END
$$$$
