
     RDKit          3D

 34 34  0  0  0  0  0  0  0  0999 V2000
  -13.5926  -33.9442  -12.0521 C   0  0  0  0  0  0  0  0  0  0  0  0
  -13.1363  -35.0319  -11.0983 C   0  0  0  0  0  0  0  0  0  0  0  0
  -12.4571  -36.1638  -11.8341 C   0  0  0  0  0  0  0  0  0  0  0  0
  -12.0251  -37.2730  -10.9144 C   0  0  0  0  0  0  0  0  0  0  0  0
  -12.4898  -38.5639  -11.3249 N   0  0  0  0  0  0  0  0  0  0  0  0
  -13.8846  -38.8457  -11.2500 C   0  0  0  0  0  0  0  0  0  0  0  0
  -14.6356  -38.2767  -12.0647 O   0  0  0  0  0  0  0  0  0  0  0  0
  -14.3624  -39.7716  -10.2405 C   0  0  2  0  0  0  0  0  0  0  0  0
  -13.9816  -41.2088  -10.6487 C   0  0  0  0  0  0  0  0  0  0  0  0
  -15.7841  -39.7386   -9.8560 C   0  0  0  0  0  0  0  0  0  0  0  0
  -16.1641  -39.0951   -8.5804 C   0  0  2  0  0  0  0  0  0  0  0  0
  -15.2865  -39.1606   -7.5399 O   0  0  0  0  0  0  0  0  0  0  0  0
  -17.5630  -39.6065   -8.1567 C   0  0  2  0  0  0  0  0  0  0  0  0
  -17.8349  -39.2315   -6.7543 C   0  0  0  0  0  0  0  0  0  0  0  0
  -19.0306  -38.3550   -6.5358 C   0  0  2  0  0  0  0  0  0  0  0  0
  -19.4279  -38.5104   -5.0675 C   0  0  0  0  0  0  0  0  0  0  0  0
  -20.2116  -38.5997   -7.3797 C   0  0  0  0  0  0  0  0  0  0  0  0
  -21.4996  -38.8964   -6.5959 C   0  0  0  0  0  0  0  0  0  0  0  0
  -22.4810  -39.4620   -7.5999 C   0  0  0  0  0  0  0  0  0  0  0  0
  -23.3887  -40.5142   -6.9791 C   0  0  0  0  0  0  0  0  0  0  0  0
  -23.3218  -41.8097   -7.7336 C   0  0  0  0  0  0  0  0  0  0  0  0
  -23.7298  -43.0096   -6.9612 C   0  0  2  0  0  0  0  0  0  0  0  0
  -25.2551  -43.0522   -6.8408 C   0  0  0  0  0  0  0  0  0  0  0  0
  -23.1561  -43.1343   -5.5995 C   0  0  0  0  0  0  0  0  0  0  0  0
  -21.6475  -43.1215   -5.5708 C   0  0  0  0  0  0  0  0  0  0  0  0
  -21.0232  -43.8523   -6.6707 C   0  0  0  0  0  0  0  0  0  0  0  0
  -21.4476  -44.9818   -7.0188 O   0  0  0  0  0  0  0  0  0  0  0  0
  -19.9091  -43.3311   -7.4034 N   0  0  0  0  0  0  0  0  0  0  0  0
  -19.6052  -43.8849   -8.6975 C   0  0  0  0  0  0  0  0  0  0  0  0
  -19.1131  -42.2426   -6.8044 C   0  0  1  0  0  0  0  0  0  0  0  0
  -18.7352  -42.7607   -5.4142 C   0  0  0  0  0  0  0  0  0  0  0  0
  -17.8776  -42.0901   -7.6118 C   0  0  0  0  0  0  0  0  0  0  0  0
  -17.0636  -43.0783   -7.4858 O   0  0  0  0  0  0  0  0  0  0  0  0
  -17.5474  -41.0144   -8.4533 N   0  0  0  0  0  0  0  0  0  0  0  0
  1  2  1  0
  2  3  1  0
  3  4  1  0
  4  5  1  0
  5  6  1  0
  6  7  2  0
  6  8  1  0
  8  9  1  6
  8 10  1  0
 10 11  1  0
 11 12  1  1
 11 13  1  0
 13 14  1  1
 14 15  1  0
 15 16  1  1
 15 17  1  0
 17 18  1  0
 18 19  1  0
 19 20  1  0
 20 21  1  0
 21 22  1  0
 22 23  1  1
 22 24  1  0
 24 25  1  0
 25 26  1  0
 26 27  2  0
 26 28  1  0
 28 29  1  0
 28 30  1  0
 30 31  1  1
 30 32  1  0
 32 33  2  0
 32 34  1  0
 34 13  1  0
M  END
$$$$
