
     RDKit          3D

 34 34  0  0  0  0  0  0  0  0999 V2000
  -11.3984  -35.8130  -13.8852 C   0  0  0  0  0  0  0  0  0  0  0  0
  -12.0878  -36.0149  -12.5491 C   0  0  0  0  0  0  0  0  0  0  0  0
  -13.5895  -35.9047  -12.6792 C   0  0  0  0  0  0  0  0  0  0  0  0
  -14.3065  -36.2548  -11.4040 C   0  0  0  0  0  0  0  0  0  0  0  0
  -13.8107  -37.4463  -10.7830 N   0  0  0  0  0  0  0  0  0  0  0  0
  -14.5368  -38.6604  -10.9525 C   0  0  0  0  0  0  0  0  0  0  0  0
  -15.3368  -38.7295  -11.9049 O   0  0  0  0  0  0  0  0  0  0  0  0
  -14.3152  -39.7493  -10.0198 C   0  0  2  0  0  0  0  0  0  0  0  0
  -13.7819  -40.9752  -10.7879 C   0  0  0  0  0  0  0  0  0  0  0  0
  -15.4182  -40.1722   -9.1396 C   0  0  0  0  0  0  0  0  0  0  0  0
  -15.9982  -39.1898   -8.1993 C   0  0  2  0  0  0  0  0  0  0  0  0
  -15.2955  -38.8851   -7.0722 O   0  0  0  0  0  0  0  0  0  0  0  0
  -17.4437  -39.6217   -7.8498 C   0  0  2  0  0  0  0  0  0  0  0  0
  -17.8036  -39.1379   -6.5016 C   0  0  0  0  0  0  0  0  0  0  0  0
  -18.9769  -38.2079   -6.4364 C   0  0  2  0  0  0  0  0  0  0  0  0
  -19.4876  -38.2439   -4.9956 C   0  0  0  0  0  0  0  0  0  0  0  0
  -20.1009  -38.4723   -7.3494 C   0  0  0  0  0  0  0  0  0  0  0  0
  -21.4541  -38.6681   -6.6480 C   0  0  0  0  0  0  0  0  0  0  0  0
  -22.3799  -39.2706   -7.6827 C   0  0  0  0  0  0  0  0  0  0  0  0
  -23.3717  -40.2441   -7.0621 C   0  0  0  0  0  0  0  0  0  0  0  0
  -23.3000  -41.5920   -7.7180 C   0  0  0  0  0  0  0  0  0  0  0  0
  -23.8110  -42.7187   -6.8981 C   0  0  2  0  0  0  0  0  0  0  0  0
  -25.3414  -42.7007   -6.8923 C   0  0  0  0  0  0  0  0  0  0  0  0
  -23.3450  -42.7648   -5.4911 C   0  0  0  0  0  0  0  0  0  0  0  0
  -21.8434  -42.8011   -5.3478 C   0  0  0  0  0  0  0  0  0  0  0  0
  -21.1685  -43.6299   -6.3436 C   0  0  0  0  0  0  0  0  0  0  0  0
  -21.6100  -44.7664   -6.6444 O   0  0  0  0  0  0  0  0  0  0  0  0
  -19.9836  -43.2007   -7.0231 N   0  0  0  0  0  0  0  0  0  0  0  0
  -19.6067  -43.8560   -8.2487 C   0  0  0  0  0  0  0  0  0  0  0  0
  -19.1920  -42.0997   -6.4414 C   0  0  1  0  0  0  0  0  0  0  0  0
  -18.9387  -42.5292   -4.9939 C   0  0  0  0  0  0  0  0  0  0  0  0
  -17.8950  -42.0476   -7.1604 C   0  0  0  0  0  0  0  0  0  0  0  0
  -17.1321  -43.0513   -6.9044 O   0  0  0  0  0  0  0  0  0  0  0  0
  -17.4615  -41.0470   -8.0464 N   0  0  0  0  0  0  0  0  0  0  0  0
  1  2  1  0
  2  3  1  0
  3  4  1  0
  4  5  1  0
  5  6  1  0
  6  7  2  0
  6  8  1  0
  8  9  1  6
  8 10  1  0
 10 11  1  0
 11 12  1  1
 11 13  1  0
 13 14  1  1
 14 15  1  0
 15 16  1  1
 15 17  1  0
 17 18  1  0
 18 19  1  0
 19 20  1  0
 20 21  1  0
 21 22  1  0
 22 23  1  1
 22 24  1  0
 24 25  1  0
 25 26  1  0
 26 27  2  0
 26 28  1  0
 28 29  1  0
 28 30  1  0
 30 31  1  1
 30 32  1  0
 32 33  2  0
 32 34  1  0
 34 13  1  0
M  END
$$$$
