
     RDKit          3D

 34 34  0  0  0  0  0  0  0  0999 V2000
  -12.3296  -36.5774  -15.0777 C   0  0  0  0  0  0  0  0  0  0  0  0
  -13.4056  -36.0987  -14.1215 C   0  0  0  0  0  0  0  0  0  0  0  0
  -13.1814  -36.6311  -12.7250 C   0  0  0  0  0  0  0  0  0  0  0  0
  -13.0886  -38.1320  -12.6875 C   0  0  0  0  0  0  0  0  0  0  0  0
  -13.0024  -38.6623  -11.3600 N   0  0  0  0  0  0  0  0  0  0  0  0
  -14.0865  -39.4410  -10.8615 C   0  0  0  0  0  0  0  0  0  0  0  0
  -15.0255  -39.6932  -11.6401 O   0  0  0  0  0  0  0  0  0  0  0  0
  -14.0492  -39.9001   -9.4857 C   0  0  2  0  0  0  0  0  0  0  0  0
  -13.2234  -41.1998   -9.4065 C   0  0  0  0  0  0  0  0  0  0  0  0
  -15.3174  -40.0879   -8.7602 C   0  0  0  0  0  0  0  0  0  0  0  0
  -16.2847  -38.9708   -8.7122 C   0  0  2  0  0  0  0  0  0  0  0  0
  -15.9558  -37.8653   -7.9864 O   0  0  0  0  0  0  0  0  0  0  0  0
  -17.6675  -39.5216   -8.2846 C   0  0  2  0  0  0  0  0  0  0  0  0
  -17.8492  -39.3559   -6.8284 C   0  0  0  0  0  0  0  0  0  0  0  0
  -19.0109  -38.5063   -6.4107 C   0  0  2  0  0  0  0  0  0  0  0  0
  -19.3256  -38.8733   -4.9600 C   0  0  0  0  0  0  0  0  0  0  0  0
  -20.2440  -38.6075   -7.2083 C   0  0  0  0  0  0  0  0  0  0  0  0
  -21.4904  -39.0009   -6.4003 C   0  0  0  0  0  0  0  0  0  0  0  0
  -22.5406  -39.3982   -7.4154 C   0  0  0  0  0  0  0  0  0  0  0  0
  -23.4333  -40.5192   -6.9030 C   0  0  0  0  0  0  0  0  0  0  0  0
  -23.4384  -41.6888   -7.8432 C   0  0  0  0  0  0  0  0  0  0  0  0
  -23.8270  -42.9849   -7.2333 C   0  0  2  0  0  0  0  0  0  0  0  0
  -25.3432  -43.0253   -7.0282 C   0  0  0  0  0  0  0  0  0  0  0  0
  -23.1780  -43.3182   -5.9423 C   0  0  0  0  0  0  0  0  0  0  0  0
  -21.6704  -43.3292   -6.0035 C   0  0  0  0  0  0  0  0  0  0  0  0
  -21.1270  -43.8963   -7.2351 C   0  0  0  0  0  0  0  0  0  0  0  0
  -21.5954  -44.9558   -7.7199 O   0  0  0  0  0  0  0  0  0  0  0  0
  -20.0463  -43.2862   -7.9490 N   0  0  0  0  0  0  0  0  0  0  0  0
  -19.8301  -43.6452   -9.3267 C   0  0  0  0  0  0  0  0  0  0  0  0
  -19.1934  -42.3093   -7.2451 C   0  0  1  0  0  0  0  0  0  0  0  0
  -18.7467  -43.0333   -5.9722 C   0  0  0  0  0  0  0  0  0  0  0  0
  -18.0038  -42.0543   -8.0946 C   0  0  0  0  0  0  0  0  0  0  0  0
  -17.2056  -43.0607   -8.1655 O   0  0  0  0  0  0  0  0  0  0  0  0
  -17.6997  -40.8698   -8.7864 N   0  0  0  0  0  0  0  0  0  0  0  0
  1  2  1  0
  2  3  1  0
  3  4  1  0
  4  5  1  0
  5  6  1  0
  6  7  2  0
  6  8  1  0
  8  9  1  6
  8 10  1  0
 10 11  1  0
 11 12  1  1
 11 13  1  0
 13 14  1  1
 14 15  1  0
 15 16  1  1
 15 17  1  0
 17 18  1  0
 18 19  1  0
 19 20  1  0
 20 21  1  0
 21 22  1  0
 22 23  1  1
 22 24  1  0
 24 25  1  0
 25 26  1  0
 26 27  2  0
 26 28  1  0
 28 29  1  0
 28 30  1  0
 30 31  1  1
 30 32  1  0
 32 33  2  0
 32 34  1  0
 34 13  1  0
M  END
$$$$
