
     RDKit          3D

 34 34  0  0  0  0  0  0  0  0999 V2000
  -10.9191  -34.3787  -13.0954 C   0  0  0  0  0  0  0  0  0  0  0  0
  -11.7560  -35.6425  -13.1544 C   0  0  0  0  0  0  0  0  0  0  0  0
  -12.5850  -35.8159  -11.9026 C   0  0  0  0  0  0  0  0  0  0  0  0
  -13.4050  -37.0768  -11.9236 C   0  0  0  0  0  0  0  0  0  0  0  0
  -13.3464  -37.8123  -10.6962 N   0  0  0  0  0  0  0  0  0  0  0  0
  -14.0265  -39.0616  -10.6129 C   0  0  0  0  0  0  0  0  0  0  0  0
  -14.5495  -39.5075  -11.6518 O   0  0  0  0  0  0  0  0  0  0  0  0
  -14.0793  -39.7506   -9.3373 C   0  0  2  0  0  0  0  0  0  0  0  0
  -13.3387  -41.0977   -9.4569 C   0  0  0  0  0  0  0  0  0  0  0  0
  -15.3880  -39.9733   -8.6986 C   0  0  0  0  0  0  0  0  0  0  0  0
  -16.3199  -38.8335   -8.5641 C   0  0  2  0  0  0  0  0  0  0  0  0
  -15.9473  -37.7872   -7.7745 O   0  0  0  0  0  0  0  0  0  0  0  0
  -17.7128  -39.3694   -8.1506 C   0  0  2  0  0  0  0  0  0  0  0  0
  -17.9714  -39.0614   -6.7296 C   0  0  0  0  0  0  0  0  0  0  0  0
  -19.1677  -38.2005   -6.4583 C   0  0  2  0  0  0  0  0  0  0  0  0
  -19.5494  -38.4258   -4.9949 C   0  0  0  0  0  0  0  0  0  0  0  0
  -20.3565  -38.4099   -7.3007 C   0  0  0  0  0  0  0  0  0  0  0  0
  -21.6354  -38.7477   -6.5187 C   0  0  0  0  0  0  0  0  0  0  0  0
  -22.6252  -39.2694   -7.5381 C   0  0  0  0  0  0  0  0  0  0  0  0
  -23.5231  -40.3529   -6.9580 C   0  0  0  0  0  0  0  0  0  0  0  0
  -23.4596  -41.6115   -7.7729 C   0  0  0  0  0  0  0  0  0  0  0  0
  -23.8559  -42.8476   -7.0534 C   0  0  2  0  0  0  0  0  0  0  0  0
  -25.3796  -42.9015   -6.9197 C   0  0  0  0  0  0  0  0  0  0  0  0
  -23.2678  -43.0337   -5.7049 C   0  0  0  0  0  0  0  0  0  0  0  0
  -21.7590  -43.0166   -5.6908 C   0  0  0  0  0  0  0  0  0  0  0  0
  -21.1436  -43.6929   -6.8299 C   0  0  0  0  0  0  0  0  0  0  0  0
  -21.5680  -44.8065   -7.2262 O   0  0  0  0  0  0  0  0  0  0  0  0
  -20.0388  -43.1338   -7.5487 N   0  0  0  0  0  0  0  0  0  0  0  0
  -19.7464  -43.6254   -8.8702 C   0  0  0  0  0  0  0  0  0  0  0  0
  -19.2403  -42.0716   -6.9075 C   0  0  1  0  0  0  0  0  0  0  0  0
  -18.8464  -42.6527   -5.5469 C   0  0  0  0  0  0  0  0  0  0  0  0
  -18.0136  -41.8769   -7.7193 C   0  0  0  0  0  0  0  0  0  0  0  0
  -17.1952  -42.8668   -7.6479 O   0  0  0  0  0  0  0  0  0  0  0  0
  -17.6956  -40.7619   -8.5129 N   0  0  0  0  0  0  0  0  0  0  0  0
  1  2  1  0
  2  3  1  0
  3  4  1  0
  4  5  1  0
  5  6  1  0
  6  7  2  0
  6  8  1  0
  8  9  1  6
  8 10  1  0
 10 11  1  0
 11 12  1  1
 11 13  1  0
 13 14  1  1
 14 15  1  0
 15 16  1  1
 15 17  1  0
 17 18  1  0
 18 19  1  0
 19 20  1  0
 20 21  1  0
 21 22  1  0
 22 23  1  1
 22 24  1  0
 24 25  1  0
 25 26  1  0
 26 27  2  0
 26 28  1  0
 28 29  1  0
 28 30  1  0
 30 31  1  1
 30 32  1  0
 32 33  2  0
 32 34  1  0
 34 13  1  0
M  END
$$$$
