
     RDKit          3D

 34 34  0  0  0  0  0  0  0  0999 V2000
  -10.0086  -38.6184  -14.2624 C   0  0  0  0  0  0  0  0  0  0  0  0
  -10.8739  -37.5285  -13.6587 C   0  0  0  0  0  0  0  0  0  0  0  0
  -12.2802  -38.0181  -13.4007 C   0  0  0  0  0  0  0  0  0  0  0  0
  -13.0759  -37.0657  -12.5506 C   0  0  0  0  0  0  0  0  0  0  0  0
  -14.3745  -37.5618  -12.2062 N   0  0  0  0  0  0  0  0  0  0  0  0
  -14.4692  -38.7114  -11.3697 C   0  0  0  0  0  0  0  0  0  0  0  0
  -14.3915  -39.8304  -11.9112 O   0  0  0  0  0  0  0  0  0  0  0  0
  -14.6498  -38.5298   -9.9417 C   0  0  2  0  0  0  0  0  0  0  0  0
  -13.3286  -38.0320   -9.3222 C   0  0  0  0  0  0  0  0  0  0  0  0
  -15.1685  -39.6506   -9.1386 C   0  0  0  0  0  0  0  0  0  0  0  0
  -15.7725  -39.3646   -7.8199 C   0  0  2  0  0  0  0  0  0  0  0  0
  -15.1788  -39.8916   -6.7122 O   0  0  0  0  0  0  0  0  0  0  0  0
  -17.2770  -39.7283   -7.8667 C   0  0  2  0  0  0  0  0  0  0  0  0
  -17.8833  -39.5442   -6.5326 C   0  0  0  0  0  0  0  0  0  0  0  0
  -19.0015  -38.5492   -6.4584 C   0  0  2  0  0  0  0  0  0  0  0  0
  -19.7977  -38.8754   -5.1945 C   0  0  0  0  0  0  0  0  0  0  0  0
  -19.9254  -38.4838   -7.6026 C   0  0  0  0  0  0  0  0  0  0  0  0
  -21.4010  -38.7108   -7.2389 C   0  0  0  0  0  0  0  0  0  0  0  0
  -22.1215  -38.9624   -8.5461 C   0  0  0  0  0  0  0  0  0  0  0  0
  -23.2626  -39.9566   -8.3856 C   0  0  0  0  0  0  0  0  0  0  0  0
  -23.1194  -41.1126   -9.3318 C   0  0  0  0  0  0  0  0  0  0  0  0
  -23.8382  -42.3474   -8.9303 C   0  0  2  0  0  0  0  0  0  0  0  0
  -25.3349  -42.1870   -9.2072 C   0  0  0  0  0  0  0  0  0  0  0  0
  -23.6730  -42.7675   -7.5178 C   0  0  0  0  0  0  0  0  0  0  0  0
  -22.2359  -42.9781   -7.1091 C   0  0  0  0  0  0  0  0  0  0  0  0
  -21.4096  -43.6087   -8.1354 C   0  0  0  0  0  0  0  0  0  0  0  0
  -21.8313  -44.5954   -8.7879 O   0  0  0  0  0  0  0  0  0  0  0  0
  -20.0924  -43.1453   -8.4515 N   0  0  0  0  0  0  0  0  0  0  0  0
  -19.5024  -43.5258   -9.7088 C   0  0  0  0  0  0  0  0  0  0  0  0
  -19.3876  -42.2921   -7.4756 C   0  0  1  0  0  0  0  0  0  0  0  0
  -19.4561  -43.0725   -6.1602 C   0  0  0  0  0  0  0  0  0  0  0  0
  -17.9698  -42.1947   -7.9023 C   0  0  0  0  0  0  0  0  0  0  0  0
  -17.3219  -43.2978   -7.7668 O   0  0  0  0  0  0  0  0  0  0  0  0
  -17.3188  -41.0589   -8.4128 N   0  0  0  0  0  0  0  0  0  0  0  0
  1  2  1  0
  2  3  1  0
  3  4  1  0
  4  5  1  0
  5  6  1  0
  6  7  2  0
  6  8  1  0
  8  9  1  1
  8 10  1  0
 10 11  1  0
 11 12  1  1
 11 13  1  0
 13 14  1  1
 14 15  1  0
 15 16  1  1
 15 17  1  0
 17 18  1  0
 18 19  1  0
 19 20  1  0
 20 21  1  0
 21 22  1  0
 22 23  1  1
 22 24  1  0
 24 25  1  0
 25 26  1  0
 26 27  2  0
 26 28  1  0
 28 29  1  0
 28 30  1  0
 30 31  1  1
 30 32  1  0
 32 33  2  0
 32 34  1  0
 34 13  1  0
M  END
$$$$
