
     RDKit          3D

 34 34  0  0  0  0  0  0  0  0999 V2000
  -12.6641  -34.2391  -12.7659 C   0  0  0  0  0  0  0  0  0  0  0  0
  -13.3259  -35.5817  -12.5197 C   0  0  0  0  0  0  0  0  0  0  0  0
  -12.3053  -36.6922  -12.4234 C   0  0  0  0  0  0  0  0  0  0  0  0
  -12.9394  -38.0457  -12.2541 C   0  0  0  0  0  0  0  0  0  0  0  0
  -12.8882  -38.5319  -10.9080 N   0  0  0  0  0  0  0  0  0  0  0  0
  -14.1033  -38.9202  -10.2730 C   0  0  0  0  0  0  0  0  0  0  0  0
  -15.1369  -38.9492  -10.9676 O   0  0  0  0  0  0  0  0  0  0  0  0
  -14.0831  -39.2603   -8.8628 C   0  0  2  0  0  0  0  0  0  0  0  0
  -12.9633  -40.2882   -8.6045 C   0  0  0  0  0  0  0  0  0  0  0  0
  -15.3249  -39.7267   -8.2222 C   0  0  0  0  0  0  0  0  0  0  0  0
  -16.3250  -38.7269   -7.7909 C   0  0  2  0  0  0  0  0  0  0  0  0
  -16.0363  -37.9545   -6.7059 O   0  0  0  0  0  0  0  0  0  0  0  0
  -17.6955  -39.4277   -7.6217 C   0  0  2  0  0  0  0  0  0  0  0  0
  -18.1124  -39.3873   -6.2054 C   0  0  0  0  0  0  0  0  0  0  0  0
  -19.4023  -38.6769   -5.9274 C   0  0  2  0  0  0  0  0  0  0  0  0
  -19.8964  -39.1769   -4.5695 C   0  0  0  0  0  0  0  0  0  0  0  0
  -20.4834  -38.8270   -6.9151 C   0  0  0  0  0  0  0  0  0  0  0  0
  -21.7933  -39.3878   -6.3399 C   0  0  0  0  0  0  0  0  0  0  0  0
  -22.6322  -39.7996   -7.5306 C   0  0  0  0  0  0  0  0  0  0  0  0
  -23.4775  -41.0300   -7.2339 C   0  0  0  0  0  0  0  0  0  0  0  0
  -23.2239  -42.1225   -8.2311 C   0  0  0  0  0  0  0  0  0  0  0  0
  -23.5709  -43.4895   -7.7688 C   0  0  2  0  0  0  0  0  0  0  0  0
  -25.0892  -43.6786   -7.8096 C   0  0  0  0  0  0  0  0  0  0  0  0
  -23.0964  -43.8591   -6.4134 C   0  0  0  0  0  0  0  0  0  0  0  0
  -21.6034  -43.7325   -6.2353 C   0  0  0  0  0  0  0  0  0  0  0  0
  -20.8254  -44.1564   -7.3967 C   0  0  0  0  0  0  0  0  0  0  0  0
  -21.1076  -45.2142   -8.0119 O   0  0  0  0  0  0  0  0  0  0  0  0
  -19.7142  -43.4020   -7.8925 N   0  0  0  0  0  0  0  0  0  0  0  0
  -19.2563  -43.6373   -9.2373 C   0  0  0  0  0  0  0  0  0  0  0  0
  -19.0791  -42.4086   -7.0053 C   0  0  1  0  0  0  0  0  0  0  0  0
  -18.7623  -43.1829   -5.7231 C   0  0  0  0  0  0  0  0  0  0  0  0
  -17.8051  -41.9873   -7.6386 C   0  0  0  0  0  0  0  0  0  0  0  0
  -16.9100  -42.9113   -7.6418 O   0  0  0  0  0  0  0  0  0  0  0  0
  -17.5177  -40.7325   -8.2016 N   0  0  0  0  0  0  0  0  0  0  0  0
  1  2  1  0
  2  3  1  0
  3  4  1  0
  4  5  1  0
  5  6  1  0
  6  7  2  0
  6  8  1  0
  8  9  1  6
  8 10  1  0
 10 11  1  0
 11 12  1  1
 11 13  1  0
 13 14  1  1
 14 15  1  0
 15 16  1  1
 15 17  1  0
 17 18  1  0
 18 19  1  0
 19 20  1  0
 20 21  1  0
 21 22  1  0
 22 23  1  1
 22 24  1  0
 24 25  1  0
 25 26  1  0
 26 27  2  0
 26 28  1  0
 28 29  1  0
 28 30  1  0
 30 31  1  1
 30 32  1  0
 32 33  2  0
 32 34  1  0
 34 13  1  0
M  END
$$$$
