
     RDKit          3D

 34 34  0  0  0  0  0  0  0  0999 V2000
  -13.8710  -35.3326  -13.8021 C   0  0  0  0  0  0  0  0  0  0  0  0
  -12.5727  -35.4590  -13.0278 C   0  0  0  0  0  0  0  0  0  0  0  0
  -12.3106  -36.8895  -12.6168 C   0  0  0  0  0  0  0  0  0  0  0  0
  -12.9110  -37.2248  -11.2789 C   0  0  0  0  0  0  0  0  0  0  0  0
  -12.6732  -38.5775  -10.8732 N   0  0  0  0  0  0  0  0  0  0  0  0
  -13.3060  -39.0596   -9.6911 C   0  0  0  0  0  0  0  0  0  0  0  0
  -12.6778  -38.9698   -8.6192 O   0  0  0  0  0  0  0  0  0  0  0  0
  -14.6378  -39.6271   -9.7870 C   0  0  2  0  0  0  0  0  0  0  0  0
  -14.8059  -40.2973  -11.1653 C   0  0  0  0  0  0  0  0  0  0  0  0
  -15.8028  -38.7649   -9.5231 C   0  0  0  0  0  0  0  0  0  0  0  0
  -16.1610  -38.4578   -8.1221 C   0  0  2  0  0  0  0  0  0  0  0  0
  -15.2215  -38.6659   -7.1571 O   0  0  0  0  0  0  0  0  0  0  0  0
  -17.4838  -39.1827   -7.7712 C   0  0  2  0  0  0  0  0  0  0  0  0
  -17.5995  -39.3427   -6.3076 C   0  0  0  0  0  0  0  0  0  0  0  0
  -18.7875  -38.6850   -5.6736 C   0  0  2  0  0  0  0  0  0  0  0  0
  -19.0037  -39.3724   -4.3250 C   0  0  0  0  0  0  0  0  0  0  0  0
  -20.0518  -38.7013   -6.4273 C   0  0  0  0  0  0  0  0  0  0  0  0
  -21.2285  -39.3439   -5.6765 C   0  0  0  0  0  0  0  0  0  0  0  0
  -22.3038  -39.5899   -6.7131 C   0  0  0  0  0  0  0  0  0  0  0  0
  -23.0990  -40.8541   -6.4204 C   0  0  0  0  0  0  0  0  0  0  0  0
  -23.0818  -41.7952   -7.5892 C   0  0  0  0  0  0  0  0  0  0  0  0
  -23.3587  -43.2152   -7.2580 C   0  0  2  0  0  0  0  0  0  0  0  0
  -24.8570  -43.4048   -7.0095 C   0  0  0  0  0  0  0  0  0  0  0  0
  -22.6247  -43.7681   -6.0942 C   0  0  0  0  0  0  0  0  0  0  0  0
  -21.1244  -43.6597   -6.2130 C   0  0  0  0  0  0  0  0  0  0  0  0
  -20.6120  -43.9130   -7.5573 C   0  0  0  0  0  0  0  0  0  0  0  0
  -21.0397  -44.8760   -8.2405 O   0  0  0  0  0  0  0  0  0  0  0  0
  -19.6088  -43.0909   -8.1635 N   0  0  0  0  0  0  0  0  0  0  0  0
  -19.4429  -43.1335   -9.5932 C   0  0  0  0  0  0  0  0  0  0  0  0
  -18.7816  -42.2278   -7.2986 C   0  0  1  0  0  0  0  0  0  0  0  0
  -18.2264  -43.1719   -6.2288 C   0  0  0  0  0  0  0  0  0  0  0  0
  -17.6552  -41.7154   -8.1175 C   0  0  0  0  0  0  0  0  0  0  0  0
  -16.8021  -42.6250   -8.4331 O   0  0  0  0  0  0  0  0  0  0  0  0
  -17.4600  -40.3927   -8.5495 N   0  0  0  0  0  0  0  0  0  0  0  0
  1  2  1  0
  2  3  1  0
  3  4  1  0
  4  5  1  0
  5  6  1  0
  6  7  2  0
  6  8  1  0
  8  9  1  6
  8 10  1  0
 10 11  1  0
 11 12  1  1
 11 13  1  0
 13 14  1  1
 14 15  1  0
 15 16  1  1
 15 17  1  0
 17 18  1  0
 18 19  1  0
 19 20  1  0
 20 21  1  0
 21 22  1  0
 22 23  1  1
 22 24  1  0
 24 25  1  0
 25 26  1  0
 26 27  2  0
 26 28  1  0
 28 29  1  0
 28 30  1  0
 30 31  1  1
 30 32  1  0
 32 33  2  0
 32 34  1  0
 34 13  1  0
M  END
$$$$
