
     RDKit          3D

 34 34  0  0  0  0  0  0  0  0999 V2000
  -11.7740  -34.6129  -13.2435 C   0  0  0  0  0  0  0  0  0  0  0  0
  -13.2358  -34.9223  -12.9816 C   0  0  0  0  0  0  0  0  0  0  0  0
  -13.4186  -35.6708  -11.6815 C   0  0  0  0  0  0  0  0  0  0  0  0
  -13.0951  -37.1344  -11.8079 C   0  0  0  0  0  0  0  0  0  0  0  0
  -13.3601  -37.8793  -10.6138 N   0  0  0  0  0  0  0  0  0  0  0  0
  -14.2910  -38.9566  -10.6705 C   0  0  0  0  0  0  0  0  0  0  0  0
  -15.0821  -38.9891  -11.6321 O   0  0  0  0  0  0  0  0  0  0  0  0
  -14.2764  -39.9556   -9.6186 C   0  0  2  0  0  0  0  0  0  0  0  0
  -13.5548  -41.2191  -10.1286 C   0  0  0  0  0  0  0  0  0  0  0  0
  -15.5483  -40.3467   -8.9867 C   0  0  0  0  0  0  0  0  0  0  0  0
  -16.2547  -39.3651   -8.1364 C   0  0  2  0  0  0  0  0  0  0  0  0
  -15.7088  -39.0492   -6.9284 O   0  0  0  0  0  0  0  0  0  0  0  0
  -17.7302  -39.8077   -7.9775 C   0  0  2  0  0  0  0  0  0  0  0  0
  -18.2359  -39.4126   -6.6474 C   0  0  0  0  0  0  0  0  0  0  0  0
  -19.4086  -38.4796   -6.6485 C   0  0  2  0  0  0  0  0  0  0  0  0
  -20.0747  -38.6081   -5.2782 C   0  0  0  0  0  0  0  0  0  0  0  0
  -20.4256  -38.6730   -7.6951 C   0  0  0  0  0  0  0  0  0  0  0  0
  -21.8478  -38.9045   -7.1612 C   0  0  0  0  0  0  0  0  0  0  0  0
  -22.6546  -39.4287   -8.3296 C   0  0  0  0  0  0  0  0  0  0  0  0
  -23.7093  -40.4335   -7.8887 C   0  0  0  0  0  0  0  0  0  0  0  0
  -23.5668  -41.7349   -8.6224 C   0  0  0  0  0  0  0  0  0  0  0  0
  -24.1656  -42.9100   -7.9416 C   0  0  2  0  0  0  0  0  0  0  0  0
  -25.6874  -42.8800   -8.1025 C   0  0  0  0  0  0  0  0  0  0  0  0
  -23.8572  -43.0541   -6.4984 C   0  0  0  0  0  0  0  0  0  0  0  0
  -22.3804  -43.1122   -6.1940 C   0  0  0  0  0  0  0  0  0  0  0  0
  -21.6007  -43.8777   -7.1634 C   0  0  0  0  0  0  0  0  0  0  0  0
  -22.0073  -44.9878   -7.5870 O   0  0  0  0  0  0  0  0  0  0  0  0
  -20.3480  -43.4135   -7.6783 N   0  0  0  0  0  0  0  0  0  0  0  0
  -19.8390  -43.9881   -8.8966 C   0  0  0  0  0  0  0  0  0  0  0  0
  -19.6244  -42.3604   -6.9402 C   0  0  1  0  0  0  0  0  0  0  0  0
  -19.5321  -42.8881   -5.5060 C   0  0  0  0  0  0  0  0  0  0  0  0
  -18.2562  -42.2707   -7.5074 C   0  0  0  0  0  0  0  0  0  0  0  0
  -17.5268  -43.2954   -7.2377 O   0  0  0  0  0  0  0  0  0  0  0  0
  -17.7272  -41.2164   -8.2708 N   0  0  0  0  0  0  0  0  0  0  0  0
  1  2  1  0
  2  3  1  0
  3  4  1  0
  4  5  1  0
  5  6  1  0
  6  7  2  0
  6  8  1  0
  8  9  1  6
  8 10  1  0
 10 11  1  0
 11 12  1  1
 11 13  1  0
 13 14  1  1
 14 15  1  0
 15 16  1  1
 15 17  1  0
 17 18  1  0
 18 19  1  0
 19 20  1  0
 20 21  1  0
 21 22  1  0
 22 23  1  1
 22 24  1  0
 24 25  1  0
 25 26  1  0
 26 27  2  0
 26 28  1  0
 28 29  1  0
 28 30  1  0
 30 31  1  1
 30 32  1  0
 32 33  2  0
 32 34  1  0
 34 13  1  0
M  END
$$$$
