
     RDKit          3D

 36 38  0  0  0  0  0  0  0  0999 V2000
  -16.9838  -35.2461  -13.5807 C   0  0  0  0  0  0  0  0  0  0  0  0
  -16.7666  -35.3824  -12.0760 C   0  0  0  0  0  0  0  0  0  0  0  0
  -17.0419  -34.0360  -11.4594 C   0  0  0  0  0  0  0  0  0  0  0  0
  -15.3911  -35.8697  -11.7998 C   0  0  0  0  0  0  0  0  0  0  0  0
  -14.3301  -35.0713  -12.0752 C   0  0  0  0  0  0  0  0  0  0  0  0
  -13.0506  -35.5095  -11.8250 C   0  0  0  0  0  0  0  0  0  0  0  0
  -12.8263  -36.7825  -11.2841 C   0  0  0  0  0  0  0  0  0  0  0  0
  -13.8951  -37.5870  -11.0066 C   0  0  0  0  0  0  0  0  0  0  0  0
  -13.6442  -38.9422  -10.4302 C   0  0  0  0  0  0  0  0  0  0  0  0
  -14.6983  -39.3463   -9.5583 N   0  0  0  0  0  0  0  0  0  0  0  0
  -14.4945  -39.2552   -8.1571 C   0  0  0  0  0  0  0  0  0  0  0  0
  -15.7308  -38.9100   -7.4176 C   0  0  1  0  0  0  0  0  0  0  0  0
  -16.2515  -37.7032   -7.8996 O   0  0  0  0  0  0  0  0  0  0  0  0
  -16.8177  -39.9946   -7.4788 C   0  0  2  0  0  0  0  0  0  0  0  0
  -17.6146  -39.9094   -6.2086 C   0  0  0  0  0  0  0  0  0  0  0  0
  -18.9394  -39.1641   -6.4488 C   0  0  2  0  0  0  0  0  0  0  0  0
  -19.1598  -38.0425   -5.4999 C   0  0  0  0  0  0  0  0  0  0  0  0
  -20.0226  -40.1781   -6.4870 C   0  0  0  0  0  0  0  0  0  0  0  0
  -21.4097  -39.6265   -6.3858 C   0  0  0  0  0  0  0  0  0  0  0  0
  -22.2034  -40.1289   -5.2196 C   0  0  0  0  0  0  0  0  0  0  0  0
  -23.3925  -40.9695   -5.6016 C   0  0  0  0  0  0  0  0  0  0  0  0
  -23.0221  -42.2785   -6.2383 C   0  0  0  0  0  0  0  0  0  0  0  0
  -22.9752  -43.4349   -5.2604 C   0  0  0  0  0  0  0  0  0  0  0  0
  -21.5731  -43.8460   -4.9710 C   0  0  0  0  0  0  0  0  0  0  0  0
  -20.8541  -44.4241   -5.9987 O   0  0  0  0  0  0  0  0  0  0  0  0
  -20.0414  -43.9434   -7.0170 C   0  0  0  0  0  0  0  0  0  0  0  0
  -18.7746  -43.3960   -6.9443 C   0  0  0  0  0  0  0  0  0  0  0  0
  -18.2040  -43.0002   -8.1312 C   0  0  0  0  0  0  0  0  0  0  0  0
  -18.9303  -43.1747   -9.3413 C   0  0  0  0  0  0  0  0  0  0  0  0
  -20.1902  -43.7225   -9.3959 C   0  0  0  0  0  0  0  0  0  0  0  0
  -21.0476  -43.9183  -10.9136 Cl  0  0  0  0  0  0  0  0  0  0  0  0
  -20.6949  -44.0844   -8.2316 N   0  0  0  0  0  0  0  0  0  0  0  0
  -16.9052  -42.3683   -8.4341 C   0  0  0  0  0  0  0  0  0  0  0  0
  -16.2775  -42.9096   -9.4522 O   0  0  0  0  0  0  0  0  0  0  0  0
  -16.2530  -41.2679   -7.7842 N   0  0  0  0  0  0  0  0  0  0  0  0
  -15.1622  -37.1337  -11.2623 C   0  0  0  0  0  0  0  0  0  0  0  0
  1  2  1  0
  2  3  1  0
  2  4  1  0
  4  5  2  0
  5  6  1  0
  6  7  2  0
  7  8  1  0
  8  9  1  0
  9 10  1  0
 10 11  1  0
 11 12  1  0
 12 13  1  6
 12 14  1  0
 14 15  1  1
 15 16  1  0
 16 17  1  1
 16 18  1  0
 18 19  1  0
 19 20  1  0
 20 21  1  0
 21 22  1  0
 22 23  1  0
 23 24  1  0
 24 25  1  0
 25 26  1  0
 26 27  2  0
 27 28  1  0
 28 29  2  0
 29 30  1  0
 30 31  1  0
 30 32  2  0
 28 33  1  0
 33 34  2  0
 33 35  1  0
  8 36  2  0
 32 26  1  0
 35 14  1  0
 36  4  1  0
M  END
$$$$
