
     RDKit          3D

 36 38  0  0  0  0  0  0  0  0999 V2000
  -11.3064  -36.5510  -14.4366 C   0  0  0  0  0  0  0  0  0  0  0  0
  -12.1166  -35.5989  -13.5609 C   0  0  0  0  0  0  0  0  0  0  0  0
  -11.1396  -34.8323  -12.7087 C   0  0  0  0  0  0  0  0  0  0  0  0
  -13.1057  -36.3605  -12.7564 C   0  0  0  0  0  0  0  0  0  0  0  0
  -14.4207  -36.3033  -13.0830 C   0  0  0  0  0  0  0  0  0  0  0  0
  -15.3479  -37.0030  -12.3467 C   0  0  0  0  0  0  0  0  0  0  0  0
  -14.9484  -37.7821  -11.2526 C   0  0  0  0  0  0  0  0  0  0  0  0
  -13.6236  -37.8397  -10.9234 C   0  0  0  0  0  0  0  0  0  0  0  0
  -13.2089  -38.6733   -9.7550 C   0  0  0  0  0  0  0  0  0  0  0  0
  -14.1346  -38.5631   -8.6754 N   0  0  0  0  0  0  0  0  0  0  0  0
  -15.5123  -38.7807   -8.9360 C   0  0  0  0  0  0  0  0  0  0  0  0
  -16.2855  -39.0983   -7.7130 C   0  0  1  0  0  0  0  0  0  0  0  0
  -16.6310  -37.9155   -7.0487 O   0  0  0  0  0  0  0  0  0  0  0  0
  -17.5541  -39.9253   -7.9742 C   0  0  2  0  0  0  0  0  0  0  0  0
  -18.0006  -40.4972   -6.6591 C   0  0  0  0  0  0  0  0  0  0  0  0
  -19.1651  -39.6758   -6.0782 C   0  0  2  0  0  0  0  0  0  0  0  0
  -18.9270  -39.2306   -4.6810 C   0  0  0  0  0  0  0  0  0  0  0  0
  -20.4105  -40.4559   -6.2865 C   0  0  0  0  0  0  0  0  0  0  0  0
  -21.5946  -39.9780   -5.5067 C   0  0  0  0  0  0  0  0  0  0  0  0
  -22.1815  -40.9888   -4.5707 C   0  0  0  0  0  0  0  0  0  0  0  0
  -23.5721  -41.4330   -4.9388 C   0  0  0  0  0  0  0  0  0  0  0  0
  -23.6332  -42.2110   -6.2221 C   0  0  0  0  0  0  0  0  0  0  0  0
  -23.5970  -43.7124   -6.0216 C   0  0  0  0  0  0  0  0  0  0  0  0
  -22.2796  -44.2826   -6.4190 C   0  0  0  0  0  0  0  0  0  0  0  0
  -21.9513  -44.2523   -7.7602 O   0  0  0  0  0  0  0  0  0  0  0  0
  -21.3163  -43.3402   -8.5928 C   0  0  0  0  0  0  0  0  0  0  0  0
  -19.9831  -42.9804   -8.6456 C   0  0  0  0  0  0  0  0  0  0  0  0
  -19.6348  -42.0373   -9.5839 C   0  0  0  0  0  0  0  0  0  0  0  0
  -20.6416  -41.4984  -10.4313 C   0  0  0  0  0  0  0  0  0  0  0  0
  -21.9641  -41.8685  -10.3661 C   0  0  0  0  0  0  0  0  0  0  0  0
  -23.1712  -41.1757  -11.4337 Cl  0  0  0  0  0  0  0  0  0  0  0  0
  -22.2481  -42.7742   -9.4493 N   0  0  0  0  0  0  0  0  0  0  0  0
  -18.3410  -41.4061   -9.9087 C   0  0  0  0  0  0  0  0  0  0  0  0
  -18.0898  -41.3454  -11.1959 O   0  0  0  0  0  0  0  0  0  0  0  0
  -17.3463  -40.8608   -9.0302 N   0  0  0  0  0  0  0  0  0  0  0  0
  -12.7144  -37.1362  -11.6682 C   0  0  0  0  0  0  0  0  0  0  0  0
  1  2  1  0
  2  3  1  0
  2  4  1  0
  4  5  2  0
  5  6  1  0
  6  7  2  0
  7  8  1  0
  8  9  1  0
  9 10  1  0
 10 11  1  0
 11 12  1  0
 12 13  1  6
 12 14  1  0
 14 15  1  1
 15 16  1  0
 16 17  1  1
 16 18  1  0
 18 19  1  0
 19 20  1  0
 20 21  1  0
 21 22  1  0
 22 23  1  0
 23 24  1  0
 24 25  1  0
 25 26  1  0
 26 27  2  0
 27 28  1  0
 28 29  2  0
 29 30  1  0
 30 31  1  0
 30 32  2  0
 28 33  1  0
 33 34  2  0
 33 35  1  0
  8 36  2  0
 32 26  1  0
 35 14  1  0
 36  4  1  0
M  END
$$$$
