
     RDKit          3D

 36 38  0  0  0  0  0  0  0  0999 V2000
  -11.2615  -39.1407  -12.2755 C   0  0  0  0  0  0  0  0  0  0  0  0
  -12.1180  -38.4271  -13.3182 C   0  0  0  0  0  0  0  0  0  0  0  0
  -11.4042  -37.1538  -13.6894 C   0  0  0  0  0  0  0  0  0  0  0  0
  -13.4815  -38.1852  -12.7815 C   0  0  0  0  0  0  0  0  0  0  0  0
  -14.5623  -38.4418  -13.5594 C   0  0  0  0  0  0  0  0  0  0  0  0
  -15.8310  -38.2222  -13.0759 C   0  0  0  0  0  0  0  0  0  0  0  0
  -16.0239  -37.7321  -11.7774 C   0  0  0  0  0  0  0  0  0  0  0  0
  -14.9351  -37.4736  -10.9936 C   0  0  0  0  0  0  0  0  0  0  0  0
  -15.1525  -36.9512   -9.6109 C   0  0  0  0  0  0  0  0  0  0  0  0
  -14.4290  -37.7087   -8.6427 N   0  0  0  0  0  0  0  0  0  0  0  0
  -15.0392  -38.8636   -8.0884 C   0  0  0  0  0  0  0  0  0  0  0  0
  -16.2983  -38.5595   -7.3695 C   0  0  1  0  0  0  0  0  0  0  0  0
  -16.6314  -37.2110   -7.5443 O   0  0  0  0  0  0  0  0  0  0  0  0
  -17.4863  -39.4370   -7.7938 C   0  0  2  0  0  0  0  0  0  0  0  0
  -17.7240  -40.4375   -6.6991 C   0  0  0  0  0  0  0  0  0  0  0  0
  -18.9054  -40.0023   -5.8141 C   0  0  2  0  0  0  0  0  0  0  0  0
  -18.5723  -39.9734   -4.3666 C   0  0  0  0  0  0  0  0  0  0  0  0
  -20.0702  -40.8484   -6.1750 C   0  0  0  0  0  0  0  0  0  0  0  0
  -21.2113  -40.8001   -5.2085 C   0  0  0  0  0  0  0  0  0  0  0  0
  -21.5784  -42.1189   -4.6016 C   0  0  0  0  0  0  0  0  0  0  0  0
  -22.9413  -42.6202   -4.9987 C   0  0  0  0  0  0  0  0  0  0  0  0
  -23.0501  -42.9727   -6.4547 C   0  0  0  0  0  0  0  0  0  0  0  0
  -22.8243  -44.4436   -6.7395 C   0  0  0  0  0  0  0  0  0  0  0  0
  -21.5007  -44.6763   -7.3818 C   0  0  0  0  0  0  0  0  0  0  0  0
  -21.3216  -44.1949   -8.6638 O   0  0  0  0  0  0  0  0  0  0  0  0
  -20.8850  -42.9937   -9.2069 C   0  0  0  0  0  0  0  0  0  0  0  0
  -19.6138  -42.4523   -9.2313 C   0  0  0  0  0  0  0  0  0  0  0  0
  -19.4751  -41.2300   -9.8459 C   0  0  0  0  0  0  0  0  0  0  0  0
  -20.6200  -40.6055  -10.4128 C   0  0  0  0  0  0  0  0  0  0  0  0
  -21.8782  -41.1590  -10.3806 C   0  0  0  0  0  0  0  0  0  0  0  0
  -23.2617  -40.3508  -11.0944 Cl  0  0  0  0  0  0  0  0  0  0  0  0
  -21.9599  -42.3305   -9.7788 N   0  0  0  0  0  0  0  0  0  0  0  0
  -18.3021  -40.3556  -10.0399 C   0  0  0  0  0  0  0  0  0  0  0  0
  -18.1969  -39.8727  -11.2562 O   0  0  0  0  0  0  0  0  0  0  0  0
  -17.2877  -39.9693   -9.1017 N   0  0  0  0  0  0  0  0  0  0  0  0
  -13.6791  -37.6984  -11.4920 C   0  0  0  0  0  0  0  0  0  0  0  0
  1  2  1  0
  2  3  1  0
  2  4  1  0
  4  5  2  0
  5  6  1  0
  6  7  2  0
  7  8  1  0
  8  9  1  0
  9 10  1  0
 10 11  1  0
 11 12  1  0
 12 13  1  6
 12 14  1  0
 14 15  1  1
 15 16  1  0
 16 17  1  1
 16 18  1  0
 18 19  1  0
 19 20  1  0
 20 21  1  0
 21 22  1  0
 22 23  1  0
 23 24  1  0
 24 25  1  0
 25 26  1  0
 26 27  2  0
 27 28  1  0
 28 29  2  0
 29 30  1  0
 30 31  1  0
 30 32  2  0
 28 33  1  0
 33 34  2  0
 33 35  1  0
  8 36  2  0
 32 26  1  0
 35 14  1  0
 36  4  1  0
M  END
$$$$
