
     RDKit          3D

 36 38  0  0  0  0  0  0  0  0999 V2000
  -24.1120  -38.4039   -8.1158 C   0  0  0  0  0  0  0  0  0  0  0  0
  -23.7307  -39.5739   -7.2126 C   0  0  0  0  0  0  0  0  0  0  0  0
  -24.1071  -39.1945   -5.8044 C   0  0  0  0  0  0  0  0  0  0  0  0
  -22.2850  -39.8816   -7.3572 C   0  0  0  0  0  0  0  0  0  0  0  0
  -21.8751  -40.7279   -8.3344 C   0  0  0  0  0  0  0  0  0  0  0  0
  -20.5396  -41.0224   -8.4799 C   0  0  0  0  0  0  0  0  0  0  0  0
  -19.5870  -40.4542   -7.6235 C   0  0  0  0  0  0  0  0  0  0  0  0
  -19.9999  -39.6016   -6.6390 C   0  0  0  0  0  0  0  0  0  0  0  0
  -18.9757  -39.0016   -5.7317 C   0  0  0  0  0  0  0  0  0  0  0  0
  -17.8874  -38.4418   -6.4643 N   0  0  0  0  0  0  0  0  0  0  0  0
  -16.7418  -39.2450   -6.7003 C   0  0  0  0  0  0  0  0  0  0  0  0
  -15.8339  -38.6666   -7.7180 C   0  0  1  0  0  0  0  0  0  0  0  0
  -14.7563  -38.0328   -7.0881 O   0  0  0  0  0  0  0  0  0  0  0  0
  -15.3009  -39.6904   -8.7324 C   0  0  2  0  0  0  0  0  0  0  0  0
  -15.2617  -39.0191  -10.0754 C   0  0  0  0  0  0  0  0  0  0  0  0
  -13.8299  -38.5686  -10.4147 C   0  0  2  0  0  0  0  0  0  0  0  0
  -13.7424  -37.1352  -10.7951 C   0  0  0  0  0  0  0  0  0  0  0  0
  -13.2873  -39.5198  -11.4166 C   0  0  0  0  0  0  0  0  0  0  0  0
  -12.0398  -39.0675  -12.1079 C   0  0  0  0  0  0  0  0  0  0  0  0
  -12.1509  -38.9549  -13.5970 C   0  0  0  0  0  0  0  0  0  0  0  0
  -11.2948  -39.9356  -14.3532 C   0  0  0  0  0  0  0  0  0  0  0  0
  -11.7201  -41.3651  -14.1752 C   0  0  0  0  0  0  0  0  0  0  0  0
  -12.6327  -41.8663  -15.2760 C   0  0  0  0  0  0  0  0  0  0  0  0
  -14.0375  -41.9997  -14.7992 C   0  0  0  0  0  0  0  0  0  0  0  0
  -14.3011  -42.9778  -13.8605 O   0  0  0  0  0  0  0  0  0  0  0  0
  -14.2857  -43.0334  -12.4730 C   0  0  0  0  0  0  0  0  0  0  0  0
  -15.1505  -42.4572  -11.5620 C   0  0  0  0  0  0  0  0  0  0  0  0
  -14.8867  -42.6841  -10.2316 C   0  0  0  0  0  0  0  0  0  0  0  0
  -13.7663  -43.4834   -9.8739 C   0  0  0  0  0  0  0  0  0  0  0  0
  -12.9161  -44.0504  -10.7937 C   0  0  0  0  0  0  0  0  0  0  0  0
  -11.5459  -45.0302  -10.3044 Cl  0  0  0  0  0  0  0  0  0  0  0  0
  -13.2100  -43.8023  -12.0560 N   0  0  0  0  0  0  0  0  0  0  0  0
  -15.5628  -42.2227   -9.0036 C   0  0  0  0  0  0  0  0  0  0  0  0
  -15.7455  -43.1690   -8.1122 O   0  0  0  0  0  0  0  0  0  0  0  0
  -16.0334  -40.9117   -8.6595 N   0  0  0  0  0  0  0  0  0  0  0  0
  -21.3341  -39.3199   -6.5091 C   0  0  0  0  0  0  0  0  0  0  0  0
  1  2  1  0
  2  3  1  0
  2  4  1  0
  4  5  2  0
  5  6  1  0
  6  7  2  0
  7  8  1  0
  8  9  1  0
  9 10  1  0
 10 11  1  0
 11 12  1  0
 12 13  1  1
 12 14  1  0
 14 15  1  6
 15 16  1  0
 16 17  1  6
 16 18  1  0
 18 19  1  0
 19 20  1  0
 20 21  1  0
 21 22  1  0
 22 23  1  0
 23 24  1  0
 24 25  1  0
 25 26  1  0
 26 27  2  0
 27 28  1  0
 28 29  2  0
 29 30  1  0
 30 31  1  0
 30 32  2  0
 28 33  1  0
 33 34  2  0
 33 35  1  0
  8 36  2  0
 32 26  1  0
 35 14  1  0
 36  4  1  0
M  END
$$$$
