
     RDKit          3D

 36 38  0  0  0  0  0  0  0  0999 V2000
  -12.1828  -34.7203  -11.9748 C   0  0  0  0  0  0  0  0  0  0  0  0
  -13.2874  -35.7473  -12.2096 C   0  0  0  0  0  0  0  0  0  0  0  0
  -14.3809  -35.4655  -11.2128 C   0  0  0  0  0  0  0  0  0  0  0  0
  -12.7410  -37.1229  -12.0886 C   0  0  0  0  0  0  0  0  0  0  0  0
  -11.7307  -37.5161  -12.9033 C   0  0  0  0  0  0  0  0  0  0  0  0
  -11.2150  -38.7871  -12.8029 C   0  0  0  0  0  0  0  0  0  0  0  0
  -11.7245  -39.6905  -11.8607 C   0  0  0  0  0  0  0  0  0  0  0  0
  -12.7424  -39.2946  -11.0398 C   0  0  0  0  0  0  0  0  0  0  0  0
  -13.2779  -40.2660  -10.0390 C   0  0  0  0  0  0  0  0  0  0  0  0
  -13.7078  -39.6103   -8.8475 N   0  0  0  0  0  0  0  0  0  0  0  0
  -14.9484  -38.9218   -8.8598 C   0  0  0  0  0  0  0  0  0  0  0  0
  -15.7138  -39.0938   -7.6032 C   0  0  1  0  0  0  0  0  0  0  0  0
  -16.0833  -37.8421   -7.0968 O   0  0  0  0  0  0  0  0  0  0  0  0
  -16.9651  -39.9736   -7.7504 C   0  0  2  0  0  0  0  0  0  0  0  0
  -17.6955  -39.9452   -6.4384 C   0  0  0  0  0  0  0  0  0  0  0  0
  -18.8874  -38.9738   -6.5023 C   0  0  2  0  0  0  0  0  0  0  0  0
  -18.8900  -37.9780   -5.4000 C   0  0  0  0  0  0  0  0  0  0  0  0
  -20.1228  -39.7884   -6.6174 C   0  0  0  0  0  0  0  0  0  0  0  0
  -21.3967  -39.0450   -6.3664 C   0  0  0  0  0  0  0  0  0  0  0  0
  -22.2236  -39.5766   -5.2368 C   0  0  0  0  0  0  0  0  0  0  0  0
  -23.5462  -40.1561   -5.6627 C   0  0  0  0  0  0  0  0  0  0  0  0
  -23.4162  -41.4031   -6.4898 C   0  0  0  0  0  0  0  0  0  0  0  0
  -23.5277  -42.6797   -5.6812 C   0  0  0  0  0  0  0  0  0  0  0  0
  -22.2032  -43.3436   -5.5277 C   0  0  0  0  0  0  0  0  0  0  0  0
  -21.6225  -43.8759   -6.6621 O   0  0  0  0  0  0  0  0  0  0  0  0
  -20.7756  -43.3895   -7.6493 C   0  0  0  0  0  0  0  0  0  0  0  0
  -19.4345  -43.0647   -7.5732 C   0  0  0  0  0  0  0  0  0  0  0  0
  -18.8457  -42.5992   -8.7254 C   0  0  0  0  0  0  0  0  0  0  0  0
  -19.6298  -42.4831   -9.9061 C   0  0  0  0  0  0  0  0  0  0  0  0
  -20.9635  -42.8119   -9.9647 C   0  0  0  0  0  0  0  0  0  0  0  0
  -21.8903  -42.6521  -11.4454 Cl  0  0  0  0  0  0  0  0  0  0  0  0
  -21.4826  -43.2515   -8.8340 N   0  0  0  0  0  0  0  0  0  0  0  0
  -17.4715  -42.1434   -9.0113 C   0  0  0  0  0  0  0  0  0  0  0  0
  -16.9744  -42.6266  -10.1262 O   0  0  0  0  0  0  0  0  0  0  0  0
  -16.6269  -41.2634   -8.2557 N   0  0  0  0  0  0  0  0  0  0  0  0
  -13.2434  -38.0248  -11.1542 C   0  0  0  0  0  0  0  0  0  0  0  0
  1  2  1  0
  2  3  1  0
  2  4  1  0
  4  5  2  0
  5  6  1  0
  6  7  2  0
  7  8  1  0
  8  9  1  0
  9 10  1  0
 10 11  1  0
 11 12  1  0
 12 13  1  6
 12 14  1  0
 14 15  1  1
 15 16  1  0
 16 17  1  1
 16 18  1  0
 18 19  1  0
 19 20  1  0
 20 21  1  0
 21 22  1  0
 22 23  1  0
 23 24  1  0
 24 25  1  0
 25 26  1  0
 26 27  2  0
 27 28  1  0
 28 29  2  0
 29 30  1  0
 30 31  1  0
 30 32  2  0
 28 33  1  0
 33 34  2  0
 33 35  1  0
  8 36  2  0
 32 26  1  0
 35 14  1  0
 36  4  1  0
M  END
$$$$
