
     RDKit          3D

 36 38  0  0  0  0  0  0  0  0999 V2000
  -14.2596  -33.8303  -11.8802 C   0  0  0  0  0  0  0  0  0  0  0  0
  -12.8829  -34.4502  -12.1045 C   0  0  0  0  0  0  0  0  0  0  0  0
  -12.4692  -34.1251  -13.5158 C   0  0  0  0  0  0  0  0  0  0  0  0
  -12.9310  -35.9113  -11.8426 C   0  0  0  0  0  0  0  0  0  0  0  0
  -12.6888  -36.7812  -12.8545 C   0  0  0  0  0  0  0  0  0  0  0  0
  -12.7303  -38.1369  -12.6268 C   0  0  0  0  0  0  0  0  0  0  0  0
  -13.0225  -38.6366  -11.3507 C   0  0  0  0  0  0  0  0  0  0  0  0
  -13.2666  -37.7604  -10.3312 C   0  0  0  0  0  0  0  0  0  0  0  0
  -13.5771  -38.3043   -8.9749 C   0  0  0  0  0  0  0  0  0  0  0  0
  -13.6986  -39.7254   -8.9932 N   0  0  0  0  0  0  0  0  0  0  0  0
  -14.9417  -40.3063   -8.6321 C   0  0  0  0  0  0  0  0  0  0  0  0
  -16.0951  -39.6538   -9.2942 C   0  0  1  0  0  0  0  0  0  0  0  0
  -16.2734  -40.1899  -10.5751 O   0  0  0  0  0  0  0  0  0  0  0  0
  -17.4106  -39.7648   -8.5077 C   0  0  2  0  0  0  0  0  0  0  0  0
  -18.5259  -39.3687   -9.4324 C   0  0  0  0  0  0  0  0  0  0  0  0
  -19.2414  -40.6147   -9.9835 C   0  0  2  0  0  0  0  0  0  0  0  0
  -19.3399  -40.6249  -11.4658 C   0  0  0  0  0  0  0  0  0  0  0  0
  -20.5345  -40.7420   -9.2661 C   0  0  0  0  0  0  0  0  0  0  0  0
  -21.5096  -41.6944   -9.8831 C   0  0  0  0  0  0  0  0  0  0  0  0
  -22.8169  -41.0844  -10.2848 C   0  0  0  0  0  0  0  0  0  0  0  0
  -23.9979  -41.5889   -9.4991 C   0  0  0  0  0  0  0  0  0  0  0  0
  -23.9683  -41.1924   -8.0507 C   0  0  0  0  0  0  0  0  0  0  0  0
  -24.7637  -39.9383   -7.7504 C   0  0  0  0  0  0  0  0  0  0  0  0
  -23.8691  -38.7777   -7.4835 C   0  0  0  0  0  0  0  0  0  0  0  0
  -23.1080  -38.8121   -6.3316 O   0  0  0  0  0  0  0  0  0  0  0  0
  -21.8500  -39.2997   -6.0030 C   0  0  0  0  0  0  0  0  0  0  0  0
  -20.6032  -38.8237   -6.3614 C   0  0  0  0  0  0  0  0  0  0  0  0
  -19.5165  -39.5179   -5.8837 C   0  0  0  0  0  0  0  0  0  0  0  0
  -19.7298  -40.6595   -5.0630 C   0  0  0  0  0  0  0  0  0  0  0  0
  -20.9779  -41.1191   -4.7149 C   0  0  0  0  0  0  0  0  0  0  0  0
  -21.1916  -42.5329   -3.6988 Cl  0  0  0  0  0  0  0  0  0  0  0  0
  -21.9875  -40.4209   -5.1991 N   0  0  0  0  0  0  0  0  0  0  0  0
  -18.0659  -39.3229   -6.0726 C   0  0  0  0  0  0  0  0  0  0  0  0
  -17.3699  -39.4183   -4.9635 O   0  0  0  0  0  0  0  0  0  0  0  0
  -17.3311  -39.0525   -7.2749 N   0  0  0  0  0  0  0  0  0  0  0  0
  -13.2208  -36.4135  -10.5766 C   0  0  0  0  0  0  0  0  0  0  0  0
  1  2  1  0
  2  3  1  0
  2  4  1  0
  4  5  2  0
  5  6  1  0
  6  7  2  0
  7  8  1  0
  8  9  1  0
  9 10  1  0
 10 11  1  0
 11 12  1  0
 12 13  1  6
 12 14  1  0
 14 15  1  6
 15 16  1  0
 16 17  1  6
 16 18  1  0
 18 19  1  0
 19 20  1  0
 20 21  1  0
 21 22  1  0
 22 23  1  0
 23 24  1  0
 24 25  1  0
 25 26  1  0
 26 27  2  0
 27 28  1  0
 28 29  2  0
 29 30  1  0
 30 31  1  0
 30 32  2  0
 28 33  1  0
 33 34  2  0
 33 35  1  0
  8 36  2  0
 32 26  1  0
 35 14  1  0
 36  4  1  0
M  END
$$$$
