
     RDKit          3D

 36 38  0  0  0  0  0  0  0  0999 V2000
  -11.4470  -35.1738  -12.0503 C   0  0  0  0  0  0  0  0  0  0  0  0
  -12.7245  -35.4663  -12.8329 C   0  0  0  0  0  0  0  0  0  0  0  0
  -13.7860  -34.5252  -12.3267 C   0  0  0  0  0  0  0  0  0  0  0  0
  -13.1028  -36.8942  -12.6793 C   0  0  0  0  0  0  0  0  0  0  0  0
  -13.3044  -37.6559  -13.7831 C   0  0  0  0  0  0  0  0  0  0  0  0
  -13.6555  -38.9796  -13.6562 C   0  0  0  0  0  0  0  0  0  0  0  0
  -13.8094  -39.5577  -12.3891 C   0  0  0  0  0  0  0  0  0  0  0  0
  -13.6064  -38.7905  -11.2769 C   0  0  0  0  0  0  0  0  0  0  0  0
  -13.7732  -39.4173   -9.9311 C   0  0  0  0  0  0  0  0  0  0  0  0
  -15.0987  -39.2472   -9.4324 N   0  0  0  0  0  0  0  0  0  0  0  0
  -15.3622  -38.1611   -8.5581 C   0  0  0  0  0  0  0  0  0  0  0  0
  -15.9024  -38.5951   -7.2488 C   0  0  1  0  0  0  0  0  0  0  0  0
  -16.3724  -37.4850   -6.5372 O   0  0  0  0  0  0  0  0  0  0  0  0
  -17.0199  -39.6448   -7.3521 C   0  0  2  0  0  0  0  0  0  0  0  0
  -17.9544  -39.4265   -6.1967 C   0  0  0  0  0  0  0  0  0  0  0  0
  -19.2095  -38.6611   -6.6517 C   0  0  2  0  0  0  0  0  0  0  0  0
  -19.4905  -37.4568   -5.8287 C   0  0  0  0  0  0  0  0  0  0  0  0
  -20.3231  -39.6387   -6.7374 C   0  0  0  0  0  0  0  0  0  0  0  0
  -21.6879  -39.0354   -6.8466 C   0  0  0  0  0  0  0  0  0  0  0  0
  -22.6320  -39.4112   -5.7468 C   0  0  0  0  0  0  0  0  0  0  0  0
  -23.8035  -40.2416   -6.1991 C   0  0  0  0  0  0  0  0  0  0  0  0
  -23.4177  -41.6111   -6.6803 C   0  0  0  0  0  0  0  0  0  0  0  0
  -23.5337  -42.6817   -5.6145 C   0  0  0  0  0  0  0  0  0  0  0  0
  -22.1933  -43.1126   -5.1282 C   0  0  0  0  0  0  0  0  0  0  0  0
  -21.3853  -43.7988   -6.0134 O   0  0  0  0  0  0  0  0  0  0  0  0
  -20.4403  -43.4326   -6.9628 C   0  0  0  0  0  0  0  0  0  0  0  0
  -19.1684  -42.9229   -6.7839 C   0  0  0  0  0  0  0  0  0  0  0  0
  -18.4477  -42.6477   -7.9222 C   0  0  0  0  0  0  0  0  0  0  0  0
  -19.0355  -42.8999   -9.1923 C   0  0  0  0  0  0  0  0  0  0  0  0
  -20.3027  -43.4087   -9.3525 C   0  0  0  0  0  0  0  0  0  0  0  0
  -20.9859  -43.7038  -10.9410 Cl  0  0  0  0  0  0  0  0  0  0  0  0
  -20.9540  -43.6542   -8.2314 N   0  0  0  0  0  0  0  0  0  0  0  0
  -17.0968  -42.0865   -8.1179 C   0  0  0  0  0  0  0  0  0  0  0  0
  -16.3789  -42.7322   -9.0075 O   0  0  0  0  0  0  0  0  0  0  0  0
  -16.4782  -40.9572   -7.4852 N   0  0  0  0  0  0  0  0  0  0  0  0
  -13.2571  -37.4740  -11.4228 C   0  0  0  0  0  0  0  0  0  0  0  0
  1  2  1  0
  2  3  1  0
  2  4  1  0
  4  5  2  0
  5  6  1  0
  6  7  2  0
  7  8  1  0
  8  9  1  0
  9 10  1  0
 10 11  1  0
 11 12  1  0
 12 13  1  6
 12 14  1  0
 14 15  1  1
 15 16  1  0
 16 17  1  1
 16 18  1  0
 18 19  1  0
 19 20  1  0
 20 21  1  0
 21 22  1  0
 22 23  1  0
 23 24  1  0
 24 25  1  0
 25 26  1  0
 26 27  2  0
 27 28  1  0
 28 29  2  0
 29 30  1  0
 30 31  1  0
 30 32  2  0
 28 33  1  0
 33 34  2  0
 33 35  1  0
  8 36  2  0
 32 26  1  0
 35 14  1  0
 36  4  1  0
M  END
$$$$
