
     RDKit          3D

 36 38  0  0  0  0  0  0  0  0999 V2000
  -24.7853  -39.7121   -5.1585 C   0  0  0  0  0  0  0  0  0  0  0  0
  -23.3625  -39.9938   -5.6344 C   0  0  0  0  0  0  0  0  0  0  0  0
  -23.4653  -40.7935   -6.9066 C   0  0  0  0  0  0  0  0  0  0  0  0
  -22.5985  -40.6985   -4.5736 C   0  0  0  0  0  0  0  0  0  0  0  0
  -23.1998  -41.6780   -3.8539 C   0  0  0  0  0  0  0  0  0  0  0  0
  -22.5048  -42.3389   -2.8681 C   0  0  0  0  0  0  0  0  0  0  0  0
  -21.1703  -42.0106   -2.5946 C   0  0  0  0  0  0  0  0  0  0  0  0
  -20.5643  -41.0237   -3.3196 C   0  0  0  0  0  0  0  0  0  0  0  0
  -19.1413  -40.6819   -3.0194 C   0  0  0  0  0  0  0  0  0  0  0  0
  -18.6032  -39.7777   -3.9824 N   0  0  0  0  0  0  0  0  0  0  0  0
  -18.4729  -40.2137   -5.3264 C   0  0  0  0  0  0  0  0  0  0  0  0
  -17.8262  -39.2053   -6.1978 C   0  0  1  0  0  0  0  0  0  0  0  0
  -16.5204  -38.9625   -5.7554 O   0  0  0  0  0  0  0  0  0  0  0  0
  -17.7968  -39.5925   -7.6845 C   0  0  2  0  0  0  0  0  0  0  0  0
  -18.5577  -38.5417   -8.4413 C   0  0  0  0  0  0  0  0  0  0  0  0
  -17.5908  -37.5518   -9.1147 C   0  0  2  0  0  0  0  0  0  0  0  0
  -17.8900  -36.1324   -8.7941 C   0  0  0  0  0  0  0  0  0  0  0  0
  -17.5554  -37.8759  -10.5627 C   0  0  0  0  0  0  0  0  0  0  0  0
  -16.9305  -36.8293  -11.4304 C   0  0  0  0  0  0  0  0  0  0  0  0
  -17.8286  -36.2730  -12.4916 C   0  0  0  0  0  0  0  0  0  0  0  0
  -17.3962  -36.5996  -13.8962 C   0  0  0  0  0  0  0  0  0  0  0  0
  -17.4884  -38.0616  -14.2276 C   0  0  0  0  0  0  0  0  0  0  0  0
  -18.7794  -38.4442  -14.9225 C   0  0  0  0  0  0  0  0  0  0  0  0
  -19.6882  -39.1911  -14.0089 C   0  0  0  0  0  0  0  0  0  0  0  0
  -19.2940  -40.4535  -13.6109 O   0  0  0  0  0  0  0  0  0  0  0  0
  -18.5369  -40.9579  -12.5617 C   0  0  0  0  0  0  0  0  0  0  0  0
  -18.8462  -41.0423  -11.2175 C   0  0  0  0  0  0  0  0  0  0  0  0
  -17.8908  -41.5954  -10.3976 C   0  0  0  0  0  0  0  0  0  0  0  0
  -16.6661  -42.0432  -10.9649 C   0  0  0  0  0  0  0  0  0  0  0  0
  -16.3748  -41.9528  -12.3055 C   0  0  0  0  0  0  0  0  0  0  0  0
  -14.8492  -42.5196  -12.9598 Cl  0  0  0  0  0  0  0  0  0  0  0  0
  -17.3217  -41.4135  -13.0497 N   0  0  0  0  0  0  0  0  0  0  0  0
  -17.8598  -41.8230   -8.9398 C   0  0  0  0  0  0  0  0  0  0  0  0
  -17.4267  -43.0145   -8.5989 O   0  0  0  0  0  0  0  0  0  0  0  0
  -18.2272  -40.9392   -7.8709 N   0  0  0  0  0  0  0  0  0  0  0  0
  -21.2722  -40.3764   -4.2975 C   0  0  0  0  0  0  0  0  0  0  0  0
  1  2  1  0
  2  3  1  0
  2  4  1  0
  4  5  2  0
  5  6  1  0
  6  7  2  0
  7  8  1  0
  8  9  1  0
  9 10  1  0
 10 11  1  0
 11 12  1  0
 12 13  1  1
 12 14  1  0
 14 15  1  6
 15 16  1  0
 16 17  1  6
 16 18  1  0
 18 19  1  0
 19 20  1  0
 20 21  1  0
 21 22  1  0
 22 23  1  0
 23 24  1  0
 24 25  1  0
 25 26  1  0
 26 27  2  0
 27 28  1  0
 28 29  2  0
 29 30  1  0
 30 31  1  0
 30 32  2  0
 28 33  1  0
 33 34  2  0
 33 35  1  0
  8 36  2  0
 32 26  1  0
 35 14  1  0
 36  4  1  0
M  END
$$$$
