
     RDKit          3D

 36 38  0  0  0  0  0  0  0  0999 V2000
  -11.8602  -35.2952  -13.1708 C   0  0  0  0  0  0  0  0  0  0  0  0
  -13.1853  -35.8959  -13.6325 C   0  0  0  0  0  0  0  0  0  0  0  0
  -14.2710  -34.9149  -13.2754 C   0  0  0  0  0  0  0  0  0  0  0  0
  -13.3878  -37.2284  -13.0088 C   0  0  0  0  0  0  0  0  0  0  0  0
  -13.8297  -38.2623  -13.7669 C   0  0  0  0  0  0  0  0  0  0  0  0
  -14.0222  -39.5018  -13.2028 C   0  0  0  0  0  0  0  0  0  0  0  0
  -13.7652  -39.7129  -11.8415 C   0  0  0  0  0  0  0  0  0  0  0  0
  -13.3199  -38.6714  -11.0776 C   0  0  0  0  0  0  0  0  0  0  0  0
  -13.0493  -38.9078   -9.6275 C   0  0  0  0  0  0  0  0  0  0  0  0
  -14.0353  -38.2918   -8.8012 N   0  0  0  0  0  0  0  0  0  0  0  0
  -15.3711  -38.7658   -8.8679 C   0  0  0  0  0  0  0  0  0  0  0  0
  -15.9797  -38.9595   -7.5312 C   0  0  1  0  0  0  0  0  0  0  0  0
  -16.5441  -37.7577   -7.0875 O   0  0  0  0  0  0  0  0  0  0  0  0
  -17.0416  -40.0692   -7.4842 C   0  0  2  0  0  0  0  0  0  0  0  0
  -17.7789  -39.9356   -6.1825 C   0  0  0  0  0  0  0  0  0  0  0  0
  -19.1313  -39.2328   -6.3952 C   0  0  2  0  0  0  0  0  0  0  0  0
  -19.3333  -38.0686   -5.4948 C   0  0  0  0  0  0  0  0  0  0  0  0
  -20.1901  -40.2708   -6.3289 C   0  0  0  0  0  0  0  0  0  0  0  0
  -21.5839  -39.7451   -6.1883 C   0  0  0  0  0  0  0  0  0  0  0  0
  -22.3086  -40.2035   -4.9607 C   0  0  0  0  0  0  0  0  0  0  0  0
  -23.4938  -41.0884   -5.2409 C   0  0  0  0  0  0  0  0  0  0  0  0
  -23.1226  -42.4203   -5.8277 C   0  0  0  0  0  0  0  0  0  0  0  0
  -23.0010  -43.5232   -4.7959 C   0  0  0  0  0  0  0  0  0  0  0  0
  -21.5771  -43.8880   -4.5549 C   0  0  0  0  0  0  0  0  0  0  0  0
  -20.8942  -44.5029   -5.5858 O   0  0  0  0  0  0  0  0  0  0  0  0
  -20.1428  -44.0580   -6.6656 C   0  0  0  0  0  0  0  0  0  0  0  0
  -18.8877  -43.4802   -6.6828 C   0  0  0  0  0  0  0  0  0  0  0  0
  -18.3841  -43.1341   -7.9147 C   0  0  0  0  0  0  0  0  0  0  0  0
  -19.1628  -43.3869   -9.0774 C   0  0  0  0  0  0  0  0  0  0  0  0
  -20.4102  -43.9641   -9.0425 C   0  0  0  0  0  0  0  0  0  0  0  0
  -21.3340  -44.2569  -10.5046 Cl  0  0  0  0  0  0  0  0  0  0  0  0
  -20.8499  -44.2760   -7.8381 N   0  0  0  0  0  0  0  0  0  0  0  0
  -17.1169  -42.4906   -8.3124 C   0  0  0  0  0  0  0  0  0  0  0  0
  -16.5255  -43.0701   -9.3312 O   0  0  0  0  0  0  0  0  0  0  0  0
  -16.4613  -41.3440   -7.7518 N   0  0  0  0  0  0  0  0  0  0  0  0
  -13.1340  -37.4440  -11.6567 C   0  0  0  0  0  0  0  0  0  0  0  0
  1  2  1  0
  2  3  1  0
  2  4  1  0
  4  5  2  0
  5  6  1  0
  6  7  2  0
  7  8  1  0
  8  9  1  0
  9 10  1  0
 10 11  1  0
 11 12  1  0
 12 13  1  6
 12 14  1  0
 14 15  1  1
 15 16  1  0
 16 17  1  1
 16 18  1  0
 18 19  1  0
 19 20  1  0
 20 21  1  0
 21 22  1  0
 22 23  1  0
 23 24  1  0
 24 25  1  0
 25 26  1  0
 26 27  2  0
 27 28  1  0
 28 29  2  0
 29 30  1  0
 30 31  1  0
 30 32  2  0
 28 33  1  0
 33 34  2  0
 33 35  1  0
  8 36  2  0
 32 26  1  0
 35 14  1  0
 36  4  1  0
M  END
$$$$
