
     RDKit          3D

 36 38  0  0  0  0  0  0  0  0999 V2000
  -12.7493  -33.8579  -12.1455 C   0  0  0  0  0  0  0  0  0  0  0  0
  -12.3569  -35.2434  -12.6520 C   0  0  0  0  0  0  0  0  0  0  0  0
  -12.3469  -35.1844  -14.1571 C   0  0  0  0  0  0  0  0  0  0  0  0
  -13.2957  -36.2658  -12.1239 C   0  0  0  0  0  0  0  0  0  0  0  0
  -14.0872  -36.9551  -12.9827 C   0  0  0  0  0  0  0  0  0  0  0  0
  -14.9616  -37.9046  -12.5080 C   0  0  0  0  0  0  0  0  0  0  0  0
  -15.0467  -38.1722  -11.1351 C   0  0  0  0  0  0  0  0  0  0  0  0
  -14.2493  -37.4778  -10.2698 C   0  0  0  0  0  0  0  0  0  0  0  0
  -14.3484  -37.7712   -8.8082 C   0  0  0  0  0  0  0  0  0  0  0  0
  -15.5330  -37.2164   -8.2396 N   0  0  0  0  0  0  0  0  0  0  0  0
  -16.5834  -38.0941   -7.8657 C   0  0  0  0  0  0  0  0  0  0  0  0
  -16.0962  -39.4312   -7.4542 C   0  0  1  0  0  0  0  0  0  0  0  0
  -15.4302  -39.3370   -6.2264 O   0  0  0  0  0  0  0  0  0  0  0  0
  -17.2013  -40.4942   -7.3542 C   0  0  2  0  0  0  0  0  0  0  0  0
  -18.1531  -40.0580   -6.2773 C   0  0  0  0  0  0  0  0  0  0  0  0
  -19.4100  -39.4170   -6.8918 C   0  0  2  0  0  0  0  0  0  0  0  0
  -19.7143  -38.0744   -6.3335 C   0  0  0  0  0  0  0  0  0  0  0  0
  -20.5122  -40.4058   -6.7892 C   0  0  0  0  0  0  0  0  0  0  0  0
  -21.8816  -39.8547   -7.0334 C   0  0  0  0  0  0  0  0  0  0  0  0
  -22.8362  -40.0116   -5.8904 C   0  0  0  0  0  0  0  0  0  0  0  0
  -23.9929  -40.9314   -6.1773 C   0  0  0  0  0  0  0  0  0  0  0  0
  -23.5868  -42.3650   -6.3662 C   0  0  0  0  0  0  0  0  0  0  0  0
  -23.7057  -43.1985   -5.1065 C   0  0  0  0  0  0  0  0  0  0  0  0
  -22.3674  -43.5046   -4.5285 C   0  0  0  0  0  0  0  0  0  0  0  0
  -21.5407  -44.3457   -5.2472 O   0  0  0  0  0  0  0  0  0  0  0  0
  -20.5872  -44.1677   -6.2409 C   0  0  0  0  0  0  0  0  0  0  0  0
  -19.3231  -43.6160   -6.1554 C   0  0  0  0  0  0  0  0  0  0  0  0
  -18.5903  -43.5683   -7.3181 C   0  0  0  0  0  0  0  0  0  0  0  0
  -19.1588  -44.0805   -8.5168 C   0  0  0  0  0  0  0  0  0  0  0  0
  -20.4184  -44.6274   -8.5840 C   0  0  0  0  0  0  0  0  0  0  0  0
  -21.0775  -45.2474  -10.0867 Cl  0  0  0  0  0  0  0  0  0  0  0  0
  -21.0818  -44.6487   -7.4435 N   0  0  0  0  0  0  0  0  0  0  0  0
  -17.2429  -43.0413   -7.6091 C   0  0  0  0  0  0  0  0  0  0  0  0
  -16.5067  -43.8447   -8.3412 O   0  0  0  0  0  0  0  0  0  0  0  0
  -16.6444  -41.7992   -7.2122 N   0  0  0  0  0  0  0  0  0  0  0  0
  -13.3844  -36.5359  -10.7608 C   0  0  0  0  0  0  0  0  0  0  0  0
  1  2  1  0
  2  3  1  0
  2  4  1  0
  4  5  2  0
  5  6  1  0
  6  7  2  0
  7  8  1  0
  8  9  1  0
  9 10  1  0
 10 11  1  0
 11 12  1  0
 12 13  1  1
 12 14  1  0
 14 15  1  1
 15 16  1  0
 16 17  1  1
 16 18  1  0
 18 19  1  0
 19 20  1  0
 20 21  1  0
 21 22  1  0
 22 23  1  0
 23 24  1  0
 24 25  1  0
 25 26  1  0
 26 27  2  0
 27 28  1  0
 28 29  2  0
 29 30  1  0
 30 31  1  0
 30 32  2  0
 28 33  1  0
 33 34  2  0
 33 35  1  0
  8 36  2  0
 32 26  1  0
 35 14  1  0
 36  4  1  0
M  END
$$$$
