
     RDKit          3D

 36 38  0  0  0  0  0  0  0  0999 V2000
  -23.0540  -41.7718   -6.5063 C   0  0  0  0  0  0  0  0  0  0  0  0
  -22.8345  -41.1630   -5.1238 C   0  0  0  0  0  0  0  0  0  0  0  0
  -24.1757  -40.6978   -4.6206 C   0  0  0  0  0  0  0  0  0  0  0  0
  -21.8378  -40.0647   -5.2009 C   0  0  0  0  0  0  0  0  0  0  0  0
  -22.1633  -38.9082   -5.8300 C   0  0  0  0  0  0  0  0  0  0  0  0
  -21.2504  -37.8827   -5.9095 C   0  0  0  0  0  0  0  0  0  0  0  0
  -19.9757  -38.0178   -5.3435 C   0  0  0  0  0  0  0  0  0  0  0  0
  -19.6476  -39.1829   -4.7097 C   0  0  0  0  0  0  0  0  0  0  0  0
  -18.2858  -39.3160   -4.1100 C   0  0  0  0  0  0  0  0  0  0  0  0
  -17.4109  -40.0639   -4.9525 N   0  0  0  0  0  0  0  0  0  0  0  0
  -16.4235  -39.3676   -5.6966 C   0  0  0  0  0  0  0  0  0  0  0  0
  -16.8399  -39.0973   -7.0924 C   0  0  1  0  0  0  0  0  0  0  0  0
  -15.7480  -38.6265   -7.8312 O   0  0  0  0  0  0  0  0  0  0  0  0
  -17.4529  -40.3119   -7.8068 C   0  0  2  0  0  0  0  0  0  0  0  0
  -18.3323  -39.7931   -8.9084 C   0  0  0  0  0  0  0  0  0  0  0  0
  -17.6140  -39.8890  -10.2660 C   0  0  2  0  0  0  0  0  0  0  0  0
  -17.6003  -38.6047  -11.0124 C   0  0  0  0  0  0  0  0  0  0  0  0
  -18.1991  -41.0380  -11.0013 C   0  0  0  0  0  0  0  0  0  0  0  0
  -17.8635  -41.0940  -12.4583 C   0  0  0  0  0  0  0  0  0  0  0  0
  -19.0445  -41.0568  -13.3781 C   0  0  0  0  0  0  0  0  0  0  0  0
  -19.2515  -42.3238  -14.1644 C   0  0  0  0  0  0  0  0  0  0  0  0
  -19.6301  -43.5025  -13.3140 C   0  0  0  0  0  0  0  0  0  0  0  0
  -21.1251  -43.7359  -13.2348 C   0  0  0  0  0  0  0  0  0  0  0  0
  -21.6672  -43.3426  -11.9043 C   0  0  0  0  0  0  0  0  0  0  0  0
  -21.2887  -44.1002  -10.8134 O   0  0  0  0  0  0  0  0  0  0  0  0
  -20.2350  -44.0583   -9.9099 C   0  0  0  0  0  0  0  0  0  0  0  0
  -19.9859  -43.1559   -8.8934 C   0  0  0  0  0  0  0  0  0  0  0  0
  -18.8493  -43.3640   -8.1478 C   0  0  0  0  0  0  0  0  0  0  0  0
  -18.0131  -44.4727   -8.4541 C   0  0  0  0  0  0  0  0  0  0  0  0
  -18.2765  -45.3621   -9.4689 C   0  0  0  0  0  0  0  0  0  0  0  0
  -17.2149  -46.7164   -9.8092 Cl  0  0  0  0  0  0  0  0  0  0  0  0
  -19.3765  -45.1189  -10.1559 N   0  0  0  0  0  0  0  0  0  0  0  0
  -18.2609  -42.6113   -7.0230 C   0  0  0  0  0  0  0  0  0  0  0  0
  -17.8622  -43.3704   -6.0288 O   0  0  0  0  0  0  0  0  0  0  0  0
  -18.0681  -41.1974   -6.8736 N   0  0  0  0  0  0  0  0  0  0  0  0
  -20.5697  -40.1934   -4.6403 C   0  0  0  0  0  0  0  0  0  0  0  0
  1  2  1  0
  2  3  1  0
  2  4  1  0
  4  5  2  0
  5  6  1  0
  6  7  2  0
  7  8  1  0
  8  9  1  0
  9 10  1  0
 10 11  1  0
 11 12  1  0
 12 13  1  6
 12 14  1  0
 14 15  1  6
 15 16  1  0
 16 17  1  6
 16 18  1  0
 18 19  1  0
 19 20  1  0
 20 21  1  0
 21 22  1  0
 22 23  1  0
 23 24  1  0
 24 25  1  0
 25 26  1  0
 26 27  2  0
 27 28  1  0
 28 29  2  0
 29 30  1  0
 30 31  1  0
 30 32  2  0
 28 33  1  0
 33 34  2  0
 33 35  1  0
  8 36  2  0
 32 26  1  0
 35 14  1  0
 36  4  1  0
M  END
$$$$
