
     RDKit          3D

 36 38  0  0  0  0  0  0  0  0999 V2000
  -17.5812  -38.1550  -14.2982 C   0  0  0  0  0  0  0  0  0  0  0  0
  -18.5098  -37.0778  -13.7439 C   0  0  0  0  0  0  0  0  0  0  0  0
  -18.8037  -36.1180  -14.8669 C   0  0  0  0  0  0  0  0  0  0  0  0
  -17.8827  -36.4154  -12.5720 C   0  0  0  0  0  0  0  0  0  0  0  0
  -18.3056  -35.1837  -12.1934 C   0  0  0  0  0  0  0  0  0  0  0  0
  -17.7338  -34.5580  -11.1103 C   0  0  0  0  0  0  0  0  0  0  0  0
  -16.7098  -35.1820  -10.3854 C   0  0  0  0  0  0  0  0  0  0  0  0
  -16.2836  -36.4229  -10.7667 C   0  0  0  0  0  0  0  0  0  0  0  0
  -15.1912  -37.0787   -9.9866 C   0  0  0  0  0  0  0  0  0  0  0  0
  -15.3467  -38.4962   -9.9535 N   0  0  0  0  0  0  0  0  0  0  0  0
  -16.5816  -39.0346   -9.5079 C   0  0  0  0  0  0  0  0  0  0  0  0
  -16.4119  -40.0874   -8.4795 C   0  0  1  0  0  0  0  0  0  0  0  0
  -15.6753  -39.5837   -7.4009 O   0  0  0  0  0  0  0  0  0  0  0  0
  -17.7350  -40.6741   -7.9634 C   0  0  2  0  0  0  0  0  0  0  0  0
  -17.9917  -41.9463   -8.7194 C   0  0  0  0  0  0  0  0  0  0  0  0
  -17.6059  -43.1695   -7.8690 C   0  0  2  0  0  0  0  0  0  0  0  0
  -16.6835  -44.1006   -8.5684 C   0  0  0  0  0  0  0  0  0  0  0  0
  -18.8627  -43.7835   -7.3724 C   0  0  0  0  0  0  0  0  0  0  0  0
  -18.7131  -45.1590   -6.8029 C   0  0  0  0  0  0  0  0  0  0  0  0
  -19.5220  -46.2158   -7.4893 C   0  0  0  0  0  0  0  0  0  0  0  0
  -20.6065  -46.8131   -6.6329 C   0  0  0  0  0  0  0  0  0  0  0  0
  -21.6997  -45.8432   -6.2862 C   0  0  0  0  0  0  0  0  0  0  0  0
  -22.8931  -45.9190   -7.2165 C   0  0  0  0  0  0  0  0  0  0  0  0
  -22.9428  -44.7467   -8.1342 C   0  0  0  0  0  0  0  0  0  0  0  0
  -23.2036  -43.5111   -7.5750 O   0  0  0  0  0  0  0  0  0  0  0  0
  -22.4251  -42.4989   -7.0294 C   0  0  0  0  0  0  0  0  0  0  0  0
  -21.5703  -41.6135   -7.6580 C   0  0  0  0  0  0  0  0  0  0  0  0
  -20.9209  -40.7061   -6.8542 C   0  0  0  0  0  0  0  0  0  0  0  0
  -21.1613  -40.7255   -5.4527 C   0  0  0  0  0  0  0  0  0  0  0  0
  -22.0164  -41.6131   -4.8434 C   0  0  0  0  0  0  0  0  0  0  0  0
  -22.2815  -41.5986   -3.1095 Cl  0  0  0  0  0  0  0  0  0  0  0  0
  -22.6135  -42.4641   -5.6562 N   0  0  0  0  0  0  0  0  0  0  0  0
  -19.9392  -39.6479   -7.1614 C   0  0  0  0  0  0  0  0  0  0  0  0
  -20.1899  -38.5043   -6.5674 O   0  0  0  0  0  0  0  0  0  0  0  0
  -18.7752  -39.6993   -7.9987 N   0  0  0  0  0  0  0  0  0  0  0  0
  -16.8648  -37.0307  -11.8479 C   0  0  0  0  0  0  0  0  0  0  0  0
  1  2  1  0
  2  3  1  0
  2  4  1  0
  4  5  2  0
  5  6  1  0
  6  7  2  0
  7  8  1  0
  8  9  1  0
  9 10  1  0
 10 11  1  0
 11 12  1  0
 12 13  1  1
 12 14  1  0
 14 15  1  6
 15 16  1  0
 16 17  1  6
 16 18  1  0
 18 19  1  0
 19 20  1  0
 20 21  1  0
 21 22  1  0
 22 23  1  0
 23 24  1  0
 24 25  1  0
 25 26  1  0
 26 27  2  0
 27 28  1  0
 28 29  2  0
 29 30  1  0
 30 31  1  0
 30 32  2  0
 28 33  1  0
 33 34  2  0
 33 35  1  0
  8 36  2  0
 32 26  1  0
 35 14  1  0
 36  4  1  0
M  END
$$$$
