
     RDKit          3D

 36 38  0  0  0  0  0  0  0  0999 V2000
   -9.2961  -37.1931  -11.9069 C   0  0  0  0  0  0  0  0  0  0  0  0
  -10.3147  -36.9429  -13.0158 C   0  0  0  0  0  0  0  0  0  0  0  0
  -10.2218  -35.4869  -13.3900 C   0  0  0  0  0  0  0  0  0  0  0  0
  -11.6733  -37.3327  -12.5599 C   0  0  0  0  0  0  0  0  0  0  0  0
  -12.5198  -37.9449  -13.4247 C   0  0  0  0  0  0  0  0  0  0  0  0
  -13.7810  -38.3112  -13.0166 C   0  0  0  0  0  0  0  0  0  0  0  0
  -14.2076  -38.0580  -11.7061 C   0  0  0  0  0  0  0  0  0  0  0  0
  -13.3550  -37.4413  -10.8347 C   0  0  0  0  0  0  0  0  0  0  0  0
  -13.8204  -37.1762   -9.4400 C   0  0  0  0  0  0  0  0  0  0  0  0
  -13.6839  -38.3295   -8.6119 N   0  0  0  0  0  0  0  0  0  0  0  0
  -14.6903  -39.3283   -8.6656 C   0  0  0  0  0  0  0  0  0  0  0  0
  -15.9521  -38.9086   -8.0126 C   0  0  1  0  0  0  0  0  0  0  0  0
  -16.4762  -37.7879   -8.6676 O   0  0  0  0  0  0  0  0  0  0  0  0
  -17.0210  -40.0110   -7.9543 C   0  0  2  0  0  0  0  0  0  0  0  0
  -17.7541  -39.8626   -6.6519 C   0  0  0  0  0  0  0  0  0  0  0  0
  -19.1025  -39.1527   -6.8666 C   0  0  2  0  0  0  0  0  0  0  0  0
  -19.2947  -37.9803   -5.9747 C   0  0  0  0  0  0  0  0  0  0  0  0
  -20.1679  -40.1833   -6.7896 C   0  0  0  0  0  0  0  0  0  0  0  0
  -21.5578  -39.6474   -6.6496 C   0  0  0  0  0  0  0  0  0  0  0  0
  -22.2823  -40.0917   -5.4167 C   0  0  0  0  0  0  0  0  0  0  0  0
  -23.4740  -40.9711   -5.6872 C   0  0  0  0  0  0  0  0  0  0  0  0
  -23.1128  -42.3098   -6.2645 C   0  0  0  0  0  0  0  0  0  0  0  0
  -22.9958  -43.4054   -5.2245 C   0  0  0  0  0  0  0  0  0  0  0  0
  -21.5737  -43.7776   -4.9843 C   0  0  0  0  0  0  0  0  0  0  0  0
  -20.8973  -44.4049   -6.0121 O   0  0  0  0  0  0  0  0  0  0  0  0
  -20.1459  -43.9732   -7.0972 C   0  0  0  0  0  0  0  0  0  0  0  0
  -18.8871  -43.4036   -7.1219 C   0  0  0  0  0  0  0  0  0  0  0  0
  -18.3844  -43.0704   -8.3578 C   0  0  0  0  0  0  0  0  0  0  0  0
  -19.1677  -43.3271   -9.5166 C   0  0  0  0  0  0  0  0  0  0  0  0
  -20.4187  -43.8959   -9.4741 C   0  0  0  0  0  0  0  0  0  0  0  0
  -21.3481  -44.1940  -10.9316 Cl  0  0  0  0  0  0  0  0  0  0  0  0
  -20.8573  -44.1957   -8.2662 N   0  0  0  0  0  0  0  0  0  0  0  0
  -17.1141  -42.4382   -8.7636 C   0  0  0  0  0  0  0  0  0  0  0  0
  -16.5291  -43.0294   -9.7793 O   0  0  0  0  0  0  0  0  0  0  0  0
  -16.4497  -41.2916   -8.2135 N   0  0  0  0  0  0  0  0  0  0  0  0
  -12.1026  -37.0837  -11.2589 C   0  0  0  0  0  0  0  0  0  0  0  0
  1  2  1  0
  2  3  1  0
  2  4  1  0
  4  5  2  0
  5  6  1  0
  6  7  2  0
  7  8  1  0
  8  9  1  0
  9 10  1  0
 10 11  1  0
 11 12  1  0
 12 13  1  6
 12 14  1  0
 14 15  1  1
 15 16  1  0
 16 17  1  1
 16 18  1  0
 18 19  1  0
 19 20  1  0
 20 21  1  0
 21 22  1  0
 22 23  1  0
 23 24  1  0
 24 25  1  0
 25 26  1  0
 26 27  2  0
 27 28  1  0
 28 29  2  0
 29 30  1  0
 30 31  1  0
 30 32  2  0
 28 33  1  0
 33 34  2  0
 33 35  1  0
  8 36  2  0
 32 26  1  0
 35 14  1  0
 36  4  1  0
M  END
$$$$
