
     RDKit          3D

 36 38  0  0  0  0  0  0  0  0999 V2000
  -11.2355  -33.5422  -11.5840 C   0  0  0  0  0  0  0  0  0  0  0  0
  -12.7596  -33.5897  -11.6536 C   0  0  0  0  0  0  0  0  0  0  0  0
  -13.2829  -33.2014  -10.2957 C   0  0  0  0  0  0  0  0  0  0  0  0
  -13.2103  -34.9397  -12.0779 C   0  0  0  0  0  0  0  0  0  0  0  0
  -13.4730  -35.1770  -13.3871 C   0  0  0  0  0  0  0  0  0  0  0  0
  -13.8916  -36.4221  -13.7945 C   0  0  0  0  0  0  0  0  0  0  0  0
  -14.0519  -37.4593  -12.8659 C   0  0  0  0  0  0  0  0  0  0  0  0
  -13.7873  -37.2203  -11.5470 C   0  0  0  0  0  0  0  0  0  0  0  0
  -13.9618  -38.3333  -10.5658 C   0  0  0  0  0  0  0  0  0  0  0  0
  -14.4551  -37.8587   -9.3145 N   0  0  0  0  0  0  0  0  0  0  0  0
  -15.1869  -38.7514   -8.4892 C   0  0  0  0  0  0  0  0  0  0  0  0
  -16.6355  -38.7637   -8.7986 C   0  0  1  0  0  0  0  0  0  0  0  0
  -16.8281  -38.6181  -10.1776 O   0  0  0  0  0  0  0  0  0  0  0  0
  -17.3666  -40.0247   -8.3123 C   0  0  2  0  0  0  0  0  0  0  0  0
  -18.2035  -39.6345   -7.1277 C   0  0  0  0  0  0  0  0  0  0  0  0
  -19.6750  -39.4528   -7.5398 C   0  0  2  0  0  0  0  0  0  0  0  0
  -20.2412  -38.1436   -7.1246 C   0  0  0  0  0  0  0  0  0  0  0  0
  -20.4235  -40.6421   -7.0620 C   0  0  0  0  0  0  0  0  0  0  0  0
  -21.9130  -40.5014   -7.0793 C   0  0  0  0  0  0  0  0  0  0  0  0
  -22.5759  -40.6624   -5.7463 C   0  0  0  0  0  0  0  0  0  0  0  0
  -23.4619  -41.8752   -5.6427 C   0  0  0  0  0  0  0  0  0  0  0  0
  -22.7109  -43.1742   -5.7103 C   0  0  0  0  0  0  0  0  0  0  0  0
  -22.3755  -43.7506   -4.3498 C   0  0  0  0  0  0  0  0  0  0  0  0
  -20.9266  -43.6013   -4.0380 C   0  0  0  0  0  0  0  0  0  0  0  0
  -20.0340  -44.3373   -4.7922 O   0  0  0  0  0  0  0  0  0  0  0  0
  -19.3524  -44.1276   -5.9837 C   0  0  0  0  0  0  0  0  0  0  0  0
  -18.2968  -43.2773   -6.2530 C   0  0  0  0  0  0  0  0  0  0  0  0
  -17.8166  -43.2781   -7.5416 C   0  0  0  0  0  0  0  0  0  0  0  0
  -18.4161  -44.1365   -8.5039 C   0  0  0  0  0  0  0  0  0  0  0  0
  -19.4656  -44.9776   -8.2186 C   0  0  0  0  0  0  0  0  0  0  0  0
  -20.1728  -46.0196   -9.4397 Cl  0  0  0  0  0  0  0  0  0  0  0  0
  -19.8915  -44.9390   -6.9703 N   0  0  0  0  0  0  0  0  0  0  0  0
  -16.7398  -42.5039   -8.1891 C   0  0  0  0  0  0  0  0  0  0  0  0
  -15.9454  -43.2289   -8.9420 O   0  0  0  0  0  0  0  0  0  0  0  0
  -16.4524  -41.1004   -8.1111 N   0  0  0  0  0  0  0  0  0  0  0  0
  -13.3714  -35.9740  -11.1597 C   0  0  0  0  0  0  0  0  0  0  0  0
  1  2  1  0
  2  3  1  0
  2  4  1  0
  4  5  2  0
  5  6  1  0
  6  7  2  0
  7  8  1  0
  8  9  1  0
  9 10  1  0
 10 11  1  0
 11 12  1  0
 12 13  1  6
 12 14  1  0
 14 15  1  1
 15 16  1  0
 16 17  1  1
 16 18  1  0
 18 19  1  0
 19 20  1  0
 20 21  1  0
 21 22  1  0
 22 23  1  0
 23 24  1  0
 24 25  1  0
 25 26  1  0
 26 27  2  0
 27 28  1  0
 28 29  2  0
 29 30  1  0
 30 31  1  0
 30 32  2  0
 28 33  1  0
 33 34  2  0
 33 35  1  0
  8 36  2  0
 32 26  1  0
 35 14  1  0
 36  4  1  0
M  END
$$$$
