
     RDKit          3D

 36 38  0  0  0  0  0  0  0  0999 V2000
  -10.6916  -35.6504  -13.9979 C   0  0  0  0  0  0  0  0  0  0  0  0
  -12.2160  -35.6834  -13.9267 C   0  0  0  0  0  0  0  0  0  0  0  0
  -12.6651  -34.3786  -13.3228 C   0  0  0  0  0  0  0  0  0  0  0  0
  -12.6662  -36.8629  -13.1446 C   0  0  0  0  0  0  0  0  0  0  0  0
  -13.1685  -37.9435  -13.7921 C   0  0  0  0  0  0  0  0  0  0  0  0
  -13.5897  -39.0427  -13.0809 C   0  0  0  0  0  0  0  0  0  0  0  0
  -13.5060  -39.0616  -11.6823 C   0  0  0  0  0  0  0  0  0  0  0  0
  -12.9999  -37.9730  -11.0298 C   0  0  0  0  0  0  0  0  0  0  0  0
  -12.9154  -38.0040   -9.5386 C   0  0  0  0  0  0  0  0  0  0  0  0
  -14.1899  -37.7900   -8.9350 N   0  0  0  0  0  0  0  0  0  0  0  0
  -15.1618  -38.8208   -9.0145 C   0  0  0  0  0  0  0  0  0  0  0  0
  -16.0533  -38.8627   -7.8322 C   0  0  1  0  0  0  0  0  0  0  0  0
  -16.5622  -37.5841   -7.5752 O   0  0  0  0  0  0  0  0  0  0  0  0
  -17.2171  -39.8575   -7.9635 C   0  0  2  0  0  0  0  0  0  0  0  0
  -17.9480  -39.8751   -6.6515 C   0  0  0  0  0  0  0  0  0  0  0  0
  -19.2251  -39.0201   -6.7309 C   0  0  2  0  0  0  0  0  0  0  0  0
  -19.3213  -38.0103   -5.6456 C   0  0  0  0  0  0  0  0  0  0  0  0
  -20.3791  -39.9481   -6.8312 C   0  0  0  0  0  0  0  0  0  0  0  0
  -21.7170  -39.3224   -6.5918 C   0  0  0  0  0  0  0  0  0  0  0  0
  -22.4916  -39.9095   -5.4527 C   0  0  0  0  0  0  0  0  0  0  0  0
  -23.7542  -40.6168   -5.8676 C   0  0  0  0  0  0  0  0  0  0  0  0
  -23.5080  -41.8601   -6.6735 C   0  0  0  0  0  0  0  0  0  0  0  0
  -23.5007  -43.1276   -5.8434 C   0  0  0  0  0  0  0  0  0  0  0  0
  -22.1203  -43.6626   -5.6797 C   0  0  0  0  0  0  0  0  0  0  0  0
  -21.4917  -44.1576   -6.8054 O   0  0  0  0  0  0  0  0  0  0  0  0
  -20.6930  -43.6113   -7.8014 C   0  0  0  0  0  0  0  0  0  0  0  0
  -19.3880  -43.1618   -7.7319 C   0  0  0  0  0  0  0  0  0  0  0  0
  -18.8443  -42.6630   -8.8923 C   0  0  0  0  0  0  0  0  0  0  0  0
  -19.6348  -42.6404  -10.0742 C   0  0  0  0  0  0  0  0  0  0  0  0
  -20.9321  -43.0929  -10.1261 C   0  0  0  0  0  0  0  0  0  0  0  0
  -21.8686  -43.0453  -11.6085 Cl  0  0  0  0  0  0  0  0  0  0  0  0
  -21.4088  -43.5598   -8.9876 N   0  0  0  0  0  0  0  0  0  0  0  0
  -17.5182  -42.0862   -9.1870 C   0  0  0  0  0  0  0  0  0  0  0  0
  -16.9775  -42.5398  -10.2940 O   0  0  0  0  0  0  0  0  0  0  0  0
  -16.7599  -41.1187   -8.4471 N   0  0  0  0  0  0  0  0  0  0  0  0
  -12.5854  -36.8872  -11.7547 C   0  0  0  0  0  0  0  0  0  0  0  0
  1  2  1  0
  2  3  1  0
  2  4  1  0
  4  5  2  0
  5  6  1  0
  6  7  2  0
  7  8  1  0
  8  9  1  0
  9 10  1  0
 10 11  1  0
 11 12  1  0
 12 13  1  6
 12 14  1  0
 14 15  1  1
 15 16  1  0
 16 17  1  1
 16 18  1  0
 18 19  1  0
 19 20  1  0
 20 21  1  0
 21 22  1  0
 22 23  1  0
 23 24  1  0
 24 25  1  0
 25 26  1  0
 26 27  2  0
 27 28  1  0
 28 29  2  0
 29 30  1  0
 30 31  1  0
 30 32  2  0
 28 33  1  0
 33 34  2  0
 33 35  1  0
  8 36  2  0
 32 26  1  0
 35 14  1  0
 36  4  1  0
M  END
$$$$
