
     RDKit          3D

 36 38  0  0  0  0  0  0  0  0999 V2000
   -9.8371  -40.2310  -13.9277 C   0  0  0  0  0  0  0  0  0  0  0  0
  -10.2368  -40.7218  -12.5387 C   0  0  0  0  0  0  0  0  0  0  0  0
   -9.8650  -42.1790  -12.4539 C   0  0  0  0  0  0  0  0  0  0  0  0
  -11.6849  -40.4847  -12.3095 C   0  0  0  0  0  0  0  0  0  0  0  0
  -12.5961  -41.0619  -13.1314 C   0  0  0  0  0  0  0  0  0  0  0  0
  -13.9404  -40.8509  -12.9315 C   0  0  0  0  0  0  0  0  0  0  0  0
  -14.3857  -40.0394  -11.8794 C   0  0  0  0  0  0  0  0  0  0  0  0
  -13.4677  -39.4579  -11.0513 C   0  0  0  0  0  0  0  0  0  0  0  0
  -13.9537  -38.5947   -9.9330 C   0  0  0  0  0  0  0  0  0  0  0  0
  -15.3730  -38.4543   -9.9556 N   0  0  0  0  0  0  0  0  0  0  0  0
  -15.9970  -37.6891   -8.9365 C   0  0  0  0  0  0  0  0  0  0  0  0
  -16.1049  -38.4207   -7.6529 C   0  0  1  0  0  0  0  0  0  0  0  0
  -16.5142  -37.5452   -6.6400 O   0  0  0  0  0  0  0  0  0  0  0  0
  -17.0568  -39.6261   -7.7000 C   0  0  2  0  0  0  0  0  0  0  0  0
  -18.0124  -39.4938   -6.5489 C   0  0  0  0  0  0  0  0  0  0  0  0
  -19.3663  -38.9420   -7.0290 C   0  0  2  0  0  0  0  0  0  0  0  0
  -19.8202  -37.7550   -6.2595 C   0  0  0  0  0  0  0  0  0  0  0  0
  -20.3248  -40.0747   -7.0618 C   0  0  0  0  0  0  0  0  0  0  0  0
  -21.7634  -39.6831   -7.1883 C   0  0  0  0  0  0  0  0  0  0  0  0
  -22.6416  -40.1419   -6.0656 C   0  0  0  0  0  0  0  0  0  0  0  0
  -23.6791  -41.1546   -6.4710 C   0  0  0  0  0  0  0  0  0  0  0  0
  -23.0974  -42.4737   -6.8922 C   0  0  0  0  0  0  0  0  0  0  0  0
  -23.0546  -43.4995   -5.7780 C   0  0  0  0  0  0  0  0  0  0  0  0
  -21.6653  -43.7069   -5.2826 C   0  0  0  0  0  0  0  0  0  0  0  0
  -20.7661  -44.3076   -6.1416 O   0  0  0  0  0  0  0  0  0  0  0  0
  -19.8855  -43.8514   -7.1136 C   0  0  0  0  0  0  0  0  0  0  0  0
  -18.7018  -43.1534   -6.9674 C   0  0  0  0  0  0  0  0  0  0  0  0
  -18.0299  -42.8285   -8.1224 C   0  0  0  0  0  0  0  0  0  0  0  0
  -18.5753  -43.2222   -9.3753 C   0  0  0  0  0  0  0  0  0  0  0  0
  -19.7544  -43.9177   -9.5029 C   0  0  0  0  0  0  0  0  0  0  0  0
  -20.3881  -44.3824  -11.0711 Cl  0  0  0  0  0  0  0  0  0  0  0  0
  -20.3620  -44.2039   -8.3670 N   0  0  0  0  0  0  0  0  0  0  0  0
  -16.7759  -42.0855   -8.3534 C   0  0  0  0  0  0  0  0  0  0  0  0
  -15.9718  -42.6595   -9.2180 O   0  0  0  0  0  0  0  0  0  0  0  0
  -16.3289  -40.8498   -7.7773 N   0  0  0  0  0  0  0  0  0  0  0  0
  -12.1331  -39.6794  -11.2657 C   0  0  0  0  0  0  0  0  0  0  0  0
  1  2  1  0
  2  3  1  0
  2  4  1  0
  4  5  2  0
  5  6  1  0
  6  7  2  0
  7  8  1  0
  8  9  1  0
  9 10  1  0
 10 11  1  0
 11 12  1  0
 12 13  1  1
 12 14  1  0
 14 15  1  1
 15 16  1  0
 16 17  1  1
 16 18  1  0
 18 19  1  0
 19 20  1  0
 20 21  1  0
 21 22  1  0
 22 23  1  0
 23 24  1  0
 24 25  1  0
 25 26  1  0
 26 27  2  0
 27 28  1  0
 28 29  2  0
 29 30  1  0
 30 31  1  0
 30 32  2  0
 28 33  1  0
 33 34  2  0
 33 35  1  0
  8 36  2  0
 32 26  1  0
 35 14  1  0
 36  4  1  0
M  END
$$$$
