
     RDKit          3D

 36 38  0  0  0  0  0  0  0  0999 V2000
  -22.8215  -42.7861   -5.7412 C   0  0  0  0  0  0  0  0  0  0  0  0
  -22.5557  -41.4974   -4.9676 C   0  0  0  0  0  0  0  0  0  0  0  0
  -23.8164  -41.1567   -4.2171 C   0  0  0  0  0  0  0  0  0  0  0  0
  -22.1328  -40.4200   -5.8982 C   0  0  0  0  0  0  0  0  0  0  0  0
  -22.6713  -40.3597   -7.1414 C   0  0  0  0  0  0  0  0  0  0  0  0
  -22.2889  -39.3679   -8.0141 C   0  0  0  0  0  0  0  0  0  0  0  0
  -21.3409  -38.4091   -7.6323 C   0  0  0  0  0  0  0  0  0  0  0  0
  -20.7983  -38.4698   -6.3799 C   0  0  0  0  0  0  0  0  0  0  0  0
  -19.7885  -37.4426   -5.9835 C   0  0  0  0  0  0  0  0  0  0  0  0
  -18.6680  -37.4387   -6.8661 N   0  0  0  0  0  0  0  0  0  0  0  0
  -17.9890  -38.6608   -7.1086 C   0  0  0  0  0  0  0  0  0  0  0  0
  -16.8073  -38.4974   -7.9868 C   0  0  1  0  0  0  0  0  0  0  0  0
  -15.6830  -38.1785   -7.2161 O   0  0  0  0  0  0  0  0  0  0  0  0
  -16.4988  -39.7286   -8.8530 C   0  0  2  0  0  0  0  0  0  0  0  0
  -15.6528  -39.2704  -10.0064 C   0  0  0  0  0  0  0  0  0  0  0  0
  -14.1706  -39.6000   -9.7561 C   0  0  2  0  0  0  0  0  0  0  0  0
  -13.2756  -38.4247   -9.9129 C   0  0  0  0  0  0  0  0  0  0  0  0
  -13.8243  -40.7716  -10.5990 C   0  0  0  0  0  0  0  0  0  0  0  0
  -12.3589  -41.0382  -10.7407 C   0  0  0  0  0  0  0  0  0  0  0  0
  -11.8463  -41.0053  -12.1472 C   0  0  0  0  0  0  0  0  0  0  0  0
  -11.3544  -42.3351  -12.6536 C   0  0  0  0  0  0  0  0  0  0  0  0
  -12.4426  -43.3592  -12.8048 C   0  0  0  0  0  0  0  0  0  0  0  0
  -13.0055  -43.4409  -14.2091 C   0  0  0  0  0  0  0  0  0  0  0  0
  -14.3651  -42.8374  -14.2861 C   0  0  0  0  0  0  0  0  0  0  0  0
  -15.3881  -43.4862  -13.6229 O   0  0  0  0  0  0  0  0  0  0  0  0
  -15.9125  -43.4311  -12.3382 C   0  0  0  0  0  0  0  0  0  0  0  0
  -16.6616  -42.4370  -11.7379 C   0  0  0  0  0  0  0  0  0  0  0  0
  -17.0487  -42.6562  -10.4367 C   0  0  0  0  0  0  0  0  0  0  0  0
  -16.6688  -43.8672   -9.7954 C   0  0  0  0  0  0  0  0  0  0  0  0
  -15.9237  -44.8469  -10.4080 C   0  0  0  0  0  0  0  0  0  0  0  0
  -15.4791  -46.3258   -9.5760 Cl  0  0  0  0  0  0  0  0  0  0  0  0
  -15.5754  -44.5892  -11.6545 N   0  0  0  0  0  0  0  0  0  0  0  0
  -17.8188  -41.8282   -9.4883 C   0  0  0  0  0  0  0  0  0  0  0  0
  -18.7448  -42.4923   -8.8363 O   0  0  0  0  0  0  0  0  0  0  0  0
  -17.6938  -40.4308   -9.1879 N   0  0  0  0  0  0  0  0  0  0  0  0
  -21.1912  -39.4647   -5.5242 C   0  0  0  0  0  0  0  0  0  0  0  0
  1  2  1  0
  2  3  1  0
  2  4  1  0
  4  5  2  0
  5  6  1  0
  6  7  2  0
  7  8  1  0
  8  9  1  0
  9 10  1  0
 10 11  1  0
 11 12  1  0
 12 13  1  1
 12 14  1  0
 14 15  1  6
 15 16  1  0
 16 17  1  6
 16 18  1  0
 18 19  1  0
 19 20  1  0
 20 21  1  0
 21 22  1  0
 22 23  1  0
 23 24  1  0
 24 25  1  0
 25 26  1  0
 26 27  2  0
 27 28  1  0
 28 29  2  0
 29 30  1  0
 30 31  1  0
 30 32  2  0
 28 33  1  0
 33 34  2  0
 33 35  1  0
  8 36  2  0
 32 26  1  0
 35 14  1  0
 36  4  1  0
M  END
$$$$
