
     RDKit          3D

 36 38  0  0  0  0  0  0  0  0999 V2000
   -8.8348  -37.9539  -11.4008 C   0  0  0  0  0  0  0  0  0  0  0  0
  -10.1641  -37.2139  -11.2767 C   0  0  0  0  0  0  0  0  0  0  0  0
  -10.4658  -37.0772   -9.8074 C   0  0  0  0  0  0  0  0  0  0  0  0
  -11.2263  -37.9432  -12.0153 C   0  0  0  0  0  0  0  0  0  0  0  0
  -11.2226  -37.9385  -13.3715 C   0  0  0  0  0  0  0  0  0  0  0  0
  -12.2001  -38.6091  -14.0688 C   0  0  0  0  0  0  0  0  0  0  0  0
  -13.2101  -39.3042  -13.3902 C   0  0  0  0  0  0  0  0  0  0  0  0
  -13.2139  -39.3090  -12.0240 C   0  0  0  0  0  0  0  0  0  0  0  0
  -14.2955  -40.0532  -11.3109 C   0  0  0  0  0  0  0  0  0  0  0  0
  -15.5555  -39.3961  -11.4344 N   0  0  0  0  0  0  0  0  0  0  0  0
  -16.7070  -40.0269  -10.8965 C   0  0  0  0  0  0  0  0  0  0  0  0
  -17.1004  -39.4777   -9.5782 C   0  0  1  0  0  0  0  0  0  0  0  0
  -17.7524  -38.2508   -9.7500 O   0  0  0  0  0  0  0  0  0  0  0  0
  -17.9923  -40.4174   -8.7518 C   0  0  2  0  0  0  0  0  0  0  0  0
  -18.5095  -39.6353   -7.5785 C   0  0  0  0  0  0  0  0  0  0  0  0
  -19.9553  -39.1724   -7.8305 C   0  0  2  0  0  0  0  0  0  0  0  0
  -20.1456  -37.7129   -7.6288 C   0  0  0  0  0  0  0  0  0  0  0  0
  -20.8499  -40.0409   -7.0252 C   0  0  0  0  0  0  0  0  0  0  0  0
  -22.2542  -39.5445   -6.8835 C   0  0  0  0  0  0  0  0  0  0  0  0
  -22.6979  -39.3052   -5.4734 C   0  0  0  0  0  0  0  0  0  0  0  0
  -23.7937  -40.2271   -5.0089 C   0  0  0  0  0  0  0  0  0  0  0  0
  -23.3640  -41.6621   -4.8989 C   0  0  0  0  0  0  0  0  0  0  0  0
  -22.9331  -42.0591   -3.5016 C   0  0  0  0  0  0  0  0  0  0  0  0
  -21.4547  -42.2180   -3.4129 C   0  0  0  0  0  0  0  0  0  0  0  0
  -20.8848  -43.2693   -4.1038 O   0  0  0  0  0  0  0  0  0  0  0  0
  -20.3885  -43.4422   -5.3892 C   0  0  0  0  0  0  0  0  0  0  0  0
  -19.2363  -42.9363   -5.9604 C   0  0  0  0  0  0  0  0  0  0  0  0
  -18.9955  -43.2776   -7.2706 C   0  0  0  0  0  0  0  0  0  0  0  0
  -19.9221  -44.1157   -7.9498 C   0  0  0  0  0  0  0  0  0  0  0  0
  -21.0637  -44.6115   -7.3657 C   0  0  0  0  0  0  0  0  0  0  0  0
  -22.1778  -45.6431   -8.2441 Cl  0  0  0  0  0  0  0  0  0  0  0  0
  -21.2510  -44.2545   -6.1092 N   0  0  0  0  0  0  0  0  0  0  0  0
  -17.9042  -42.9148   -8.1955 C   0  0  0  0  0  0  0  0  0  0  0  0
  -17.4262  -43.9313   -8.8751 O   0  0  0  0  0  0  0  0  0  0  0  0
  -17.3113  -41.6329   -8.4481 N   0  0  0  0  0  0  0  0  0  0  0  0
  -12.2323  -38.6355  -11.3463 C   0  0  0  0  0  0  0  0  0  0  0  0
  1  2  1  0
  2  3  1  0
  2  4  1  0
  4  5  2  0
  5  6  1  0
  6  7  2  0
  7  8  1  0
  8  9  1  0
  9 10  1  0
 10 11  1  0
 11 12  1  0
 12 13  1  6
 12 14  1  0
 14 15  1  1
 15 16  1  0
 16 17  1  1
 16 18  1  0
 18 19  1  0
 19 20  1  0
 20 21  1  0
 21 22  1  0
 22 23  1  0
 23 24  1  0
 24 25  1  0
 25 26  1  0
 26 27  2  0
 27 28  1  0
 28 29  2  0
 29 30  1  0
 30 31  1  0
 30 32  2  0
 28 33  1  0
 33 34  2  0
 33 35  1  0
  8 36  2  0
 32 26  1  0
 35 14  1  0
 36  4  1  0
M  END
$$$$
