
     RDKit          3D

 36 38  0  0  0  0  0  0  0  0999 V2000
  -14.0917  -40.9191  -13.8481 C   0  0  0  0  0  0  0  0  0  0  0  0
  -12.6635  -40.5219  -13.4843 C   0  0  0  0  0  0  0  0  0  0  0  0
  -11.9738  -41.7555  -12.9635 C   0  0  0  0  0  0  0  0  0  0  0  0
  -12.6769  -39.4120  -12.4976 C   0  0  0  0  0  0  0  0  0  0  0  0
  -12.8188  -38.1342  -12.9291 C   0  0  0  0  0  0  0  0  0  0  0  0
  -12.8325  -37.0962  -12.0269 C   0  0  0  0  0  0  0  0  0  0  0  0
  -12.7005  -37.3436  -10.6540 C   0  0  0  0  0  0  0  0  0  0  0  0
  -12.5576  -38.6308  -10.2190 C   0  0  0  0  0  0  0  0  0  0  0  0
  -12.4176  -38.8829   -8.7531 C   0  0  0  0  0  0  0  0  0  0  0  0
  -13.5309  -38.3712   -8.0229 N   0  0  0  0  0  0  0  0  0  0  0  0
  -14.8396  -38.7255   -8.4413 C   0  0  0  0  0  0  0  0  0  0  0  0
  -15.8650  -38.4643   -7.4046 C   0  0  1  0  0  0  0  0  0  0  0  0
  -16.4624  -37.2185   -7.6305 O   0  0  0  0  0  0  0  0  0  0  0  0
  -16.9550  -39.5441   -7.3193 C   0  0  2  0  0  0  0  0  0  0  0  0
  -17.8658  -39.1794   -6.1821 C   0  0  0  0  0  0  0  0  0  0  0  0
  -19.1529  -38.5202   -6.7085 C   0  0  2  0  0  0  0  0  0  0  0  0
  -19.4467  -37.2142   -6.0644 C   0  0  0  0  0  0  0  0  0  0  0  0
  -20.2405  -39.5260   -6.6165 C   0  0  0  0  0  0  0  0  0  0  0  0
  -21.6240  -38.9784   -6.7738 C   0  0  0  0  0  0  0  0  0  0  0  0
  -22.5292  -39.2094   -5.6036 C   0  0  0  0  0  0  0  0  0  0  0  0
  -23.6880  -40.1256   -5.8942 C   0  0  0  0  0  0  0  0  0  0  0  0
  -23.2764  -41.5417   -6.1790 C   0  0  0  0  0  0  0  0  0  0  0  0
  -23.3354  -42.4449   -4.9639 C   0  0  0  0  0  0  0  0  0  0  0  0
  -21.9717  -42.7666   -4.4586 C   0  0  0  0  0  0  0  0  0  0  0  0
  -21.1673  -43.5570   -5.2559 O   0  0  0  0  0  0  0  0  0  0  0  0
  -20.2572  -43.3132   -6.2760 C   0  0  0  0  0  0  0  0  0  0  0  0
  -18.9959  -42.7522   -6.2113 C   0  0  0  0  0  0  0  0  0  0  0  0
  -18.3121  -42.6317   -7.3983 C   0  0  0  0  0  0  0  0  0  0  0  0
  -18.9245  -43.0835   -8.5996 C   0  0  0  0  0  0  0  0  0  0  0  0
  -20.1806  -43.6406   -8.6461 C   0  0  0  0  0  0  0  0  0  0  0  0
  -20.8951  -44.1842  -10.1530 Cl  0  0  0  0  0  0  0  0  0  0  0  0
  -20.7963  -43.7327   -7.4825 N   0  0  0  0  0  0  0  0  0  0  0  0
  -16.9829  -42.0736   -7.7139 C   0  0  0  0  0  0  0  0  0  0  0  0
  -16.2698  -42.8266   -8.5189 O   0  0  0  0  0  0  0  0  0  0  0  0
  -16.3803  -40.8484   -7.2730 N   0  0  0  0  0  0  0  0  0  0  0  0
  -12.5462  -39.6518  -11.1322 C   0  0  0  0  0  0  0  0  0  0  0  0
  1  2  1  0
  2  3  1  0
  2  4  1  0
  4  5  2  0
  5  6  1  0
  6  7  2  0
  7  8  1  0
  8  9  1  0
  9 10  1  0
 10 11  1  0
 11 12  1  0
 12 13  1  6
 12 14  1  0
 14 15  1  1
 15 16  1  0
 16 17  1  1
 16 18  1  0
 18 19  1  0
 19 20  1  0
 20 21  1  0
 21 22  1  0
 22 23  1  0
 23 24  1  0
 24 25  1  0
 25 26  1  0
 26 27  2  0
 27 28  1  0
 28 29  2  0
 29 30  1  0
 30 31  1  0
 30 32  2  0
 28 33  1  0
 33 34  2  0
 33 35  1  0
  8 36  2  0
 32 26  1  0
 35 14  1  0
 36  4  1  0
M  END
$$$$
