
     RDKit          3D

 40 42  0  0  0  0  0  0  0  0999 V2000
  -16.4393  -33.2359   -9.8680 C   0  0  0  0  0  0  0  0  0  0  0  0
  -17.2229  -34.2923  -10.3425 O   0  0  0  0  0  0  0  0  0  0  0  0
  -16.7872  -34.5999  -11.6097 C   0  0  0  0  0  0  0  0  0  0  0  0
  -16.0989  -35.9154  -11.6261 C   0  0  0  0  0  0  0  0  0  0  0  0
  -14.8873  -36.0939  -12.2288 C   0  0  0  0  0  0  0  0  0  0  0  0
  -14.1948  -37.3360  -12.2684 C   0  0  0  0  0  0  0  0  0  0  0  0
  -14.7705  -38.4351  -11.6717 C   0  0  0  0  0  0  0  0  0  0  0  0
  -15.9885  -38.2977  -11.0493 C   0  0  0  0  0  0  0  0  0  0  0  0
  -16.6287  -37.0332  -11.0422 C   0  0  0  0  0  0  0  0  0  0  0  0
  -16.8078  -39.2664  -10.2930 C   0  0  0  0  0  0  0  0  0  0  0  0
  -18.1182  -39.2610  -10.4708 O   0  0  0  0  0  0  0  0  0  0  0  0
  -16.4429  -40.2636   -9.3515 N   0  0  0  0  0  0  0  0  0  0  0  0
  -15.6282  -40.1173   -8.1710 C   0  0  1  0  0  0  0  0  0  0  0  0
  -14.2093  -39.7530   -8.3944 C   0  0  0  0  0  0  0  0  0  0  0  0
  -13.4125  -40.9008   -8.9883 C   0  0  2  0  0  0  0  0  0  0  0  0
  -13.9116  -42.1954   -8.4131 C   0  0  0  0  0  0  0  0  0  0  0  0
  -11.9443  -40.6843   -8.6660 C   0  0  0  0  0  0  0  0  0  0  0  0
  -11.0736  -41.6488   -9.3670 C   0  0  0  0  0  0  0  0  0  0  0  0
  -11.2244  -41.7267  -10.7292 O   0  0  0  0  0  0  0  0  0  0  0  0
  -10.5245  -40.7247  -11.4417 C   0  0  0  0  0  0  0  0  0  0  0  0
  -11.5836  -39.8378  -12.0406 C   0  0  0  0  0  0  0  0  0  0  0  0
  -11.1145  -38.7926  -13.0045 C   0  0  0  0  0  0  0  0  0  0  0  0
  -11.5766  -37.4532  -12.4861 C   0  0  0  0  0  0  0  0  0  0  0  0
  -12.9304  -37.1687  -12.9194 N   0  0  0  0  0  0  0  0  0  0  0  0
  -16.3153  -39.2220   -7.1479 C   0  0  2  0  0  0  0  0  0  0  0  0
  -16.1454  -39.7561   -5.8826 O   0  0  0  0  0  0  0  0  0  0  0  0
  -17.7945  -39.0943   -7.4324 C   0  0  0  0  0  0  0  0  0  0  0  0
  -18.5014  -38.4056   -6.4211 N   0  0  0  0  0  0  0  0  0  0  0  0
  -19.8507  -38.0226   -6.6742 C   0  0  0  0  0  0  0  0  0  0  0  0
  -20.8655  -39.0812   -6.6161 C   0  0  0  0  0  0  0  0  0  0  0  0
  -20.9436  -39.9283   -5.5026 C   0  0  0  0  0  0  0  0  0  0  0  0
  -21.8696  -40.9358   -5.4549 C   0  0  0  0  0  0  0  0  0  0  0  0
  -22.7596  -41.1699   -6.4780 C   0  0  0  0  0  0  0  0  0  0  0  0
  -22.6829  -40.3397   -7.5676 C   0  0  0  0  0  0  0  0  0  0  0  0
  -21.7575  -39.3210   -7.6312 C   0  0  0  0  0  0  0  0  0  0  0  0
  -21.7983  -38.5351   -8.7631 F   0  0  0  0  0  0  0  0  0  0  0  0
  -21.9452  -41.8344   -4.2629 C   0  0  0  0  0  0  0  0  0  0  0  0
  -21.3824  -43.0519   -4.5800 F   0  0  0  0  0  0  0  0  0  0  0  0
  -23.2497  -42.0759   -3.8944 F   0  0  0  0  0  0  0  0  0  0  0  0
  -21.2261  -41.2783   -3.2270 F   0  0  0  0  0  0  0  0  0  0  0  0
  1  2  1  0
  2  3  1  0
  3  4  1  0
  4  5  2  0
  5  6  1  0
  6  7  2  0
  7  8  1  0
  8  9  2  0
  8 10  1  0
 10 11  2  0
 10 12  1  0
 12 13  1  0
 13 14  1  6
 14 15  1  0
 15 16  1  1
 15 17  1  0
 17 18  1  0
 18 19  1  0
 19 20  1  0
 20 21  1  0
 21 22  1  0
 22 23  1  0
 23 24  1  0
 13 25  1  0
 25 26  1  1
 25 27  1  0
 27 28  1  0
 28 29  1  0
 29 30  1  0
 30 31  2  0
 31 32  1  0
 32 33  2  0
 33 34  1  0
 34 35  2  0
 35 36  1  0
 32 37  1  0
 37 38  1  0
 37 39  1  0
 37 40  1  0
  9  4  1  0
 24  6  1  0
 35 30  1  0
M  END
$$$$
