
     RDKit          3D

 40 42  0  0  0  0  0  0  0  0999 V2000
  -20.0186  -36.3144  -12.6505 C   0  0  0  0  0  0  0  0  0  0  0  0
  -18.9139  -35.6407  -13.1803 O   0  0  0  0  0  0  0  0  0  0  0  0
  -18.0065  -35.4605  -12.1633 C   0  0  0  0  0  0  0  0  0  0  0  0
  -16.8685  -36.4046  -12.2983 C   0  0  0  0  0  0  0  0  0  0  0  0
  -15.7125  -36.0621  -12.9384 C   0  0  0  0  0  0  0  0  0  0  0  0
  -14.5999  -36.9356  -13.0909 C   0  0  0  0  0  0  0  0  0  0  0  0
  -14.6803  -38.2081  -12.5716 C   0  0  0  0  0  0  0  0  0  0  0  0
  -15.8254  -38.5922  -11.9151 C   0  0  0  0  0  0  0  0  0  0  0  0
  -16.8999  -37.6758  -11.7943 C   0  0  0  0  0  0  0  0  0  0  0  0
  -16.1724  -39.8491  -11.2213 C   0  0  0  0  0  0  0  0  0  0  0  0
  -17.3920  -40.3379  -11.3709 O   0  0  0  0  0  0  0  0  0  0  0  0
  -15.4071  -40.6876  -10.3698 N   0  0  0  0  0  0  0  0  0  0  0  0
  -14.6528  -40.3158   -9.1986 C   0  0  1  0  0  0  0  0  0  0  0  0
  -13.4947  -39.4187   -9.4217 C   0  0  0  0  0  0  0  0  0  0  0  0
  -12.3497  -40.1289  -10.1214 C   0  0  2  0  0  0  0  0  0  0  0  0
  -12.2855  -41.5504   -9.6406 C   0  0  0  0  0  0  0  0  0  0  0  0
  -11.0623  -39.3844   -9.8134 C   0  0  0  0  0  0  0  0  0  0  0  0
   -9.9246  -39.8904  -10.6067 C   0  0  0  0  0  0  0  0  0  0  0  0
  -10.1016  -39.9312  -11.9675 O   0  0  0  0  0  0  0  0  0  0  0  0
   -9.8753  -38.6925  -12.6124 C   0  0  0  0  0  0  0  0  0  0  0  0
  -11.2217  -38.2457  -13.1169 C   0  0  0  0  0  0  0  0  0  0  0  0
  -11.2374  -37.0399  -14.0042 C   0  0  0  0  0  0  0  0  0  0  0  0
  -12.1508  -36.0194  -13.3716 C   0  0  0  0  0  0  0  0  0  0  0  0
  -13.5301  -36.2514  -13.7526 N   0  0  0  0  0  0  0  0  0  0  0  0
  -15.5787  -39.8238   -8.0935 C   0  0  2  0  0  0  0  0  0  0  0  0
  -14.9502  -39.9691   -6.8692 O   0  0  0  0  0  0  0  0  0  0  0  0
  -16.8758  -40.5999   -8.0749 C   0  0  0  0  0  0  0  0  0  0  0  0
  -18.0180  -39.7778   -7.9472 N   0  0  0  0  0  0  0  0  0  0  0  0
  -18.8212  -39.9058   -6.7768 C   0  0  0  0  0  0  0  0  0  0  0  0
  -20.2057  -39.4268   -6.8635 C   0  0  0  0  0  0  0  0  0  0  0  0
  -21.0157  -39.3889   -5.7206 C   0  0  0  0  0  0  0  0  0  0  0  0
  -22.3169  -38.9700   -5.8002 C   0  0  0  0  0  0  0  0  0  0  0  0
  -22.8928  -38.5698   -6.9842 C   0  0  0  0  0  0  0  0  0  0  0  0
  -22.0989  -38.6067   -8.1025 C   0  0  0  0  0  0  0  0  0  0  0  0
  -20.7877  -39.0251   -8.0396 C   0  0  0  0  0  0  0  0  0  0  0  0
  -20.0826  -38.9888   -9.2237 F   0  0  0  0  0  0  0  0  0  0  0  0
  -23.1732  -38.9330   -4.5757 C   0  0  0  0  0  0  0  0  0  0  0  0
  -23.2751  -37.6308   -4.1363 F   0  0  0  0  0  0  0  0  0  0  0  0
  -22.6183  -39.6638   -3.5492 F   0  0  0  0  0  0  0  0  0  0  0  0
  -24.4360  -39.3875   -4.8892 F   0  0  0  0  0  0  0  0  0  0  0  0
  1  2  1  0
  2  3  1  0
  3  4  1  0
  4  5  2  0
  5  6  1  0
  6  7  2  0
  7  8  1  0
  8  9  2  0
  8 10  1  0
 10 11  2  0
 10 12  1  0
 12 13  1  0
 13 14  1  6
 14 15  1  0
 15 16  1  1
 15 17  1  0
 17 18  1  0
 18 19  1  0
 19 20  1  0
 20 21  1  0
 21 22  1  0
 22 23  1  0
 23 24  1  0
 13 25  1  0
 25 26  1  1
 25 27  1  0
 27 28  1  0
 28 29  1  0
 29 30  1  0
 30 31  2  0
 31 32  1  0
 32 33  2  0
 33 34  1  0
 34 35  2  0
 35 36  1  0
 32 37  1  0
 37 38  1  0
 37 39  1  0
 37 40  1  0
  9  4  1  0
 24  6  1  0
 35 30  1  0
M  END
$$$$
