
     RDKit          3D

 40 42  0  0  0  0  0  0  0  0999 V2000
  -20.9816  -38.7041  -11.2376 C   0  0  0  0  0  0  0  0  0  0  0  0
  -21.4368  -39.6975  -12.1100 O   0  0  0  0  0  0  0  0  0  0  0  0
  -21.0226  -40.9113  -11.6143 C   0  0  0  0  0  0  0  0  0  0  0  0
  -19.5403  -40.9919  -11.5873 C   0  0  0  0  0  0  0  0  0  0  0  0
  -18.7770  -40.7034  -12.6815 C   0  0  0  0  0  0  0  0  0  0  0  0
  -17.3559  -40.7690  -12.6988 C   0  0  0  0  0  0  0  0  0  0  0  0
  -16.6961  -41.1498  -11.5519 C   0  0  0  0  0  0  0  0  0  0  0  0
  -17.4270  -41.4448  -10.4257 C   0  0  0  0  0  0  0  0  0  0  0  0
  -18.8411  -41.3596  -10.4706 C   0  0  0  0  0  0  0  0  0  0  0  0
  -17.0015  -41.8214   -9.0624 C   0  0  0  0  0  0  0  0  0  0  0  0
  -17.6758  -42.7656   -8.4277 O   0  0  0  0  0  0  0  0  0  0  0  0
  -15.9461  -41.3374   -8.2465 N   0  0  0  0  0  0  0  0  0  0  0  0
  -15.6425  -39.9706   -7.9023 C   0  0  1  0  0  0  0  0  0  0  0  0
  -15.2360  -39.0874   -9.0207 C   0  0  0  0  0  0  0  0  0  0  0  0
  -13.8498  -39.4255   -9.5395 C   0  0  2  0  0  0  0  0  0  0  0  0
  -12.9830  -39.8473   -8.3877 C   0  0  0  0  0  0  0  0  0  0  0  0
  -13.2843  -38.1993  -10.2346 C   0  0  0  0  0  0  0  0  0  0  0  0
  -12.0195  -38.4930  -10.9373 C   0  0  0  0  0  0  0  0  0  0  0  0
  -12.0460  -39.5377  -11.8274 O   0  0  0  0  0  0  0  0  0  0  0  0
  -12.5605  -39.1939  -13.0996 C   0  0  0  0  0  0  0  0  0  0  0  0
  -13.8704  -39.9266  -13.2192 C   0  0  0  0  0  0  0  0  0  0  0  0
  -14.5427  -39.8816  -14.5561 C   0  0  0  0  0  0  0  0  0  0  0  0
  -15.9242  -39.3102  -14.3535 C   0  0  0  0  0  0  0  0  0  0  0  0
  -16.8638  -40.3474  -13.9757 N   0  0  0  0  0  0  0  0  0  0  0  0
  -16.7503  -39.3702   -7.0463 C   0  0  2  0  0  0  0  0  0  0  0  0
  -16.5821  -37.9985   -6.9735 O   0  0  0  0  0  0  0  0  0  0  0  0
  -16.7365  -39.9416   -5.6469 C   0  0  0  0  0  0  0  0  0  0  0  0
  -18.0126  -40.3476   -5.1957 N   0  0  0  0  0  0  0  0  0  0  0  0
  -18.9977  -40.6968   -6.1647 C   0  0  0  0  0  0  0  0  0  0  0  0
  -20.3784  -40.2816   -5.8903 C   0  0  0  0  0  0  0  0  0  0  0  0
  -21.4542  -40.9793   -6.4557 C   0  0  0  0  0  0  0  0  0  0  0  0
  -22.7436  -40.5797   -6.2266 C   0  0  0  0  0  0  0  0  0  0  0  0
  -23.0514  -39.4911   -5.4431 C   0  0  0  0  0  0  0  0  0  0  0  0
  -21.9975  -38.8090   -4.8894 C   0  0  0  0  0  0  0  0  0  0  0  0
  -20.6943  -39.1981   -5.1096 C   0  0  0  0  0  0  0  0  0  0  0  0
  -19.7239  -38.4527   -4.4747 F   0  0  0  0  0  0  0  0  0  0  0  0
  -23.8846  -41.3302   -6.8341 C   0  0  0  0  0  0  0  0  0  0  0  0
  -24.8925  -41.4498   -5.9018 F   0  0  0  0  0  0  0  0  0  0  0  0
  -23.5145  -42.6063   -7.1954 F   0  0  0  0  0  0  0  0  0  0  0  0
  -24.3707  -40.6244   -7.9136 F   0  0  0  0  0  0  0  0  0  0  0  0
  1  2  1  0
  2  3  1  0
  3  4  1  0
  4  5  2  0
  5  6  1  0
  6  7  2  0
  7  8  1  0
  8  9  2  0
  8 10  1  0
 10 11  2  0
 10 12  1  0
 12 13  1  0
 13 14  1  6
 14 15  1  0
 15 16  1  1
 15 17  1  0
 17 18  1  0
 18 19  1  0
 19 20  1  0
 20 21  1  0
 21 22  1  0
 22 23  1  0
 23 24  1  0
 13 25  1  0
 25 26  1  1
 25 27  1  0
 27 28  1  0
 28 29  1  0
 29 30  1  0
 30 31  2  0
 31 32  1  0
 32 33  2  0
 33 34  1  0
 34 35  2  0
 35 36  1  0
 32 37  1  0
 37 38  1  0
 37 39  1  0
 37 40  1  0
  9  4  1  0
 24  6  1  0
 35 30  1  0
M  END
$$$$
