
     RDKit          3D

 40 42  0  0  0  0  0  0  0  0999 V2000
  -22.0397  -42.3216  -11.0222 C   0  0  0  0  0  0  0  0  0  0  0  0
  -21.0761  -42.5653  -12.0056 O   0  0  0  0  0  0  0  0  0  0  0  0
  -20.1479  -41.5530  -11.9418 C   0  0  0  0  0  0  0  0  0  0  0  0
  -18.8513  -42.0581  -11.4239 C   0  0  0  0  0  0  0  0  0  0  0  0
  -17.9322  -42.6626  -12.2319 C   0  0  0  0  0  0  0  0  0  0  0  0
  -16.6799  -43.1612  -11.7767 C   0  0  0  0  0  0  0  0  0  0  0  0
  -16.3632  -43.0386  -10.4424 C   0  0  0  0  0  0  0  0  0  0  0  0
  -17.2591  -42.4317   -9.5947 C   0  0  0  0  0  0  0  0  0  0  0  0
  -18.4906  -41.9538  -10.1085 C   0  0  0  0  0  0  0  0  0  0  0  0
  -17.1732  -42.1161   -8.1544 C   0  0  0  0  0  0  0  0  0  0  0  0
  -18.2447  -42.3007   -7.4016 O   0  0  0  0  0  0  0  0  0  0  0  0
  -16.0999  -41.6200   -7.3696 N   0  0  0  0  0  0  0  0  0  0  0  0
  -15.2805  -40.4593   -7.6148 C   0  0  1  0  0  0  0  0  0  0  0  0
  -14.4273  -40.5026   -8.8256 C   0  0  0  0  0  0  0  0  0  0  0  0
  -13.2719  -41.4758   -8.6745 C   0  0  2  0  0  0  0  0  0  0  0  0
  -12.7868  -41.4463   -7.2533 C   0  0  0  0  0  0  0  0  0  0  0  0
  -12.1723  -41.0703   -9.6405 C   0  0  0  0  0  0  0  0  0  0  0  0
  -11.0886  -42.0712   -9.7004 C   0  0  0  0  0  0  0  0  0  0  0  0
  -11.4670  -43.3625   -9.9720 O   0  0  0  0  0  0  0  0  0  0  0  0
  -11.6562  -43.6269  -11.3489 C   0  0  0  0  0  0  0  0  0  0  0  0
  -13.1339  -43.8603  -11.5182 C   0  0  0  0  0  0  0  0  0  0  0  0
  -13.5854  -44.3445  -12.8610 C   0  0  0  0  0  0  0  0  0  0  0  0
  -14.6058  -43.3625  -13.3810 C   0  0  0  0  0  0  0  0  0  0  0  0
  -15.9298  -43.6775  -12.8818 N   0  0  0  0  0  0  0  0  0  0  0  0
  -16.1080  -39.1839   -7.5190 C   0  0  2  0  0  0  0  0  0  0  0  0
  -15.3574  -38.1943   -6.9087 O   0  0  0  0  0  0  0  0  0  0  0  0
  -17.3716  -39.4055   -6.7193 C   0  0  0  0  0  0  0  0  0  0  0  0
  -18.5443  -39.0228   -7.4086 N   0  0  0  0  0  0  0  0  0  0  0  0
  -19.8059  -39.2630   -6.7906 C   0  0  0  0  0  0  0  0  0  0  0  0
  -21.0011  -39.0742   -7.6211 C   0  0  0  0  0  0  0  0  0  0  0  0
  -21.4426  -37.7844   -7.9455 C   0  0  0  0  0  0  0  0  0  0  0  0
  -22.5730  -37.6011   -8.6961 C   0  0  0  0  0  0  0  0  0  0  0  0
  -23.3260  -38.6527   -9.1661 C   0  0  0  0  0  0  0  0  0  0  0  0
  -22.8927  -39.9151   -8.8485 C   0  0  0  0  0  0  0  0  0  0  0  0
  -21.7572  -40.1169   -8.0947 C   0  0  0  0  0  0  0  0  0  0  0  0
  -21.4062  -41.4306   -7.8677 F   0  0  0  0  0  0  0  0  0  0  0  0
  -23.0362  -36.2215   -9.0369 C   0  0  0  0  0  0  0  0  0  0  0  0
  -24.1184  -36.3064   -9.8859 F   0  0  0  0  0  0  0  0  0  0  0  0
  -22.0597  -35.5096   -9.6968 F   0  0  0  0  0  0  0  0  0  0  0  0
  -23.4348  -35.5774   -7.8855 F   0  0  0  0  0  0  0  0  0  0  0  0
  1  2  1  0
  2  3  1  0
  3  4  1  0
  4  5  2  0
  5  6  1  0
  6  7  2  0
  7  8  1  0
  8  9  2  0
  8 10  1  0
 10 11  2  0
 10 12  1  0
 12 13  1  0
 13 14  1  6
 14 15  1  0
 15 16  1  1
 15 17  1  0
 17 18  1  0
 18 19  1  0
 19 20  1  0
 20 21  1  0
 21 22  1  0
 22 23  1  0
 23 24  1  0
 13 25  1  0
 25 26  1  1
 25 27  1  0
 27 28  1  0
 28 29  1  0
 29 30  1  0
 30 31  2  0
 31 32  1  0
 32 33  2  0
 33 34  1  0
 34 35  2  0
 35 36  1  0
 32 37  1  0
 37 38  1  0
 37 39  1  0
 37 40  1  0
  9  4  1  0
 24  6  1  0
 35 30  1  0
M  END
$$$$
