
     RDKit          3D

 40 42  0  0  0  0  0  0  0  0999 V2000
  -16.3383  -35.5089  -14.9324 C   0  0  0  0  0  0  0  0  0  0  0  0
  -16.6392  -34.9208  -13.7001 O   0  0  0  0  0  0  0  0  0  0  0  0
  -17.1556  -35.8997  -12.8844 C   0  0  0  0  0  0  0  0  0  0  0  0
  -16.1588  -36.9761  -12.6560 C   0  0  0  0  0  0  0  0  0  0  0  0
  -14.8653  -36.8701  -13.0790 C   0  0  0  0  0  0  0  0  0  0  0  0
  -13.8798  -37.8770  -12.8820 C   0  0  0  0  0  0  0  0  0  0  0  0
  -14.2378  -39.0364  -12.2315 C   0  0  0  0  0  0  0  0  0  0  0  0
  -15.5297  -39.1819  -11.7849 C   0  0  0  0  0  0  0  0  0  0  0  0
  -16.4662  -38.1422  -12.0103 C   0  0  0  0  0  0  0  0  0  0  0  0
  -16.1777  -40.2688  -11.0231 C   0  0  0  0  0  0  0  0  0  0  0  0
  -17.4034  -40.6335  -11.3600 O   0  0  0  0  0  0  0  0  0  0  0  0
  -15.7157  -41.0467   -9.9297 N   0  0  0  0  0  0  0  0  0  0  0  0
  -15.1533  -40.5861   -8.6846 C   0  0  1  0  0  0  0  0  0  0  0  0
  -13.8584  -39.8714   -8.7744 C   0  0  0  0  0  0  0  0  0  0  0  0
  -12.7139  -40.8065   -9.1220 C   0  0  2  0  0  0  0  0  0  0  0  0
  -12.9453  -42.1344   -8.4595 C   0  0  0  0  0  0  0  0  0  0  0  0
  -11.4161  -40.1740   -8.6502 C   0  0  0  0  0  0  0  0  0  0  0  0
  -10.2319  -40.9224   -9.1164 C   0  0  0  0  0  0  0  0  0  0  0  0
  -10.1505  -41.1530  -10.4672 O   0  0  0  0  0  0  0  0  0  0  0  0
   -9.6317  -40.0627  -11.2046 C   0  0  0  0  0  0  0  0  0  0  0  0
  -10.7798  -39.5497  -12.0325 C   0  0  0  0  0  0  0  0  0  0  0  0
  -10.4545  -38.5018  -13.0512 C   0  0  0  0  0  0  0  0  0  0  0  0
  -11.3172  -37.2988  -12.7602 C   0  0  0  0  0  0  0  0  0  0  0  0
  -12.6173  -37.4292  -13.3880 N   0  0  0  0  0  0  0  0  0  0  0  0
  -16.1932  -39.8272   -7.8701 C   0  0  2  0  0  0  0  0  0  0  0  0
  -16.0629  -40.1613   -6.5335 O   0  0  0  0  0  0  0  0  0  0  0  0
  -17.5969  -40.1570   -8.3241 C   0  0  0  0  0  0  0  0  0  0  0  0
  -18.4933  -39.0712   -8.2042 N   0  0  0  0  0  0  0  0  0  0  0  0
  -18.9933  -38.7412   -6.9111 C   0  0  0  0  0  0  0  0  0  0  0  0
  -20.4505  -38.7562   -6.7367 C   0  0  0  0  0  0  0  0  0  0  0  0
  -21.0409  -39.5859   -5.7740 C   0  0  0  0  0  0  0  0  0  0  0  0
  -22.4015  -39.6255   -5.6258 C   0  0  0  0  0  0  0  0  0  0  0  0
  -23.2510  -38.8675   -6.3987 C   0  0  0  0  0  0  0  0  0  0  0  0
  -22.6721  -38.0551   -7.3406 C   0  0  0  0  0  0  0  0  0  0  0  0
  -21.3049  -38.0030   -7.5022 C   0  0  0  0  0  0  0  0  0  0  0  0
  -20.8409  -37.1262   -8.4596 F   0  0  0  0  0  0  0  0  0  0  0  0
  -23.0220  -40.5137   -4.5962 C   0  0  0  0  0  0  0  0  0  0  0  0
  -24.3934  -40.4605   -4.7227 F   0  0  0  0  0  0  0  0  0  0  0  0
  -22.7174  -40.0969   -3.3198 F   0  0  0  0  0  0  0  0  0  0  0  0
  -22.6146  -41.8129   -4.8102 F   0  0  0  0  0  0  0  0  0  0  0  0
  1  2  1  0
  2  3  1  0
  3  4  1  0
  4  5  2  0
  5  6  1  0
  6  7  2  0
  7  8  1  0
  8  9  2  0
  8 10  1  0
 10 11  2  0
 10 12  1  0
 12 13  1  0
 13 14  1  6
 14 15  1  0
 15 16  1  1
 15 17  1  0
 17 18  1  0
 18 19  1  0
 19 20  1  0
 20 21  1  0
 21 22  1  0
 22 23  1  0
 23 24  1  0
 13 25  1  0
 25 26  1  1
 25 27  1  0
 27 28  1  0
 28 29  1  0
 29 30  1  0
 30 31  2  0
 31 32  1  0
 32 33  2  0
 33 34  1  0
 34 35  2  0
 35 36  1  0
 32 37  1  0
 37 38  1  0
 37 39  1  0
 37 40  1  0
  9  4  1  0
 24  6  1  0
 35 30  1  0
M  END
$$$$
