
     RDKit          3D

 40 42  0  0  0  0  0  0  0  0999 V2000
  -20.7548  -38.4980  -10.7232 C   0  0  0  0  0  0  0  0  0  0  0  0
  -21.1697  -39.7717  -10.3225 O   0  0  0  0  0  0  0  0  0  0  0  0
  -20.9033  -40.6419  -11.3531 C   0  0  0  0  0  0  0  0  0  0  0  0
  -19.5162  -41.1630  -11.2582 C   0  0  0  0  0  0  0  0  0  0  0  0
  -18.7969  -41.5190  -12.3623 C   0  0  0  0  0  0  0  0  0  0  0  0
  -17.4673  -42.0230  -12.3159 C   0  0  0  0  0  0  0  0  0  0  0  0
  -16.8571  -42.1713  -11.0906 C   0  0  0  0  0  0  0  0  0  0  0  0
  -17.5449  -41.8200   -9.9534 C   0  0  0  0  0  0  0  0  0  0  0  0
  -18.8673  -41.3222  -10.0646 C   0  0  0  0  0  0  0  0  0  0  0  0
  -17.1380  -41.8179   -8.5335 C   0  0  0  0  0  0  0  0  0  0  0  0
  -18.0076  -42.2285   -7.6259 O   0  0  0  0  0  0  0  0  0  0  0  0
  -15.9211  -41.4352   -7.9116 N   0  0  0  0  0  0  0  0  0  0  0  0
  -15.1947  -40.1991   -8.0629 C   0  0  1  0  0  0  0  0  0  0  0  0
  -14.6387  -39.9256   -9.4089 C   0  0  0  0  0  0  0  0  0  0  0  0
  -13.4661  -40.8326   -9.7367 C   0  0  2  0  0  0  0  0  0  0  0  0
  -12.6710  -41.0796   -8.4865 C   0  0  0  0  0  0  0  0  0  0  0  0
  -12.6205  -40.1589  -10.8033 C   0  0  0  0  0  0  0  0  0  0  0  0
  -11.5656  -41.0520  -11.3220 C   0  0  0  0  0  0  0  0  0  0  0  0
  -11.9784  -42.2758  -11.7873 O   0  0  0  0  0  0  0  0  0  0  0  0
  -12.4721  -42.2483  -13.1128 C   0  0  0  0  0  0  0  0  0  0  0  0
  -13.9464  -42.5336  -13.0028 C   0  0  0  0  0  0  0  0  0  0  0  0
  -14.6848  -42.7445  -14.2880 C   0  0  0  0  0  0  0  0  0  0  0  0
  -15.8099  -41.7406  -14.3381 C   0  0  0  0  0  0  0  0  0  0  0  0
  -16.9813  -42.2397  -13.6453 N   0  0  0  0  0  0  0  0  0  0  0  0
  -15.9957  -39.0299   -7.5044 C   0  0  2  0  0  0  0  0  0  0  0  0
  -15.1703  -38.2380   -6.7256 O   0  0  0  0  0  0  0  0  0  0  0  0
  -17.1552  -39.5091   -6.6611 C   0  0  0  0  0  0  0  0  0  0  0  0
  -18.4143  -39.1061   -7.1602 N   0  0  0  0  0  0  0  0  0  0  0  0
  -19.4435  -38.7821   -6.2290 C   0  0  0  0  0  0  0  0  0  0  0  0
  -20.7397  -39.4459   -6.4112 C   0  0  0  0  0  0  0  0  0  0  0  0
  -21.2306  -40.3229   -5.4347 C   0  0  0  0  0  0  0  0  0  0  0  0
  -22.4258  -40.9671   -5.6118 C   0  0  0  0  0  0  0  0  0  0  0  0
  -23.1986  -40.7938   -6.7371 C   0  0  0  0  0  0  0  0  0  0  0  0
  -22.7175  -39.9346   -7.6924 C   0  0  0  0  0  0  0  0  0  0  0  0
  -21.5172  -39.2781   -7.5296 C   0  0  0  0  0  0  0  0  0  0  0  0
  -21.1548  -38.4175   -8.5438 F   0  0  0  0  0  0  0  0  0  0  0  0
  -22.9412  -41.9008   -4.5647 C   0  0  0  0  0  0  0  0  0  0  0  0
  -23.2060  -41.1874   -3.4156 F   0  0  0  0  0  0  0  0  0  0  0  0
  -22.0080  -42.8595   -4.2392 F   0  0  0  0  0  0  0  0  0  0  0  0
  -24.1160  -42.4730   -5.0030 F   0  0  0  0  0  0  0  0  0  0  0  0
  1  2  1  0
  2  3  1  0
  3  4  1  0
  4  5  2  0
  5  6  1  0
  6  7  2  0
  7  8  1  0
  8  9  2  0
  8 10  1  0
 10 11  2  0
 10 12  1  0
 12 13  1  0
 13 14  1  6
 14 15  1  0
 15 16  1  1
 15 17  1  0
 17 18  1  0
 18 19  1  0
 19 20  1  0
 20 21  1  0
 21 22  1  0
 22 23  1  0
 23 24  1  0
 13 25  1  0
 25 26  1  1
 25 27  1  0
 27 28  1  0
 28 29  1  0
 29 30  1  0
 30 31  2  0
 31 32  1  0
 32 33  2  0
 33 34  1  0
 34 35  2  0
 35 36  1  0
 32 37  1  0
 37 38  1  0
 37 39  1  0
 37 40  1  0
  9  4  1  0
 24  6  1  0
 35 30  1  0
M  END
$$$$
