
     RDKit          3D

 40 42  0  0  0  0  0  0  0  0999 V2000
  -21.6006  -35.3493   -9.4713 C   0  0  0  0  0  0  0  0  0  0  0  0
  -21.0086  -36.5655   -9.1169 O   0  0  0  0  0  0  0  0  0  0  0  0
  -20.9318  -37.3395  -10.2507 C   0  0  0  0  0  0  0  0  0  0  0  0
  -19.5183  -37.6502  -10.5825 C   0  0  0  0  0  0  0  0  0  0  0  0
  -18.7903  -36.8858  -11.4479 C   0  0  0  0  0  0  0  0  0  0  0  0
  -17.4355  -37.1487  -11.7936 C   0  0  0  0  0  0  0  0  0  0  0  0
  -16.8083  -38.2390  -11.2339 C   0  0  0  0  0  0  0  0  0  0  0  0
  -17.5042  -39.0327  -10.3534 C   0  0  0  0  0  0  0  0  0  0  0  0
  -18.8520  -38.7183  -10.0475 C   0  0  0  0  0  0  0  0  0  0  0  0
  -17.0862  -40.2133   -9.5705 C   0  0  0  0  0  0  0  0  0  0  0  0
  -17.9253  -41.2296   -9.4621 O   0  0  0  0  0  0  0  0  0  0  0  0
  -15.8862  -40.4884   -8.8646 N   0  0  0  0  0  0  0  0  0  0  0  0
  -15.2275  -39.6707   -7.8766 C   0  0  1  0  0  0  0  0  0  0  0  0
  -14.6979  -38.3699   -8.3491 C   0  0  0  0  0  0  0  0  0  0  0  0
  -13.4817  -38.5397   -9.2419 C   0  0  2  0  0  0  0  0  0  0  0  0
  -12.6644  -39.6974   -8.7445 C   0  0  0  0  0  0  0  0  0  0  0  0
  -12.6819  -37.2489   -9.2155 C   0  0  0  0  0  0  0  0  0  0  0  0
  -11.5855  -37.2545  -10.2041 C   0  0  0  0  0  0  0  0  0  0  0  0
  -11.9368  -37.5350  -11.5012 O   0  0  0  0  0  0  0  0  0  0  0  0
  -12.4422  -36.4210  -12.2119 C   0  0  0  0  0  0  0  0  0  0  0  0
  -13.8983  -36.7193  -12.4519 C   0  0  0  0  0  0  0  0  0  0  0  0
  -14.6352  -35.7762  -13.3513 C   0  0  0  0  0  0  0  0  0  0  0  0
  -15.8122  -35.2343  -12.5787 C   0  0  0  0  0  0  0  0  0  0  0  0
  -16.9498  -36.1279  -12.6726 N   0  0  0  0  0  0  0  0  0  0  0  0
  -16.0847  -39.5412   -6.6240 C   0  0  2  0  0  0  0  0  0  0  0  0
  -15.3626  -38.8910   -5.6386 O   0  0  0  0  0  0  0  0  0  0  0  0
  -16.5126  -40.8955   -6.1065 C   0  0  0  0  0  0  0  0  0  0  0  0
  -17.8842  -40.9589   -5.7722 N   0  0  0  0  0  0  0  0  0  0  0  0
  -18.6230  -39.7425   -5.6963 C   0  0  0  0  0  0  0  0  0  0  0  0
  -20.0169  -39.7803   -6.1541 C   0  0  0  0  0  0  0  0  0  0  0  0
  -20.8441  -40.8607   -5.8194 C   0  0  0  0  0  0  0  0  0  0  0  0
  -22.1369  -40.9156   -6.2671 C   0  0  0  0  0  0  0  0  0  0  0  0
  -22.6876  -39.9319   -7.0563 C   0  0  0  0  0  0  0  0  0  0  0  0
  -21.8772  -38.8742   -7.3830 C   0  0  0  0  0  0  0  0  0  0  0  0
  -20.5744  -38.8034   -6.9404 C   0  0  0  0  0  0  0  0  0  0  0  0
  -19.8696  -37.6773   -7.3088 F   0  0  0  0  0  0  0  0  0  0  0  0
  -23.0117  -42.0722   -5.9049 C   0  0  0  0  0  0  0  0  0  0  0  0
  -22.2514  -43.0310   -5.2710 F   0  0  0  0  0  0  0  0  0  0  0  0
  -23.5569  -42.6626   -7.0230 F   0  0  0  0  0  0  0  0  0  0  0  0
  -23.9917  -41.6469   -5.0341 F   0  0  0  0  0  0  0  0  0  0  0  0
  1  2  1  0
  2  3  1  0
  3  4  1  0
  4  5  2  0
  5  6  1  0
  6  7  2  0
  7  8  1  0
  8  9  2  0
  8 10  1  0
 10 11  2  0
 10 12  1  0
 12 13  1  0
 13 14  1  6
 14 15  1  0
 15 16  1  1
 15 17  1  0
 17 18  1  0
 18 19  1  0
 19 20  1  0
 20 21  1  0
 21 22  1  0
 22 23  1  0
 23 24  1  0
 13 25  1  0
 25 26  1  1
 25 27  1  0
 27 28  1  0
 28 29  1  0
 29 30  1  0
 30 31  2  0
 31 32  1  0
 32 33  2  0
 33 34  1  0
 34 35  2  0
 35 36  1  0
 32 37  1  0
 37 38  1  0
 37 39  1  0
 37 40  1  0
  9  4  1  0
 24  6  1  0
 35 30  1  0
M  END
$$$$
