
     RDKit          3D

 40 42  0  0  0  0  0  0  0  0999 V2000
  -16.9858  -32.5179  -12.2354 C   0  0  0  0  0  0  0  0  0  0  0  0
  -16.8916  -33.9084  -12.3481 O   0  0  0  0  0  0  0  0  0  0  0  0
  -16.6599  -34.4152  -11.0911 C   0  0  0  0  0  0  0  0  0  0  0  0
  -15.9636  -35.7242  -11.1703 C   0  0  0  0  0  0  0  0  0  0  0  0
  -14.7446  -35.8636  -11.7682 C   0  0  0  0  0  0  0  0  0  0  0  0
  -14.0444  -37.0982  -11.8667 C   0  0  0  0  0  0  0  0  0  0  0  0
  -14.6200  -38.2307  -11.3360 C   0  0  0  0  0  0  0  0  0  0  0  0
  -15.8454  -38.1334  -10.7207 C   0  0  0  0  0  0  0  0  0  0  0  0
  -16.4931  -36.8745  -10.6530 C   0  0  0  0  0  0  0  0  0  0  0  0
  -16.6670  -39.1456  -10.0265 C   0  0  0  0  0  0  0  0  0  0  0  0
  -17.9755  -39.1376  -10.2183 O   0  0  0  0  0  0  0  0  0  0  0  0
  -16.3065  -40.1899   -9.1357 N   0  0  0  0  0  0  0  0  0  0  0  0
  -15.5053  -40.1028   -7.9402 C   0  0  1  0  0  0  0  0  0  0  0  0
  -14.0863  -39.7194   -8.1280 C   0  0  0  0  0  0  0  0  0  0  0  0
  -13.2764  -40.8295   -8.7737 C   0  0  2  0  0  0  0  0  0  0  0  0
  -13.7740  -42.1557   -8.2742 C   0  0  0  0  0  0  0  0  0  0  0  0
  -11.8130  -40.6227   -8.4240 C   0  0  0  0  0  0  0  0  0  0  0  0
  -10.9292  -41.5437   -9.1659 C   0  0  0  0  0  0  0  0  0  0  0  0
  -11.0648  -41.5492  -10.5320 O   0  0  0  0  0  0  0  0  0  0  0  0
  -10.3632  -40.5067  -11.1819 C   0  0  0  0  0  0  0  0  0  0  0  0
  -11.4210  -39.5946  -11.7442 C   0  0  0  0  0  0  0  0  0  0  0  0
  -10.9477  -38.4968  -12.6455 C   0  0  0  0  0  0  0  0  0  0  0  0
  -11.4233  -37.1896  -12.0613 C   0  0  0  0  0  0  0  0  0  0  0  0
  -12.7740  -36.8895  -12.4937 N   0  0  0  0  0  0  0  0  0  0  0  0
  -16.2087  -39.2673   -6.8783 C   0  0  2  0  0  0  0  0  0  0  0  0
  -16.7242  -40.1032   -5.9032 O   0  0  0  0  0  0  0  0  0  0  0  0
  -17.3354  -38.4540   -7.4737 C   0  0  0  0  0  0  0  0  0  0  0  0
  -18.5545  -39.1638   -7.5569 N   0  0  0  0  0  0  0  0  0  0  0  0
  -19.5091  -39.0016   -6.5111 C   0  0  0  0  0  0  0  0  0  0  0  0
  -20.8426  -39.5732   -6.7321 C   0  0  0  0  0  0  0  0  0  0  0  0
  -21.0090  -40.9594   -6.8521 C   0  0  0  0  0  0  0  0  0  0  0  0
  -22.2463  -41.4968   -7.0867 C   0  0  0  0  0  0  0  0  0  0  0  0
  -23.3759  -40.7214   -7.2156 C   0  0  0  0  0  0  0  0  0  0  0  0
  -23.2122  -39.3644   -7.0975 C   0  0  0  0  0  0  0  0  0  0  0  0
  -21.9744  -38.8076   -6.8609 C   0  0  0  0  0  0  0  0  0  0  0  0
  -21.9419  -37.4356   -6.7310 F   0  0  0  0  0  0  0  0  0  0  0  0
  -22.4138  -42.9766   -7.2133 C   0  0  0  0  0  0  0  0  0  0  0  0
  -21.9129  -43.5851   -6.0827 F   0  0  0  0  0  0  0  0  0  0  0  0
  -21.7093  -43.4747   -8.2863 F   0  0  0  0  0  0  0  0  0  0  0  0
  -23.7555  -43.2763   -7.3115 F   0  0  0  0  0  0  0  0  0  0  0  0
  1  2  1  0
  2  3  1  0
  3  4  1  0
  4  5  2  0
  5  6  1  0
  6  7  2  0
  7  8  1  0
  8  9  2  0
  8 10  1  0
 10 11  2  0
 10 12  1  0
 12 13  1  0
 13 14  1  6
 14 15  1  0
 15 16  1  1
 15 17  1  0
 17 18  1  0
 18 19  1  0
 19 20  1  0
 20 21  1  0
 21 22  1  0
 22 23  1  0
 23 24  1  0
 13 25  1  0
 25 26  1  1
 25 27  1  0
 27 28  1  0
 28 29  1  0
 29 30  1  0
 30 31  2  0
 31 32  1  0
 32 33  2  0
 33 34  1  0
 34 35  2  0
 35 36  1  0
 32 37  1  0
 37 38  1  0
 37 39  1  0
 37 40  1  0
  9  4  1  0
 24  6  1  0
 35 30  1  0
M  END
$$$$
