
     RDKit          3D

 40 42  0  0  0  0  0  0  0  0999 V2000
  -15.8044  -34.4805  -13.1598 C   0  0  0  0  0  0  0  0  0  0  0  0
  -14.5496  -34.1124  -12.6646 O   0  0  0  0  0  0  0  0  0  0  0  0
  -14.4322  -34.6300  -11.3962 C   0  0  0  0  0  0  0  0  0  0  0  0
  -14.1035  -36.0771  -11.4454 C   0  0  0  0  0  0  0  0  0  0  0  0
  -12.8580  -36.5284  -11.7745 C   0  0  0  0  0  0  0  0  0  0  0  0
  -12.5016  -37.9044  -11.8345 C   0  0  0  0  0  0  0  0  0  0  0  0
  -13.4609  -38.8504  -11.5512 C   0  0  0  0  0  0  0  0  0  0  0  0
  -14.7274  -38.4384  -11.2106 C   0  0  0  0  0  0  0  0  0  0  0  0
  -15.0211  -37.0525  -11.1667 C   0  0  0  0  0  0  0  0  0  0  0  0
  -15.9241  -39.2062  -10.8105 C   0  0  0  0  0  0  0  0  0  0  0  0
  -17.1020  -38.8315  -11.2805 O   0  0  0  0  0  0  0  0  0  0  0  0
  -16.0684  -40.3371   -9.9654 N   0  0  0  0  0  0  0  0  0  0  0  0
  -15.5765  -40.5123   -8.6215 C   0  0  1  0  0  0  0  0  0  0  0  0
  -14.1036  -40.5296   -8.4593 C   0  0  0  0  0  0  0  0  0  0  0  0
  -13.4835  -41.7989   -9.0154 C   0  0  2  0  0  0  0  0  0  0  0  0
  -14.4130  -42.9515   -8.7636 C   0  0  0  0  0  0  0  0  0  0  0  0
  -12.1415  -42.0150   -8.3379 C   0  0  0  0  0  0  0  0  0  0  0  0
  -11.3801  -43.1200   -8.9536 C   0  0  0  0  0  0  0  0  0  0  0  0
  -11.1876  -43.0446  -10.3107 O   0  0  0  0  0  0  0  0  0  0  0  0
  -10.1058  -42.2160  -10.6911 C   0  0  0  0  0  0  0  0  0  0  0  0
  -10.7260  -41.0302  -11.3811 C   0  0  0  0  0  0  0  0  0  0  0  0
   -9.7845  -40.0775  -12.0501 C   0  0  0  0  0  0  0  0  0  0  0  0
  -10.0257  -38.7091  -11.4624 C   0  0  0  0  0  0  0  0  0  0  0  0
  -11.1105  -38.0345  -12.1478 N   0  0  0  0  0  0  0  0  0  0  0  0
  -16.2664  -39.5493   -7.6639 C   0  0  2  0  0  0  0  0  0  0  0  0
  -16.4692  -40.1777   -6.4476 O   0  0  0  0  0  0  0  0  0  0  0  0
  -17.6001  -39.0914   -8.2085 C   0  0  0  0  0  0  0  0  0  0  0  0
  -18.3707  -38.3707   -7.2684 N   0  0  0  0  0  0  0  0  0  0  0  0
  -19.6746  -37.9370   -7.6468 C   0  0  0  0  0  0  0  0  0  0  0  0
  -20.7816  -38.8714   -7.4118 C   0  0  0  0  0  0  0  0  0  0  0  0
  -20.8344  -39.6258   -6.2321 C   0  0  0  0  0  0  0  0  0  0  0  0
  -21.8493  -40.5200   -6.0196 C   0  0  0  0  0  0  0  0  0  0  0  0
  -22.8564  -40.7254   -6.9346 C   0  0  0  0  0  0  0  0  0  0  0  0
  -22.8043  -39.9859   -8.0891 C   0  0  0  0  0  0  0  0  0  0  0  0
  -21.7904  -39.0817   -8.3182 C   0  0  0  0  0  0  0  0  0  0  0  0
  -21.8633  -38.3762   -9.5004 F   0  0  0  0  0  0  0  0  0  0  0  0
  -21.8972  -41.3203   -4.7581 C   0  0  0  0  0  0  0  0  0  0  0  0
  -20.7650  -42.1021   -4.6772 F   0  0  0  0  0  0  0  0  0  0  0  0
  -22.9787  -42.1723   -4.7412 F   0  0  0  0  0  0  0  0  0  0  0  0
  -21.9150  -40.4657   -3.6770 F   0  0  0  0  0  0  0  0  0  0  0  0
  1  2  1  0
  2  3  1  0
  3  4  1  0
  4  5  2  0
  5  6  1  0
  6  7  2  0
  7  8  1  0
  8  9  2  0
  8 10  1  0
 10 11  2  0
 10 12  1  0
 12 13  1  0
 13 14  1  6
 14 15  1  0
 15 16  1  1
 15 17  1  0
 17 18  1  0
 18 19  1  0
 19 20  1  0
 20 21  1  0
 21 22  1  0
 22 23  1  0
 23 24  1  0
 13 25  1  0
 25 26  1  1
 25 27  1  0
 27 28  1  0
 28 29  1  0
 29 30  1  0
 30 31  2  0
 31 32  1  0
 32 33  2  0
 33 34  1  0
 34 35  2  0
 35 36  1  0
 32 37  1  0
 37 38  1  0
 37 39  1  0
 37 40  1  0
  9  4  1  0
 24  6  1  0
 35 30  1  0
M  END
$$$$
