
     RDKit          3D

 40 42  0  0  0  0  0  0  0  0999 V2000
  -20.7125  -40.2421   -1.3284 C   0  0  0  0  0  0  0  0  0  0  0  0
  -21.6041  -40.6044   -2.3428 O   0  0  0  0  0  0  0  0  0  0  0  0
  -21.6614  -41.9776   -2.3785 C   0  0  0  0  0  0  0  0  0  0  0  0
  -21.1929  -42.4911   -3.6905 C   0  0  0  0  0  0  0  0  0  0  0  0
  -22.0314  -43.1167   -4.5673 C   0  0  0  0  0  0  0  0  0  0  0  0
  -21.6237  -43.6240   -5.8323 C   0  0  0  0  0  0  0  0  0  0  0  0
  -20.3060  -43.4880   -6.2074 C   0  0  0  0  0  0  0  0  0  0  0  0
  -19.4288  -42.8599   -5.3555 C   0  0  0  0  0  0  0  0  0  0  0  0
  -19.8957  -42.3743   -4.1085 C   0  0  0  0  0  0  0  0  0  0  0  0
  -17.9978  -42.5269   -5.5068 C   0  0  0  0  0  0  0  0  0  0  0  0
  -17.1974  -42.6893   -4.4667 O   0  0  0  0  0  0  0  0  0  0  0  0
  -17.2664  -42.0334   -6.6183 N   0  0  0  0  0  0  0  0  0  0  0  0
  -17.5619  -40.8855   -7.4393 C   0  0  1  0  0  0  0  0  0  0  0  0
  -18.8075  -40.9544   -8.2391 C   0  0  0  0  0  0  0  0  0  0  0  0
  -18.6930  -41.9389   -9.3891 C   0  0  2  0  0  0  0  0  0  0  0  0
  -17.2944  -41.8970   -9.9351 C   0  0  0  0  0  0  0  0  0  0  0  0
  -19.7105  -41.5587  -10.4506 C   0  0  0  0  0  0  0  0  0  0  0  0
  -19.8035  -42.5729  -11.5194 C   0  0  0  0  0  0  0  0  0  0  0  0
  -20.0415  -43.8631  -11.1154 O   0  0  0  0  0  0  0  0  0  0  0  0
  -21.4054  -44.1429  -10.8643 C   0  0  0  0  0  0  0  0  0  0  0  0
  -21.5081  -44.3611   -9.3781 C   0  0  0  0  0  0  0  0  0  0  0  0
  -22.8237  -44.8572   -8.8640 C   0  0  0  0  0  0  0  0  0  0  0  0
  -23.3126  -43.8700   -7.8331 C   0  0  0  0  0  0  0  0  0  0  0  0
  -22.7530  -44.1631   -6.5284 N   0  0  0  0  0  0  0  0  0  0  0  0
  -17.4477  -39.5995   -6.6309 C   0  0  2  0  0  0  0  0  0  0  0  0
  -18.5136  -39.5129   -5.7526 O   0  0  0  0  0  0  0  0  0  0  0  0
  -17.4503  -38.3826   -7.5279 C   0  0  0  0  0  0  0  0  0  0  0  0
  -16.1557  -37.9738   -7.9201 N   0  0  0  0  0  0  0  0  0  0  0  0
  -16.0333  -36.8959   -8.8444 C   0  0  0  0  0  0  0  0  0  0  0  0
  -16.8040  -36.9954  -10.0894 C   0  0  0  0  0  0  0  0  0  0  0  0
  -18.1408  -36.5772  -10.1312 C   0  0  0  0  0  0  0  0  0  0  0  0
  -18.8736  -36.6938  -11.2820 C   0  0  0  0  0  0  0  0  0  0  0  0
  -18.3495  -37.2183  -12.4413 C   0  0  0  0  0  0  0  0  0  0  0  0
  -17.0405  -37.6270  -12.3997 C   0  0  0  0  0  0  0  0  0  0  0  0
  -16.2892  -37.5161  -11.2501 C   0  0  0  0  0  0  0  0  0  0  0  0
  -14.9779  -37.9318  -11.3409 F   0  0  0  0  0  0  0  0  0  0  0  0
  -20.2988  -36.2450  -11.3168 C   0  0  0  0  0  0  0  0  0  0  0  0
  -21.1195  -37.3521  -11.3369 F   0  0  0  0  0  0  0  0  0  0  0  0
  -20.5719  -35.5188  -12.4543 F   0  0  0  0  0  0  0  0  0  0  0  0
  -20.5753  -35.5179  -10.1791 F   0  0  0  0  0  0  0  0  0  0  0  0
  1  2  1  0
  2  3  1  0
  3  4  1  0
  4  5  2  0
  5  6  1  0
  6  7  2  0
  7  8  1  0
  8  9  2  0
  8 10  1  0
 10 11  2  0
 10 12  1  0
 12 13  1  0
 13 14  1  1
 14 15  1  0
 15 16  1  6
 15 17  1  0
 17 18  1  0
 18 19  1  0
 19 20  1  0
 20 21  1  0
 21 22  1  0
 22 23  1  0
 23 24  1  0
 13 25  1  0
 25 26  1  1
 25 27  1  0
 27 28  1  0
 28 29  1  0
 29 30  1  0
 30 31  2  0
 31 32  1  0
 32 33  2  0
 33 34  1  0
 34 35  2  0
 35 36  1  0
 32 37  1  0
 37 38  1  0
 37 39  1  0
 37 40  1  0
  9  4  1  0
 24  6  1  0
 35 30  1  0
M  END
$$$$
