
     RDKit          3D

 40 42  0  0  0  0  0  0  0  0999 V2000
  -12.3019  -35.0599  -11.8850 C   0  0  0  0  0  0  0  0  0  0  0  0
  -13.2206  -36.1104  -11.7980 O   0  0  0  0  0  0  0  0  0  0  0  0
  -12.8918  -37.0345  -12.7615 C   0  0  0  0  0  0  0  0  0  0  0  0
  -13.2143  -38.4100  -12.3049 C   0  0  0  0  0  0  0  0  0  0  0  0
  -12.2891  -39.4136  -12.3125 C   0  0  0  0  0  0  0  0  0  0  0  0
  -12.5565  -40.7440  -11.8853 C   0  0  0  0  0  0  0  0  0  0  0  0
  -13.8212  -41.0553  -11.4390 C   0  0  0  0  0  0  0  0  0  0  0  0
  -14.7818  -40.0724  -11.4107 C   0  0  0  0  0  0  0  0  0  0  0  0
  -14.4540  -38.7648  -11.8483 C   0  0  0  0  0  0  0  0  0  0  0  0
  -16.1822  -40.0958  -10.9416 C   0  0  0  0  0  0  0  0  0  0  0  0
  -17.0976  -39.4581  -11.6516 O   0  0  0  0  0  0  0  0  0  0  0  0
  -16.7763  -40.7045   -9.8056 N   0  0  0  0  0  0  0  0  0  0  0  0
  -16.3753  -40.5941   -8.4251 C   0  0  1  0  0  0  0  0  0  0  0  0
  -15.0478  -41.1553   -8.0808 C   0  0  0  0  0  0  0  0  0  0  0  0
  -15.0427  -42.6730   -8.1201 C   0  0  2  0  0  0  0  0  0  0  0  0
  -16.3695  -43.1821   -7.6339 C   0  0  0  0  0  0  0  0  0  0  0  0
  -13.9064  -43.1728   -7.2450 C   0  0  0  0  0  0  0  0  0  0  0  0
  -13.7048  -44.6296   -7.3748 C   0  0  0  0  0  0  0  0  0  0  0  0
  -13.5301  -45.1088   -8.6493 O   0  0  0  0  0  0  0  0  0  0  0  0
  -12.2072  -44.9802   -9.1338 C   0  0  0  0  0  0  0  0  0  0  0  0
  -12.2769  -43.9595  -10.2384 C   0  0  0  0  0  0  0  0  0  0  0  0
  -11.0344  -43.7672  -11.0513 C   0  0  0  0  0  0  0  0  0  0  0  0
  -10.6540  -42.3098  -10.9659 C   0  0  0  0  0  0  0  0  0  0  0  0
  -11.3620  -41.5300  -11.9620 N   0  0  0  0  0  0  0  0  0  0  0  0
  -16.5651  -39.1696   -7.9197 C   0  0  2  0  0  0  0  0  0  0  0  0
  -16.1382  -39.0878   -6.6058 O   0  0  0  0  0  0  0  0  0  0  0  0
  -18.0149  -38.7476   -7.9922 C   0  0  0  0  0  0  0  0  0  0  0  0
  -18.1840  -37.3699   -8.2572 N   0  0  0  0  0  0  0  0  0  0  0  0
  -18.5605  -36.9711   -9.5726 C   0  0  0  0  0  0  0  0  0  0  0  0
  -19.8577  -37.4470  -10.0673 C   0  0  0  0  0  0  0  0  0  0  0  0
  -20.7706  -38.0531   -9.1938 C   0  0  0  0  0  0  0  0  0  0  0  0
  -21.9706  -38.5248   -9.6546 C   0  0  0  0  0  0  0  0  0  0  0  0
  -22.3420  -38.4325  -10.9764 C   0  0  0  0  0  0  0  0  0  0  0  0
  -21.4479  -37.8385  -11.8308 C   0  0  0  0  0  0  0  0  0  0  0  0
  -20.2365  -37.3582  -11.3833 C   0  0  0  0  0  0  0  0  0  0  0  0
  -19.4368  -36.7547  -12.3303 F   0  0  0  0  0  0  0  0  0  0  0  0
  -22.9379  -39.1699   -8.7153 C   0  0  0  0  0  0  0  0  0  0  0  0
  -23.5776  -40.2025   -9.3663 F   0  0  0  0  0  0  0  0  0  0  0  0
  -23.9108  -38.2856   -8.3063 F   0  0  0  0  0  0  0  0  0  0  0  0
  -22.2503  -39.6914   -7.6407 F   0  0  0  0  0  0  0  0  0  0  0  0
  1  2  1  0
  2  3  1  0
  3  4  1  0
  4  5  2  0
  5  6  1  0
  6  7  2  0
  7  8  1  0
  8  9  2  0
  8 10  1  0
 10 11  2  0
 10 12  1  0
 12 13  1  0
 13 14  1  6
 14 15  1  0
 15 16  1  1
 15 17  1  0
 17 18  1  0
 18 19  1  0
 19 20  1  0
 20 21  1  0
 21 22  1  0
 22 23  1  0
 23 24  1  0
 13 25  1  0
 25 26  1  1
 25 27  1  0
 27 28  1  0
 28 29  1  0
 29 30  1  0
 30 31  2  0
 31 32  1  0
 32 33  2  0
 33 34  1  0
 34 35  2  0
 35 36  1  0
 32 37  1  0
 37 38  1  0
 37 39  1  0
 37 40  1  0
  9  4  1  0
 24  6  1  0
 35 30  1  0
M  END
$$$$
