
     RDKit          3D

 40 42  0  0  0  0  0  0  0  0999 V2000
  -22.2873  -39.8609  -12.2833 C   0  0  0  0  0  0  0  0  0  0  0  0
  -21.2517  -39.3627  -13.0797 O   0  0  0  0  0  0  0  0  0  0  0  0
  -20.3700  -38.7039  -12.2557 C   0  0  0  0  0  0  0  0  0  0  0  0
  -19.1238  -39.4916  -12.0793 C   0  0  0  0  0  0  0  0  0  0  0  0
  -18.2185  -39.6544  -13.0878 C   0  0  0  0  0  0  0  0  0  0  0  0
  -17.0141  -40.4011  -12.9615 C   0  0  0  0  0  0  0  0  0  0  0  0
  -16.7327  -41.0063  -11.7574 C   0  0  0  0  0  0  0  0  0  0  0  0
  -17.6160  -40.8635  -10.7137 C   0  0  0  0  0  0  0  0  0  0  0  0
  -18.7990  -40.1057  -10.9009 C   0  0  0  0  0  0  0  0  0  0  0  0
  -17.5563  -41.3426   -9.3179 C   0  0  0  0  0  0  0  0  0  0  0  0
  -18.6602  -41.8147   -8.7637 O   0  0  0  0  0  0  0  0  0  0  0  0
  -16.4798  -41.3975   -8.3948 N   0  0  0  0  0  0  0  0  0  0  0  0
  -15.5834  -40.3361   -8.0089 C   0  0  1  0  0  0  0  0  0  0  0  0
  -14.6968  -39.8075   -9.0721 C   0  0  0  0  0  0  0  0  0  0  0  0
  -13.6085  -40.7960   -9.4509 C   0  0  2  0  0  0  0  0  0  0  0  0
  -13.1676  -41.5372   -8.2211 C   0  0  0  0  0  0  0  0  0  0  0  0
  -12.4563  -40.0273  -10.0737 C   0  0  0  0  0  0  0  0  0  0  0  0
  -11.4347  -40.9257  -10.6472 C   0  0  0  0  0  0  0  0  0  0  0  0
  -11.8829  -41.8624  -11.5451 O   0  0  0  0  0  0  0  0  0  0  0  0
  -12.0444  -41.3651  -12.8597 C   0  0  0  0  0  0  0  0  0  0  0  0
  -13.5277  -41.3755  -13.1182 C   0  0  0  0  0  0  0  0  0  0  0  0
  -13.9655  -41.0655  -14.5160 C   0  0  0  0  0  0  0  0  0  0  0  0
  -14.9068  -39.8885  -14.4491 C   0  0  0  0  0  0  0  0  0  0  0  0
  -16.2627  -40.3238  -14.1781 N   0  0  0  0  0  0  0  0  0  0  0  0
  -16.3337  -39.2394   -7.2641 C   0  0  2  0  0  0  0  0  0  0  0  0
  -15.7213  -39.0111   -6.0442 O   0  0  0  0  0  0  0  0  0  0  0  0
  -17.7763  -39.6230   -7.0252 C   0  0  0  0  0  0  0  0  0  0  0  0
  -18.6956  -38.6438   -7.4644 N   0  0  0  0  0  0  0  0  0  0  0  0
  -19.8655  -38.4103   -6.6846 C   0  0  0  0  0  0  0  0  0  0  0  0
  -20.9164  -39.4335   -6.7374 C   0  0  0  0  0  0  0  0  0  0  0  0
  -21.1018  -40.3155   -5.6645 C   0  0  0  0  0  0  0  0  0  0  0  0
  -22.0617  -41.2905   -5.7195 C   0  0  0  0  0  0  0  0  0  0  0  0
  -22.8836  -41.4569   -6.8106 C   0  0  0  0  0  0  0  0  0  0  0  0
  -22.7017  -40.5925   -7.8604 C   0  0  0  0  0  0  0  0  0  0  0  0
  -21.7409  -39.6059   -7.8209 C   0  0  0  0  0  0  0  0  0  0  0  0
  -21.6747  -38.7801   -8.9228 F   0  0  0  0  0  0  0  0  0  0  0  0
  -22.2520  -42.2268   -4.5701 C   0  0  0  0  0  0  0  0  0  0  0  0
  -21.1064  -42.9746   -4.4037 F   0  0  0  0  0  0  0  0  0  0  0  0
  -23.2814  -43.1108   -4.8040 F   0  0  0  0  0  0  0  0  0  0  0  0
  -22.4680  -41.4983   -3.4202 F   0  0  0  0  0  0  0  0  0  0  0  0
  1  2  1  0
  2  3  1  0
  3  4  1  0
  4  5  2  0
  5  6  1  0
  6  7  2  0
  7  8  1  0
  8  9  2  0
  8 10  1  0
 10 11  2  0
 10 12  1  0
 12 13  1  0
 13 14  1  6
 14 15  1  0
 15 16  1  1
 15 17  1  0
 17 18  1  0
 18 19  1  0
 19 20  1  0
 20 21  1  0
 21 22  1  0
 22 23  1  0
 23 24  1  0
 13 25  1  0
 25 26  1  1
 25 27  1  0
 27 28  1  0
 28 29  1  0
 29 30  1  0
 30 31  2  0
 31 32  1  0
 32 33  2  0
 33 34  1  0
 34 35  2  0
 35 36  1  0
 32 37  1  0
 37 38  1  0
 37 39  1  0
 37 40  1  0
  9  4  1  0
 24  6  1  0
 35 30  1  0
M  END
$$$$
