
     RDKit          3D

 40 42  0  0  0  0  0  0  0  0999 V2000
  -21.5706  -39.2960  -12.3193 C   0  0  0  0  0  0  0  0  0  0  0  0
  -20.2154  -39.5954  -12.4894 O   0  0  0  0  0  0  0  0  0  0  0  0
  -19.9716  -40.7979  -11.8689 C   0  0  0  0  0  0  0  0  0  0  0  0
  -18.5248  -40.9561  -11.5752 C   0  0  0  0  0  0  0  0  0  0  0  0
  -17.5951  -41.1059  -12.5633 C   0  0  0  0  0  0  0  0  0  0  0  0
  -16.2010  -41.2613  -12.3258 C   0  0  0  0  0  0  0  0  0  0  0  0
  -15.7470  -41.2683  -11.0260 C   0  0  0  0  0  0  0  0  0  0  0  0
  -16.6498  -41.1157  -10.0007 C   0  0  0  0  0  0  0  0  0  0  0  0
  -18.0265  -40.9636  -10.3013 C   0  0  0  0  0  0  0  0  0  0  0  0
  -16.4547  -41.0306   -8.5391 C   0  0  0  0  0  0  0  0  0  0  0  0
  -17.3099  -41.6581   -7.7494 O   0  0  0  0  0  0  0  0  0  0  0  0
  -15.4691  -40.3637   -7.7659 N   0  0  0  0  0  0  0  0  0  0  0  0
  -15.0610  -38.9830   -7.8437 C   0  0  1  0  0  0  0  0  0  0  0  0
  -14.4120  -38.5611   -9.1073 C   0  0  0  0  0  0  0  0  0  0  0  0
  -13.0165  -39.1410   -9.2530 C   0  0  2  0  0  0  0  0  0  0  0  0
  -12.3639  -39.1976   -7.9014 C   0  0  0  0  0  0  0  0  0  0  0  0
  -12.2283  -38.2629  -10.2091 C   0  0  0  0  0  0  0  0  0  0  0  0
  -10.9229  -38.8562  -10.5603 C   0  0  0  0  0  0  0  0  0  0  0  0
  -10.9490  -40.1381  -11.0508 O   0  0  0  0  0  0  0  0  0  0  0  0
  -11.2476  -40.2176  -12.4315 C   0  0  0  0  0  0  0  0  0  0  0  0
  -12.6045  -40.8645  -12.5167 C   0  0  0  0  0  0  0  0  0  0  0  0
  -13.0836  -41.2365  -13.8855 C   0  0  0  0  0  0  0  0  0  0  0  0
  -14.4060  -40.5459  -14.1096 C   0  0  0  0  0  0  0  0  0  0  0  0
  -15.4990  -41.3317  -13.5718 N   0  0  0  0  0  0  0  0  0  0  0  0
  -16.1975  -38.0593   -7.4246 C   0  0  2  0  0  0  0  0  0  0  0  0
  -16.2338  -37.9731   -6.0439 O   0  0  0  0  0  0  0  0  0  0  0  0
  -17.5321  -38.5677   -7.9202 C   0  0  0  0  0  0  0  0  0  0  0  0
  -18.6010  -38.2821   -7.0412 N   0  0  0  0  0  0  0  0  0  0  0  0
  -19.8753  -37.9700   -7.5982 C   0  0  0  0  0  0  0  0  0  0  0  0
  -20.9913  -38.8553   -7.2453 C   0  0  0  0  0  0  0  0  0  0  0  0
  -21.2518  -39.1679   -5.9044 C   0  0  0  0  0  0  0  0  0  0  0  0
  -22.2737  -40.0158   -5.5705 C   0  0  0  0  0  0  0  0  0  0  0  0
  -23.0882  -40.5985   -6.5144 C   0  0  0  0  0  0  0  0  0  0  0  0
  -22.8329  -40.2914   -7.8270 C   0  0  0  0  0  0  0  0  0  0  0  0
  -21.8089  -39.4398   -8.1798 C   0  0  0  0  0  0  0  0  0  0  0  0
  -21.6707  -39.1839   -9.5274 F   0  0  0  0  0  0  0  0  0  0  0  0
  -22.5438  -40.3434   -4.1375 C   0  0  0  0  0  0  0  0  0  0  0  0
  -21.8135  -39.4932   -3.3355 F   0  0  0  0  0  0  0  0  0  0  0  0
  -22.1504  -41.6266   -3.8299 F   0  0  0  0  0  0  0  0  0  0  0  0
  -23.8824  -40.1518   -3.8709 F   0  0  0  0  0  0  0  0  0  0  0  0
  1  2  1  0
  2  3  1  0
  3  4  1  0
  4  5  2  0
  5  6  1  0
  6  7  2  0
  7  8  1  0
  8  9  2  0
  8 10  1  0
 10 11  2  0
 10 12  1  0
 12 13  1  0
 13 14  1  6
 14 15  1  0
 15 16  1  1
 15 17  1  0
 17 18  1  0
 18 19  1  0
 19 20  1  0
 20 21  1  0
 21 22  1  0
 22 23  1  0
 23 24  1  0
 13 25  1  0
 25 26  1  1
 25 27  1  0
 27 28  1  0
 28 29  1  0
 29 30  1  0
 30 31  2  0
 31 32  1  0
 32 33  2  0
 33 34  1  0
 34 35  2  0
 35 36  1  0
 32 37  1  0
 37 38  1  0
 37 39  1  0
 37 40  1  0
  9  4  1  0
 24  6  1  0
 35 30  1  0
M  END
$$$$
