
     RDKit          3D

 36 38  0  0  0  0  0  0  0  0999 V2000
  -14.6976  -35.3418  -12.7320 C   0  0  0  0  0  0  0  0  0  0  0  0
  -16.1738  -35.5688  -13.0798 C   0  0  0  0  0  0  0  0  0  0  0  0
  -16.2502  -36.3038  -14.3930 C   0  0  0  0  0  0  0  0  0  0  0  0
  -16.8416  -36.2924  -11.9710 C   0  0  0  0  0  0  0  0  0  0  0  0
  -17.8096  -37.2524  -12.2555 C   0  0  0  0  0  0  0  0  0  0  0  0
  -18.4065  -37.8992  -11.1967 C   0  0  0  0  0  0  0  0  0  0  0  0
  -18.0716  -37.6213   -9.8811 C   0  0  0  0  0  0  0  0  0  0  0  0
  -17.1122  -36.6671   -9.6534 C   0  0  0  0  0  0  0  0  0  0  0  0
  -16.7396  -36.3489   -8.2252 C   0  0  0  0  0  0  0  0  0  0  0  0
  -15.8613  -37.3826   -7.7997 N   0  0  0  0  0  0  0  0  0  0  0  0
  -16.3890  -38.3398   -6.8852 C   0  0  0  0  0  0  0  0  0  0  0  0
  -16.1177  -39.7285   -7.3032 C   0  0  1  0  0  0  0  0  0  0  0  0
  -14.9358  -40.2139   -6.7546 O   0  0  0  0  0  0  0  0  0  0  0  0
  -17.2028  -40.6537   -6.7902 C   0  0  2  0  0  0  0  0  0  0  0  0
  -17.5852  -41.6915   -7.8306 C   0  0  0  0  0  0  0  0  0  0  0  0
  -17.2312  -42.8545   -8.2475 C   0  0  0  0  0  0  0  0  0  0  0  0
  -16.1111  -43.8182   -7.8080 C   0  0  0  0  0  0  0  0  0  0  0  0
  -17.8624  -43.7312   -9.3519 C   0  0  0  0  0  0  0  0  0  0  0  0
  -18.4674  -44.9699   -8.7251 C   0  0  0  0  0  0  0  0  0  0  0  0
  -19.1820  -44.5928   -7.6218 O   0  0  0  0  0  0  0  0  0  0  0  0
  -19.6013  -45.6065   -6.7889 C   0  0  0  0  0  0  0  0  0  0  0  0
  -20.9681  -46.0601   -7.2538 C   0  0  0  0  0  0  0  0  0  0  0  0
  -21.9942  -45.6151   -6.2716 C   0  0  0  0  0  0  0  0  0  0  0  0
  -22.9879  -44.6084   -6.8060 C   0  0  0  0  0  0  0  0  0  0  0  0
  -22.4626  -43.8255   -7.8793 N   0  0  0  0  0  0  0  0  0  0  0  0
  -21.8909  -42.5033   -7.8919 C   0  0  0  0  0  0  0  0  0  0  0  0
  -20.9047  -41.9126   -7.1460 C   0  0  0  0  0  0  0  0  0  0  0  0
  -20.5918  -40.6096   -7.4593 C   0  0  0  0  0  0  0  0  0  0  0  0
  -21.2869  -39.9591   -8.5081 C   0  0  0  0  0  0  0  0  0  0  0  0
  -22.2788  -40.5592   -9.2537 C   0  0  0  0  0  0  0  0  0  0  0  0
  -23.1062  -39.7081  -10.5400 Cl  0  0  0  0  0  0  0  0  0  0  0  0
  -22.5321  -41.8015   -8.9093 N   0  0  0  0  0  0  0  0  0  0  0  0
  -19.5916  -39.6848   -6.8873 C   0  0  0  0  0  0  0  0  0  0  0  0
  -19.9191  -38.3954   -6.8310 O   0  0  0  0  0  0  0  0  0  0  0  0
  -18.3123  -39.8356   -6.3611 N   0  0  0  0  0  0  0  0  0  0  0  0
  -16.4810  -35.9871  -10.6930 C   0  0  0  0  0  0  0  0  0  0  0  0
  1  2  1  0
  2  3  1  0
  2  4  1  0
  4  5  2  0
  5  6  1  0
  6  7  2  0
  7  8  1  0
  8  9  1  0
  9 10  1  0
 10 11  1  0
 11 12  1  0
 12 13  1  1
 12 14  1  0
 14 15  1  0
 15 16  2  0
 16 17  1  0
 16 18  1  0
 18 19  1  0
 19 20  1  0
 20 21  1  0
 21 22  1  0
 22 23  1  0
 23 24  1  0
 24 25  1  0
 25 26  1  0
 26 27  2  0
 27 28  1  0
 28 29  2  0
 29 30  1  0
 30 31  1  0
 30 32  2  0
 28 33  1  0
 33 34  2  0
 33 35  1  0
  8 36  2  0
 32 26  1  0
 14 35  1  6
 36  4  1  0
M  END
$$$$
