
     RDKit          3D

 36 38  0  0  0  0  0  0  0  0999 V2000
  -24.3015  -39.4431   -4.5102 C   0  0  0  0  0  0  0  0  0  0  0  0
  -23.2609  -40.5672   -4.4381 C   0  0  0  0  0  0  0  0  0  0  0  0
  -23.9842  -41.8850   -4.3330 C   0  0  0  0  0  0  0  0  0  0  0  0
  -22.3628  -40.4913   -5.6156 C   0  0  0  0  0  0  0  0  0  0  0  0
  -22.6222  -41.2780   -6.7352 C   0  0  0  0  0  0  0  0  0  0  0  0
  -21.7624  -41.1788   -7.8059 C   0  0  0  0  0  0  0  0  0  0  0  0
  -20.6668  -40.3304   -7.7937 C   0  0  0  0  0  0  0  0  0  0  0  0
  -20.4545  -39.5764   -6.6672 C   0  0  0  0  0  0  0  0  0  0  0  0
  -19.2620  -38.6506   -6.6361 C   0  0  0  0  0  0  0  0  0  0  0  0
  -18.3801  -39.0976   -7.6576 N   0  0  0  0  0  0  0  0  0  0  0  0
  -17.5948  -40.2516   -7.3704 C   0  0  0  0  0  0  0  0  0  0  0  0
  -16.1532  -39.9478   -7.2921 C   0  0  1  0  0  0  0  0  0  0  0  0
  -15.5713  -40.4838   -6.1487 O   0  0  0  0  0  0  0  0  0  0  0  0
  -15.4167  -40.5897   -8.4506 C   0  0  2  0  0  0  0  0  0  0  0  0
  -14.0701  -39.9290   -8.6870 C   0  0  0  0  0  0  0  0  0  0  0  0
  -12.8502  -39.9941   -8.2880 C   0  0  0  0  0  0  0  0  0  0  0  0
  -12.1426  -40.8934   -7.2550 C   0  0  0  0  0  0  0  0  0  0  0  0
  -11.6226  -39.1832   -8.7593 C   0  0  0  0  0  0  0  0  0  0  0  0
  -10.6508  -40.1069   -9.4630 C   0  0  0  0  0  0  0  0  0  0  0  0
  -11.3540  -40.8989  -10.3280 O   0  0  0  0  0  0  0  0  0  0  0  0
  -10.6716  -41.9625  -10.8759 C   0  0  0  0  0  0  0  0  0  0  0  0
  -10.0305  -41.4944  -12.1643 C   0  0  0  0  0  0  0  0  0  0  0  0
  -10.7432  -42.1065  -13.3188 C   0  0  0  0  0  0  0  0  0  0  0  0
  -11.4638  -41.1222  -14.2124 C   0  0  0  0  0  0  0  0  0  0  0  0
  -11.8515  -39.9304  -13.5267 N   0  0  0  0  0  0  0  0  0  0  0  0
  -13.1112  -39.5428  -12.9453 C   0  0  0  0  0  0  0  0  0  0  0  0
  -13.9619  -40.1704  -12.0732 C   0  0  0  0  0  0  0  0  0  0  0  0
  -15.0899  -39.4738  -11.7039 C   0  0  0  0  0  0  0  0  0  0  0  0
  -15.3118  -38.1777  -12.2302 C   0  0  0  0  0  0  0  0  0  0  0  0
  -14.4522  -37.5529  -13.1080 C   0  0  0  0  0  0  0  0  0  0  0  0
  -14.7755  -35.9485  -13.7282 Cl  0  0  0  0  0  0  0  0  0  0  0  0
  -13.3943  -38.2657  -13.4224 N   0  0  0  0  0  0  0  0  0  0  0  0
  -16.1949  -39.8266  -10.7888 C   0  0  0  0  0  0  0  0  0  0  0  0
  -17.4107  -39.3869  -11.1072 O   0  0  0  0  0  0  0  0  0  0  0  0
  -16.2863  -40.5479   -9.6024 N   0  0  0  0  0  0  0  0  0  0  0  0
  -21.2978  -39.6434   -5.5600 C   0  0  0  0  0  0  0  0  0  0  0  0
  1  2  1  0
  2  3  1  0
  2  4  1  0
  4  5  2  0
  5  6  1  0
  6  7  2  0
  7  8  1  0
  8  9  1  0
  9 10  1  0
 10 11  1  0
 11 12  1  0
 12 13  1  1
 12 14  1  0
 14 15  1  0
 15 16  2  0
 16 17  1  0
 16 18  1  0
 18 19  1  0
 19 20  1  0
 20 21  1  0
 21 22  1  0
 22 23  1  0
 23 24  1  0
 24 25  1  0
 25 26  1  0
 26 27  2  0
 27 28  1  0
 28 29  2  0
 29 30  1  0
 30 31  1  0
 30 32  2  0
 28 33  1  0
 33 34  2  0
 33 35  1  0
  8 36  2  0
 32 26  1  0
 14 35  1  6
 36  4  1  0
M  END
$$$$
