
     RDKit          3D

 36 38  0  0  0  0  0  0  0  0999 V2000
  -18.2925  -33.4895  -10.1326 C   0  0  0  0  0  0  0  0  0  0  0  0
  -19.0132  -34.6333  -10.8564 C   0  0  0  0  0  0  0  0  0  0  0  0
  -18.0524  -35.2668  -11.8291 C   0  0  0  0  0  0  0  0  0  0  0  0
  -19.5482  -35.5940   -9.8614 C   0  0  0  0  0  0  0  0  0  0  0  0
  -20.9233  -35.7893   -9.7587 C   0  0  0  0  0  0  0  0  0  0  0  0
  -21.3782  -36.6885   -8.8205 C   0  0  0  0  0  0  0  0  0  0  0  0
  -20.5150  -37.3889   -7.9932 C   0  0  0  0  0  0  0  0  0  0  0  0
  -19.1692  -37.1609   -8.1335 C   0  0  0  0  0  0  0  0  0  0  0  0
  -18.2155  -37.9126   -7.2361 C   0  0  0  0  0  0  0  0  0  0  0  0
  -17.8121  -39.0690   -7.9579 N   0  0  0  0  0  0  0  0  0  0  0  0
  -16.6534  -39.7510   -7.4855 C   0  0  0  0  0  0  0  0  0  0  0  0
  -16.3153  -40.9266   -8.3102 C   0  0  1  0  0  0  0  0  0  0  0  0
  -14.9414  -41.1221   -8.3965 O   0  0  0  0  0  0  0  0  0  0  0  0
  -16.8567  -42.1901   -7.6722 C   0  0  2  0  0  0  0  0  0  0  0  0
  -16.9941  -43.3103   -8.6881 C   0  0  0  0  0  0  0  0  0  0  0  0
  -16.3046  -44.2540   -9.2225 C   0  0  0  0  0  0  0  0  0  0  0  0
  -14.8432  -44.7070   -9.0334 C   0  0  0  0  0  0  0  0  0  0  0  0
  -16.7403  -45.3219  -10.2503 C   0  0  0  0  0  0  0  0  0  0  0  0
  -16.7066  -46.6886   -9.5991 C   0  0  0  0  0  0  0  0  0  0  0  0
  -17.3023  -46.5990   -8.3714 O   0  0  0  0  0  0  0  0  0  0  0  0
  -17.1489  -47.6836   -7.5365 C   0  0  0  0  0  0  0  0  0  0  0  0
  -18.2995  -48.6342   -7.7868 C   0  0  0  0  0  0  0  0  0  0  0  0
  -19.2252  -48.6032   -6.6216 C   0  0  0  0  0  0  0  0  0  0  0  0
  -20.6051  -48.0634   -6.9232 C   0  0  0  0  0  0  0  0  0  0  0  0
  -20.6173  -47.1546   -8.0254 N   0  0  0  0  0  0  0  0  0  0  0  0
  -20.6037  -45.7146   -8.0620 C   0  0  0  0  0  0  0  0  0  0  0  0
  -19.8007  -44.7795   -7.4630 C   0  0  0  0  0  0  0  0  0  0  0  0
  -20.0683  -43.4610   -7.7526 C   0  0  0  0  0  0  0  0  0  0  0  0
  -21.1331  -43.1429   -8.6307 C   0  0  0  0  0  0  0  0  0  0  0  0
  -21.9377  -44.0887   -9.2290 C   0  0  0  0  0  0  0  0  0  0  0  0
  -23.2412  -43.6397  -10.3072 Cl  0  0  0  0  0  0  0  0  0  0  0  0
  -21.6336  -45.3279   -8.9155 N   0  0  0  0  0  0  0  0  0  0  0  0
  -19.4106  -42.2147   -7.3087 C   0  0  0  0  0  0  0  0  0  0  0  0
  -20.1883  -41.1494   -7.1267 O   0  0  0  0  0  0  0  0  0  0  0  0
  -18.0986  -41.8548   -7.0166 N   0  0  0  0  0  0  0  0  0  0  0  0
  -18.6629  -36.2609   -9.0690 C   0  0  0  0  0  0  0  0  0  0  0  0
  1  2  1  0
  2  3  1  0
  2  4  1  0
  4  5  2  0
  5  6  1  0
  6  7  2  0
  7  8  1  0
  8  9  1  0
  9 10  1  0
 10 11  1  0
 11 12  1  0
 12 13  1  1
 12 14  1  0
 14 15  1  0
 15 16  2  0
 16 17  1  0
 16 18  1  0
 18 19  1  0
 19 20  1  0
 20 21  1  0
 21 22  1  0
 22 23  1  0
 23 24  1  0
 24 25  1  0
 25 26  1  0
 26 27  2  0
 27 28  1  0
 28 29  2  0
 29 30  1  0
 30 31  1  0
 30 32  2  0
 28 33  1  0
 33 34  2  0
 33 35  1  0
  8 36  2  0
 32 26  1  0
 14 35  1  6
 36  4  1  0
M  END
$$$$
