
     RDKit          3D

 36 38  0  0  0  0  0  0  0  0999 V2000
  -20.6349  -36.9786   -8.3003 C   0  0  0  0  0  0  0  0  0  0  0  0
  -21.5471  -37.9078   -7.4902 C   0  0  0  0  0  0  0  0  0  0  0  0
  -22.9541  -37.3720   -7.5511 C   0  0  0  0  0  0  0  0  0  0  0  0
  -21.4317  -39.2933   -8.0061 C   0  0  0  0  0  0  0  0  0  0  0  0
  -22.0207  -39.6297   -9.2224 C   0  0  0  0  0  0  0  0  0  0  0  0
  -21.8916  -40.9274   -9.6639 C   0  0  0  0  0  0  0  0  0  0  0  0
  -21.2025  -41.8863   -8.9388 C   0  0  0  0  0  0  0  0  0  0  0  0
  -20.6404  -41.5049   -7.7466 C   0  0  0  0  0  0  0  0  0  0  0  0
  -19.8904  -42.5393   -6.9420 C   0  0  0  0  0  0  0  0  0  0  0  0
  -18.5697  -42.0398   -6.7777 N   0  0  0  0  0  0  0  0  0  0  0  0
  -17.7049  -42.1226   -7.9075 C   0  0  0  0  0  0  0  0  0  0  0  0
  -16.4228  -41.4262   -7.6887 C   0  0  1  0  0  0  0  0  0  0  0  0
  -15.5815  -42.1414   -6.8437 O   0  0  0  0  0  0  0  0  0  0  0  0
  -15.6624  -41.3019   -8.9937 C   0  0  2  0  0  0  0  0  0  0  0  0
  -14.5245  -40.3029   -8.8803 C   0  0  0  0  0  0  0  0  0  0  0  0
  -13.2918  -40.2407   -8.5224 C   0  0  0  0  0  0  0  0  0  0  0  0
  -12.3141  -41.3013   -7.9784 C   0  0  0  0  0  0  0  0  0  0  0  0
  -12.3233  -39.0376   -8.5558 C   0  0  0  0  0  0  0  0  0  0  0  0
  -11.2321  -39.2994   -9.5725 C   0  0  0  0  0  0  0  0  0  0  0  0
  -11.8102  -39.7784  -10.7156 O   0  0  0  0  0  0  0  0  0  0  0  0
  -10.9551  -40.2989  -11.6616 C   0  0  0  0  0  0  0  0  0  0  0  0
  -10.5484  -39.1778  -12.5932 C   0  0  0  0  0  0  0  0  0  0  0  0
  -11.2009  -39.3768  -13.9162 C   0  0  0  0  0  0  0  0  0  0  0  0
  -12.1984  -38.3063  -14.2979 C   0  0  0  0  0  0  0  0  0  0  0  0
  -12.7846  -37.6639  -13.1645 N   0  0  0  0  0  0  0  0  0  0  0  0
  -14.0448  -37.8829  -12.5019 C   0  0  0  0  0  0  0  0  0  0  0  0
  -14.6545  -39.0112  -12.0190 C   0  0  0  0  0  0  0  0  0  0  0  0
  -15.8746  -38.8383  -11.4063 C   0  0  0  0  0  0  0  0  0  0  0  0
  -16.4269  -37.5377  -11.3088 C   0  0  0  0  0  0  0  0  0  0  0  0
  -15.8085  -36.4071  -11.7978 C   0  0  0  0  0  0  0  0  0  0  0  0
  -16.5366  -34.8223  -11.6501 Cl  0  0  0  0  0  0  0  0  0  0  0  0
  -14.6480  -36.6350  -12.3701 N   0  0  0  0  0  0  0  0  0  0  0  0
  -16.7894  -39.8079  -10.7692 C   0  0  0  0  0  0  0  0  0  0  0  0
  -18.0956  -39.5792  -10.8888 O   0  0  0  0  0  0  0  0  0  0  0  0
  -16.6142  -40.9724  -10.0281 N   0  0  0  0  0  0  0  0  0  0  0  0
  -20.7448  -40.2033   -7.2601 C   0  0  0  0  0  0  0  0  0  0  0  0
  1  2  1  0
  2  3  1  0
  2  4  1  0
  4  5  2  0
  5  6  1  0
  6  7  2  0
  7  8  1  0
  8  9  1  0
  9 10  1  0
 10 11  1  0
 11 12  1  0
 12 13  1  1
 12 14  1  0
 14 15  1  0
 15 16  2  0
 16 17  1  0
 16 18  1  0
 18 19  1  0
 19 20  1  0
 20 21  1  0
 21 22  1  0
 22 23  1  0
 23 24  1  0
 24 25  1  0
 25 26  1  0
 26 27  2  0
 27 28  1  0
 28 29  2  0
 29 30  1  0
 30 31  1  0
 30 32  2  0
 28 33  1  0
 33 34  2  0
 33 35  1  0
  8 36  2  0
 32 26  1  0
 14 35  1  6
 36  4  1  0
M  END
$$$$
