
     RDKit          3D

 36 38  0  0  0  0  0  0  0  0999 V2000
  -24.7937  -38.4243   -7.6562 C   0  0  0  0  0  0  0  0  0  0  0  0
  -24.2719  -39.7357   -7.0564 C   0  0  0  0  0  0  0  0  0  0  0  0
  -24.2761  -40.7909   -8.1322 C   0  0  0  0  0  0  0  0  0  0  0  0
  -22.9295  -39.5147   -6.4666 C   0  0  0  0  0  0  0  0  0  0  0  0
  -22.6943  -39.8531   -5.1362 C   0  0  0  0  0  0  0  0  0  0  0  0
  -21.4347  -39.6296   -4.6273 C   0  0  0  0  0  0  0  0  0  0  0  0
  -20.4167  -39.0862   -5.3946 C   0  0  0  0  0  0  0  0  0  0  0  0
  -20.6989  -38.7696   -6.6996 C   0  0  0  0  0  0  0  0  0  0  0  0
  -19.6019  -38.1720   -7.5476 C   0  0  0  0  0  0  0  0  0  0  0  0
  -18.5311  -39.1070   -7.5361 N   0  0  0  0  0  0  0  0  0  0  0  0
  -17.3615  -38.7373   -6.8104 C   0  0  0  0  0  0  0  0  0  0  0  0
  -16.1451  -38.7739   -7.6445 C   0  0  1  0  0  0  0  0  0  0  0  0
  -15.1074  -38.0397   -7.0810 O   0  0  0  0  0  0  0  0  0  0  0  0
  -15.6192  -40.1915   -7.7456 C   0  0  2  0  0  0  0  0  0  0  0  0
  -15.2931  -40.5617   -9.1817 C   0  0  0  0  0  0  0  0  0  0  0  0
  -14.3332  -40.4821  -10.0325 C   0  0  0  0  0  0  0  0  0  0  0  0
  -12.9119  -39.8919   -9.9417 C   0  0  0  0  0  0  0  0  0  0  0  0
  -14.2660  -41.0094  -11.4830 C   0  0  0  0  0  0  0  0  0  0  0  0
  -13.2419  -42.1218  -11.5659 C   0  0  0  0  0  0  0  0  0  0  0  0
  -13.4353  -42.9690  -10.5100 O   0  0  0  0  0  0  0  0  0  0  0  0
  -12.4475  -43.9023  -10.2859 C   0  0  0  0  0  0  0  0  0  0  0  0
  -12.7932  -45.1486  -11.0718 C   0  0  0  0  0  0  0  0  0  0  0  0
  -13.2142  -46.2222  -10.1306 C   0  0  0  0  0  0  0  0  0  0  0  0
  -14.6556  -46.6573  -10.2700 C   0  0  0  0  0  0  0  0  0  0  0  0
  -15.4971  -45.6305  -10.7977 N   0  0  0  0  0  0  0  0  0  0  0  0
  -16.3761  -44.6985  -10.1389 C   0  0  0  0  0  0  0  0  0  0  0  0
  -16.1941  -43.8353   -9.0902 C   0  0  0  0  0  0  0  0  0  0  0  0
  -17.2734  -43.0576   -8.7377 C   0  0  0  0  0  0  0  0  0  0  0  0
  -18.4878  -43.1850   -9.4555 C   0  0  0  0  0  0  0  0  0  0  0  0
  -18.6641  -44.0563  -10.5089 C   0  0  0  0  0  0  0  0  0  0  0  0
  -20.1880  -44.1732  -11.3619 Cl  0  0  0  0  0  0  0  0  0  0  0  0
  -17.5999  -44.7701  -10.7990 N   0  0  0  0  0  0  0  0  0  0  0  0
  -17.4298  -42.0282   -7.6895 C   0  0  0  0  0  0  0  0  0  0  0  0
  -18.6188  -41.9412   -7.0966 O   0  0  0  0  0  0  0  0  0  0  0  0
  -16.5915  -41.0664   -7.1342 N   0  0  0  0  0  0  0  0  0  0  0  0
  -21.9585  -38.9783   -7.2577 C   0  0  0  0  0  0  0  0  0  0  0  0
  1  2  1  0
  2  3  1  0
  2  4  1  0
  4  5  2  0
  5  6  1  0
  6  7  2  0
  7  8  1  0
  8  9  1  0
  9 10  1  0
 10 11  1  0
 11 12  1  0
 12 13  1  1
 12 14  1  0
 14 15  1  0
 15 16  2  0
 16 17  1  0
 16 18  1  0
 18 19  1  0
 19 20  1  0
 20 21  1  0
 21 22  1  0
 22 23  1  0
 23 24  1  0
 24 25  1  0
 25 26  1  0
 26 27  2  0
 27 28  1  0
 28 29  2  0
 29 30  1  0
 30 31  1  0
 30 32  2  0
 28 33  1  0
 33 34  2  0
 33 35  1  0
  8 36  2  0
 32 26  1  0
 14 35  1  6
 36  4  1  0
M  END
$$$$
