
     RDKit          3D

 36 38  0  0  0  0  0  0  0  0999 V2000
  -21.9261  -43.1178   -5.3991 C   0  0  0  0  0  0  0  0  0  0  0  0
  -22.7446  -41.9269   -5.9127 C   0  0  0  0  0  0  0  0  0  0  0  0
  -24.1139  -41.9795   -5.2859 C   0  0  0  0  0  0  0  0  0  0  0  0
  -22.0228  -40.6643   -5.6233 C   0  0  0  0  0  0  0  0  0  0  0  0
  -22.0086  -40.1573   -4.3262 C   0  0  0  0  0  0  0  0  0  0  0  0
  -21.3288  -38.9814   -4.1012 C   0  0  0  0  0  0  0  0  0  0  0  0
  -20.6719  -38.3053   -5.1168 C   0  0  0  0  0  0  0  0  0  0  0  0
  -20.7156  -38.8457   -6.3773 C   0  0  0  0  0  0  0  0  0  0  0  0
  -20.0089  -38.1183   -7.4961 C   0  0  0  0  0  0  0  0  0  0  0  0
  -18.7211  -37.7752   -7.0014 N   0  0  0  0  0  0  0  0  0  0  0  0
  -17.8569  -38.8538   -6.6535 C   0  0  0  0  0  0  0  0  0  0  0  0
  -16.4521  -38.5918   -7.0203 C   0  0  1  0  0  0  0  0  0  0  0  0
  -15.6559  -38.3733   -5.9016 O   0  0  0  0  0  0  0  0  0  0  0  0
  -15.8521  -39.8039   -7.7040 C   0  0  2  0  0  0  0  0  0  0  0  0
  -15.1647  -39.4248   -9.0038 C   0  0  0  0  0  0  0  0  0  0  0  0
  -14.0292  -39.0107   -9.4406 C   0  0  0  0  0  0  0  0  0  0  0  0
  -12.7033  -38.6745   -8.7294 C   0  0  0  0  0  0  0  0  0  0  0  0
  -13.5814  -38.7365  -10.8935 C   0  0  0  0  0  0  0  0  0  0  0  0
  -12.5180  -39.7394  -11.2889 C   0  0  0  0  0  0  0  0  0  0  0  0
  -12.9265  -40.9833  -10.8939 O   0  0  0  0  0  0  0  0  0  0  0  0
  -11.9824  -41.9844  -10.9526 C   0  0  0  0  0  0  0  0  0  0  0  0
  -12.0651  -42.6270  -12.3202 C   0  0  0  0  0  0  0  0  0  0  0  0
  -12.6550  -43.9873  -12.1894 C   0  0  0  0  0  0  0  0  0  0  0  0
  -13.9956  -44.1640  -12.8663 C   0  0  0  0  0  0  0  0  0  0  0  0
  -14.7275  -42.9421  -12.9765 N   0  0  0  0  0  0  0  0  0  0  0  0
  -15.7842  -42.3977  -12.1628 C   0  0  0  0  0  0  0  0  0  0  0  0
  -15.9073  -42.2024  -10.8120 C   0  0  0  0  0  0  0  0  0  0  0  0
  -17.0751  -41.6183  -10.3776 C   0  0  0  0  0  0  0  0  0  0  0  0
  -18.0674  -41.2585  -11.3221 C   0  0  0  0  0  0  0  0  0  0  0  0
  -17.9374  -41.4589  -12.6796 C   0  0  0  0  0  0  0  0  0  0  0  0
  -19.1962  -40.9947  -13.8036 Cl  0  0  0  0  0  0  0  0  0  0  0  0
  -16.8025  -42.0184  -13.0334 N   0  0  0  0  0  0  0  0  0  0  0  0
  -17.5331  -41.2503   -9.0219 C   0  0  0  0  0  0  0  0  0  0  0  0
  -18.8345  -41.3709   -8.7672 O   0  0  0  0  0  0  0  0  0  0  0  0
  -16.9036  -40.7786   -7.8742 N   0  0  0  0  0  0  0  0  0  0  0  0
  -21.3907  -40.0332   -6.6522 C   0  0  0  0  0  0  0  0  0  0  0  0
  1  2  1  0
  2  3  1  0
  2  4  1  0
  4  5  2  0
  5  6  1  0
  6  7  2  0
  7  8  1  0
  8  9  1  0
  9 10  1  0
 10 11  1  0
 11 12  1  0
 12 13  1  1
 12 14  1  0
 14 15  1  0
 15 16  2  0
 16 17  1  0
 16 18  1  0
 18 19  1  0
 19 20  1  0
 20 21  1  0
 21 22  1  0
 22 23  1  0
 23 24  1  0
 24 25  1  0
 25 26  1  0
 26 27  2  0
 27 28  1  0
 28 29  2  0
 29 30  1  0
 30 31  1  0
 30 32  2  0
 28 33  1  0
 33 34  2  0
 33 35  1  0
  8 36  2  0
 32 26  1  0
 14 35  1  6
 36  4  1  0
M  END
$$$$
