
     RDKit          3D

 36 38  0  0  0  0  0  0  0  0999 V2000
  -22.7247  -39.6394   -4.5907 C   0  0  0  0  0  0  0  0  0  0  0  0
  -22.2897  -40.5875   -5.7148 C   0  0  0  0  0  0  0  0  0  0  0  0
  -23.4476  -41.4886   -6.0580 C   0  0  0  0  0  0  0  0  0  0  0  0
  -21.8063  -39.7982   -6.8734 C   0  0  0  0  0  0  0  0  0  0  0  0
  -22.5341  -39.7961   -8.0608 C   0  0  0  0  0  0  0  0  0  0  0  0
  -22.0491  -39.0519   -9.1127 C   0  0  0  0  0  0  0  0  0  0  0  0
  -20.8764  -38.3199   -9.0173 C   0  0  0  0  0  0  0  0  0  0  0  0
  -20.1960  -38.3547   -7.8263 C   0  0  0  0  0  0  0  0  0  0  0  0
  -18.9136  -37.5664   -7.7077 C   0  0  0  0  0  0  0  0  0  0  0  0
  -17.8998  -38.3554   -8.3165 N   0  0  0  0  0  0  0  0  0  0  0  0
  -16.8585  -38.8318   -7.4681 C   0  0  0  0  0  0  0  0  0  0  0  0
  -15.8908  -39.6831   -8.1862 C   0  0  1  0  0  0  0  0  0  0  0  0
  -14.5792  -39.3957   -7.8252 O   0  0  0  0  0  0  0  0  0  0  0  0
  -16.0946  -41.1385   -7.8162 C   0  0  2  0  0  0  0  0  0  0  0  0
  -16.2448  -42.0095   -9.0508 C   0  0  0  0  0  0  0  0  0  0  0  0
  -15.5298  -42.6545   -9.9020 C   0  0  0  0  0  0  0  0  0  0  0  0
  -14.0064  -42.8380  -10.0507 C   0  0  0  0  0  0  0  0  0  0  0  0
  -15.9796  -43.5324  -11.0909 C   0  0  0  0  0  0  0  0  0  0  0  0
  -15.6072  -44.9748  -10.8190 C   0  0  0  0  0  0  0  0  0  0  0  0
  -15.9644  -45.2803   -9.5348 O   0  0  0  0  0  0  0  0  0  0  0  0
  -15.4856  -46.4705   -9.0335 C   0  0  0  0  0  0  0  0  0  0  0  0
  -16.4982  -47.5513   -9.3442 C   0  0  0  0  0  0  0  0  0  0  0  0
  -17.1778  -47.9645   -8.0861 C   0  0  0  0  0  0  0  0  0  0  0  0
  -18.6575  -47.6569   -8.0350 C   0  0  0  0  0  0  0  0  0  0  0  0
  -19.0228  -46.5472   -8.8572 N   0  0  0  0  0  0  0  0  0  0  0  0
  -19.2436  -45.1618   -8.5299 C   0  0  0  0  0  0  0  0  0  0  0  0
  -18.4988  -44.2425   -7.8385 C   0  0  0  0  0  0  0  0  0  0  0  0
  -19.0212  -42.9729   -7.7425 C   0  0  0  0  0  0  0  0  0  0  0  0
  -20.2705  -42.6862   -8.3451 C   0  0  0  0  0  0  0  0  0  0  0  0
  -21.0150  -43.6164   -9.0382 C   0  0  0  0  0  0  0  0  0  0  0  0
  -22.5544  -43.2079   -9.7640 Cl  0  0  0  0  0  0  0  0  0  0  0  0
  -20.4652  -44.8082   -9.0968 N   0  0  0  0  0  0  0  0  0  0  0  0
  -18.4958  -41.7509   -7.0993 C   0  0  0  0  0  0  0  0  0  0  0  0
  -19.3826  -40.9292   -6.5414 O   0  0  0  0  0  0  0  0  0  0  0  0
  -17.2257  -41.2111   -6.9218 N   0  0  0  0  0  0  0  0  0  0  0  0
  -20.6486  -39.0933   -6.7348 C   0  0  0  0  0  0  0  0  0  0  0  0
  1  2  1  0
  2  3  1  0
  2  4  1  0
  4  5  2  0
  5  6  1  0
  6  7  2  0
  7  8  1  0
  8  9  1  0
  9 10  1  0
 10 11  1  0
 11 12  1  0
 12 13  1  1
 12 14  1  0
 14 15  1  0
 15 16  2  0
 16 17  1  0
 16 18  1  0
 18 19  1  0
 19 20  1  0
 20 21  1  0
 21 22  1  0
 22 23  1  0
 23 24  1  0
 24 25  1  0
 25 26  1  0
 26 27  2  0
 27 28  1  0
 28 29  2  0
 29 30  1  0
 30 31  1  0
 30 32  2  0
 28 33  1  0
 33 34  2  0
 33 35  1  0
  8 36  2  0
 32 26  1  0
 14 35  1  1
 36  4  1  0
M  END
$$$$
