
     RDKit          3D

 36 38  0  0  0  0  0  0  0  0999 V2000
  -21.2723  -42.3861   -5.1990 C   0  0  0  0  0  0  0  0  0  0  0  0
  -22.4568  -41.8017   -5.9781 C   0  0  0  0  0  0  0  0  0  0  0  0
  -23.6889  -41.8884   -5.1150 C   0  0  0  0  0  0  0  0  0  0  0  0
  -22.1410  -40.4156   -6.3997 C   0  0  0  0  0  0  0  0  0  0  0  0
  -22.8107  -39.8526   -7.4833 C   0  0  0  0  0  0  0  0  0  0  0  0
  -22.4857  -38.5640   -7.8430 C   0  0  0  0  0  0  0  0  0  0  0  0
  -21.5262  -37.8301   -7.1641 C   0  0  0  0  0  0  0  0  0  0  0  0
  -20.8947  -38.4296   -6.1036 C   0  0  0  0  0  0  0  0  0  0  0  0
  -19.8429  -37.6451   -5.3564 C   0  0  0  0  0  0  0  0  0  0  0  0
  -18.7189  -37.5551   -6.2220 N   0  0  0  0  0  0  0  0  0  0  0  0
  -17.7998  -38.6440   -6.1988 C   0  0  0  0  0  0  0  0  0  0  0  0
  -16.9434  -38.6850   -7.3995 C   0  0  1  0  0  0  0  0  0  0  0  0
  -15.7120  -38.0781   -7.1794 O   0  0  0  0  0  0  0  0  0  0  0  0
  -16.6193  -40.1194   -7.7657 C   0  0  2  0  0  0  0  0  0  0  0  0
  -15.9356  -40.2061   -9.1188 C   0  0  0  0  0  0  0  0  0  0  0  0
  -14.7644  -40.1407   -9.6437 C   0  0  0  0  0  0  0  0  0  0  0  0
  -13.3660  -39.9111   -9.0366 C   0  0  0  0  0  0  0  0  0  0  0  0
  -14.3431  -40.3167  -11.1196 C   0  0  0  0  0  0  0  0  0  0  0  0
  -13.5107  -41.5742  -11.2575 C   0  0  0  0  0  0  0  0  0  0  0  0
  -14.1294  -42.5815  -10.5701 O   0  0  0  0  0  0  0  0  0  0  0  0
  -13.3975  -43.7330  -10.3820 C   0  0  0  0  0  0  0  0  0  0  0  0
  -13.6670  -44.6558  -11.5507 C   0  0  0  0  0  0  0  0  0  0  0  0
  -14.4985  -45.8015  -11.0909 C   0  0  0  0  0  0  0  0  0  0  0  0
  -15.8792  -45.8683  -11.7039 C   0  0  0  0  0  0  0  0  0  0  0  0
  -16.3691  -44.5892  -12.1097 N   0  0  0  0  0  0  0  0  0  0  0  0
  -17.2622  -43.6686  -11.4540 C   0  0  0  0  0  0  0  0  0  0  0  0
  -17.2804  -43.1346  -10.1920 C   0  0  0  0  0  0  0  0  0  0  0  0
  -18.2932  -42.2453   -9.9138 C   0  0  0  0  0  0  0  0  0  0  0  0
  -19.2430  -41.9348  -10.9176 C   0  0  0  0  0  0  0  0  0  0  0  0
  -19.2191  -42.4766  -12.1847 C   0  0  0  0  0  0  0  0  0  0  0  0
  -20.4191  -42.0576  -13.3880 Cl  0  0  0  0  0  0  0  0  0  0  0  0
  -18.2302  -43.3166  -12.3909 N   0  0  0  0  0  0  0  0  0  0  0  0
  -18.6067  -41.4801   -8.6894 C   0  0  0  0  0  0  0  0  0  0  0  0
  -19.8934  -41.2776   -8.4128 O   0  0  0  0  0  0  0  0  0  0  0  0
  -17.8442  -40.8801   -7.6921 N   0  0  0  0  0  0  0  0  0  0  0  0
  -21.1908  -39.7310   -5.7032 C   0  0  0  0  0  0  0  0  0  0  0  0
  1  2  1  0
  2  3  1  0
  2  4  1  0
  4  5  2  0
  5  6  1  0
  6  7  2  0
  7  8  1  0
  8  9  1  0
  9 10  1  0
 10 11  1  0
 11 12  1  0
 12 13  1  1
 12 14  1  0
 14 15  1  0
 15 16  2  0
 16 17  1  0
 16 18  1  0
 18 19  1  0
 19 20  1  0
 20 21  1  0
 21 22  1  0
 22 23  1  0
 23 24  1  0
 24 25  1  0
 25 26  1  0
 26 27  2  0
 27 28  1  0
 28 29  2  0
 29 30  1  0
 30 31  1  0
 30 32  2  0
 28 33  1  0
 33 34  2  0
 33 35  1  0
  8 36  2  0
 32 26  1  0
 14 35  1  6
 36  4  1  0
M  END
$$$$
