
     RDKit          3D

 36 38  0  0  0  0  0  0  0  0999 V2000
  -22.1815  -40.1389   -5.6917 C   0  0  0  0  0  0  0  0  0  0  0  0
  -22.8024  -39.0304   -6.5502 C   0  0  0  0  0  0  0  0  0  0  0  0
  -23.2411  -37.9097   -5.6435 C   0  0  0  0  0  0  0  0  0  0  0  0
  -21.8298  -38.5946   -7.5813 C   0  0  0  0  0  0  0  0  0  0  0  0
  -22.1311  -38.7614   -8.9308 C   0  0  0  0  0  0  0  0  0  0  0  0
  -21.1997  -38.3454   -9.8553 C   0  0  0  0  0  0  0  0  0  0  0  0
  -19.9935  -37.7760   -9.4798 C   0  0  0  0  0  0  0  0  0  0  0  0
  -19.7439  -37.6336   -8.1381 C   0  0  0  0  0  0  0  0  0  0  0  0
  -18.4318  -37.0195   -7.7122 C   0  0  0  0  0  0  0  0  0  0  0  0
  -17.4109  -37.8967   -8.1695 N   0  0  0  0  0  0  0  0  0  0  0  0
  -17.3439  -39.1814   -7.5562 C   0  0  0  0  0  0  0  0  0  0  0  0
  -16.3533  -40.0638   -8.2018 C   0  0  1  0  0  0  0  0  0  0  0  0
  -15.0549  -39.7641   -7.8048 O   0  0  0  0  0  0  0  0  0  0  0  0
  -16.5756  -41.5020   -7.7794 C   0  0  2  0  0  0  0  0  0  0  0  0
  -16.8314  -42.3994   -8.9773 C   0  0  0  0  0  0  0  0  0  0  0  0
  -16.1926  -43.0881   -9.8544 C   0  0  0  0  0  0  0  0  0  0  0  0
  -14.6882  -43.3231  -10.0952 C   0  0  0  0  0  0  0  0  0  0  0  0
  -16.7445  -43.9819  -10.9872 C   0  0  0  0  0  0  0  0  0  0  0  0
  -16.3982  -45.4277  -10.6999 C   0  0  0  0  0  0  0  0  0  0  0  0
  -16.6801  -45.6888   -9.3875 O   0  0  0  0  0  0  0  0  0  0  0  0
  -16.2052  -46.8801   -8.8851 C   0  0  0  0  0  0  0  0  0  0  0  0
  -17.2675  -47.9362   -9.1002 C   0  0  0  0  0  0  0  0  0  0  0  0
  -17.8759  -48.2954   -7.7901 C   0  0  0  0  0  0  0  0  0  0  0  0
  -19.3394  -47.9404   -7.6528 C   0  0  0  0  0  0  0  0  0  0  0  0
  -19.7242  -46.8413   -8.4803 N   0  0  0  0  0  0  0  0  0  0  0  0
  -19.8822  -45.4417   -8.1780 C   0  0  0  0  0  0  0  0  0  0  0  0
  -19.0671  -44.5286   -7.5615 C   0  0  0  0  0  0  0  0  0  0  0  0
  -19.5443  -43.2413   -7.4674 C   0  0  0  0  0  0  0  0  0  0  0  0
  -20.8211  -42.9312   -7.9963 C   0  0  0  0  0  0  0  0  0  0  0  0
  -21.6362  -43.8551   -8.6143 C   0  0  0  0  0  0  0  0  0  0  0  0
  -23.2068  -43.4173   -9.2509 Cl  0  0  0  0  0  0  0  0  0  0  0  0
  -21.1270  -45.0647   -8.6749 N   0  0  0  0  0  0  0  0  0  0  0  0
  -18.9423  -42.0202   -6.8934 C   0  0  0  0  0  0  0  0  0  0  0  0
  -19.7663  -41.1571   -6.3027 O   0  0  0  0  0  0  0  0  0  0  0  0
  -17.6479  -41.5161   -6.8126 N   0  0  0  0  0  0  0  0  0  0  0  0
  -20.6566  -38.0396   -7.1666 C   0  0  0  0  0  0  0  0  0  0  0  0
  1  2  1  0
  2  3  1  0
  2  4  1  0
  4  5  2  0
  5  6  1  0
  6  7  2  0
  7  8  1  0
  8  9  1  0
  9 10  1  0
 10 11  1  0
 11 12  1  0
 12 13  1  1
 12 14  1  0
 14 15  1  0
 15 16  2  0
 16 17  1  0
 16 18  1  0
 18 19  1  0
 19 20  1  0
 20 21  1  0
 21 22  1  0
 22 23  1  0
 23 24  1  0
 24 25  1  0
 25 26  1  0
 26 27  2  0
 27 28  1  0
 28 29  2  0
 29 30  1  0
 30 31  1  0
 30 32  2  0
 28 33  1  0
 33 34  2  0
 33 35  1  0
  8 36  2  0
 32 26  1  0
 14 35  1  1
 36  4  1  0
M  END
$$$$
