
     RDKit          3D

 36 38  0  0  0  0  0  0  0  0999 V2000
  -21.4449  -37.3056   -9.0070 C   0  0  0  0  0  0  0  0  0  0  0  0
  -20.9929  -36.5870  -10.2842 C   0  0  0  0  0  0  0  0  0  0  0  0
  -21.0582  -35.1003  -10.0473 C   0  0  0  0  0  0  0  0  0  0  0  0
  -19.6383  -37.0541  -10.6660 C   0  0  0  0  0  0  0  0  0  0  0  0
  -19.4469  -37.6973  -11.8864 C   0  0  0  0  0  0  0  0  0  0  0  0
  -18.1739  -38.1169  -12.2011 C   0  0  0  0  0  0  0  0  0  0  0  0
  -17.1010  -37.9173  -11.3471 C   0  0  0  0  0  0  0  0  0  0  0  0
  -17.3416  -37.2788  -10.1566 C   0  0  0  0  0  0  0  0  0  0  0  0
  -16.1839  -37.0580   -9.2127 C   0  0  0  0  0  0  0  0  0  0  0  0
  -15.9075  -38.3179   -8.6150 N   0  0  0  0  0  0  0  0  0  0  0  0
  -16.3592  -38.5085   -7.2768 C   0  0  0  0  0  0  0  0  0  0  0  0
  -16.2595  -39.9150   -6.8427 C   0  0  1  0  0  0  0  0  0  0  0  0
  -16.0518  -40.0214   -5.4720 O   0  0  0  0  0  0  0  0  0  0  0  0
  -17.5644  -40.6399   -7.1039 C   0  0  2  0  0  0  0  0  0  0  0  0
  -17.3875  -42.1462   -7.0289 C   0  0  0  0  0  0  0  0  0  0  0  0
  -17.3936  -43.1036   -6.1717 C   0  0  0  0  0  0  0  0  0  0  0  0
  -17.6097  -43.1290   -4.6455 C   0  0  0  0  0  0  0  0  0  0  0  0
  -17.2171  -44.6213   -6.3996 C   0  0  0  0  0  0  0  0  0  0  0  0
  -18.5148  -45.3317   -6.0766 C   0  0  0  0  0  0  0  0  0  0  0  0
  -19.5433  -44.6410   -6.6555 O   0  0  0  0  0  0  0  0  0  0  0  0
  -20.8155  -45.0007   -6.2694 C   0  0  0  0  0  0  0  0  0  0  0  0
  -21.3009  -46.0851   -7.2068 C   0  0  0  0  0  0  0  0  0  0  0  0
  -22.3553  -45.5287   -8.0980 C   0  0  0  0  0  0  0  0  0  0  0  0
  -21.9877  -45.4864   -9.5642 C   0  0  0  0  0  0  0  0  0  0  0  0
  -20.5783  -45.4003   -9.7812 N   0  0  0  0  0  0  0  0  0  0  0  0
  -19.7336  -44.2676  -10.0616 C   0  0  0  0  0  0  0  0  0  0  0  0
  -19.5871  -43.0475   -9.4550 C   0  0  0  0  0  0  0  0  0  0  0  0
  -18.6423  -42.2024   -9.9905 C   0  0  0  0  0  0  0  0  0  0  0  0
  -17.8885  -42.6226  -11.1136 C   0  0  0  0  0  0  0  0  0  0  0  0
  -18.0418  -43.8510  -11.7196 C   0  0  0  0  0  0  0  0  0  0  0  0
  -17.0828  -44.3196  -13.1067 Cl  0  0  0  0  0  0  0  0  0  0  0  0
  -18.9565  -44.6132  -11.1641 N   0  0  0  0  0  0  0  0  0  0  0  0
  -18.2130  -40.8459   -9.5922 C   0  0  0  0  0  0  0  0  0  0  0  0
  -17.8628  -40.0093  -10.5671 O   0  0  0  0  0  0  0  0  0  0  0  0
  -18.0738  -40.1847   -8.3759 N   0  0  0  0  0  0  0  0  0  0  0  0
  -18.6127  -36.8364   -9.7958 C   0  0  0  0  0  0  0  0  0  0  0  0
  1  2  1  0
  2  3  1  0
  2  4  1  0
  4  5  2  0
  5  6  1  0
  6  7  2  0
  7  8  1  0
  8  9  1  0
  9 10  1  0
 10 11  1  0
 11 12  1  0
 12 13  1  1
 12 14  1  0
 14 15  1  0
 15 16  2  0
 16 17  1  0
 16 18  1  0
 18 19  1  0
 19 20  1  0
 20 21  1  0
 21 22  1  0
 22 23  1  0
 23 24  1  0
 24 25  1  0
 25 26  1  0
 26 27  2  0
 27 28  1  0
 28 29  2  0
 29 30  1  0
 30 31  1  0
 30 32  2  0
 28 33  1  0
 33 34  2  0
 33 35  1  0
  8 36  2  0
 32 26  1  0
 14 35  1  6
 36  4  1  0
M  END
$$$$
