
     RDKit          3D

 36 38  0  0  0  0  0  0  0  0999 V2000
  -24.1911  -38.8353   -8.9932 C   0  0  0  0  0  0  0  0  0  0  0  0
  -23.0354  -39.8406   -9.0665 C   0  0  0  0  0  0  0  0  0  0  0  0
  -22.2918  -39.6239  -10.3591 C   0  0  0  0  0  0  0  0  0  0  0  0
  -22.1719  -39.6953   -7.8698 C   0  0  0  0  0  0  0  0  0  0  0  0
  -22.2091  -40.6626   -6.8685 C   0  0  0  0  0  0  0  0  0  0  0  0
  -21.3931  -40.4884   -5.7733 C   0  0  0  0  0  0  0  0  0  0  0  0
  -20.5528  -39.3936   -5.6485 C   0  0  0  0  0  0  0  0  0  0  0  0
  -20.5529  -38.4686   -6.6620 C   0  0  0  0  0  0  0  0  0  0  0  0
  -19.6465  -37.2672   -6.5387 C   0  0  0  0  0  0  0  0  0  0  0  0
  -18.6874  -37.3795   -7.5819 N   0  0  0  0  0  0  0  0  0  0  0  0
  -17.7168  -38.4153   -7.4552 C   0  0  0  0  0  0  0  0  0  0  0  0
  -16.8988  -38.5739   -8.6728 C   0  0  1  0  0  0  0  0  0  0  0  0
  -16.2652  -37.3889   -9.0301 O   0  0  0  0  0  0  0  0  0  0  0  0
  -15.7786  -39.5649   -8.4285 C   0  0  2  0  0  0  0  0  0  0  0  0
  -15.3872  -40.2864   -9.7060 C   0  0  0  0  0  0  0  0  0  0  0  0
  -14.6170  -40.1495  -10.7257 C   0  0  0  0  0  0  0  0  0  0  0  0
  -13.6317  -39.0389  -11.1407 C   0  0  0  0  0  0  0  0  0  0  0  0
  -14.3818  -41.1135  -11.9098 C   0  0  0  0  0  0  0  0  0  0  0  0
  -12.9628  -41.6392  -11.8550 C   0  0  0  0  0  0  0  0  0  0  0  0
  -12.6883  -42.0135  -10.5686 O   0  0  0  0  0  0  0  0  0  0  0  0
  -11.3700  -42.2888  -10.2799 C   0  0  0  0  0  0  0  0  0  0  0  0
  -11.1328  -43.7621  -10.5314 C   0  0  0  0  0  0  0  0  0  0  0  0
  -10.9595  -44.4615   -9.2290 C   0  0  0  0  0  0  0  0  0  0  0  0
  -12.0373  -45.4711   -8.9039 C   0  0  0  0  0  0  0  0  0  0  0  0
  -13.2844  -45.1746   -9.5344 N   0  0  0  0  0  0  0  0  0  0  0  0
  -14.4634  -44.5166   -9.0323 C   0  0  0  0  0  0  0  0  0  0  0  0
  -14.6543  -43.3264   -8.3803 C   0  0  0  0  0  0  0  0  0  0  0  0
  -15.9532  -42.9963   -8.0676 C   0  0  0  0  0  0  0  0  0  0  0  0
  -17.0014  -43.8798   -8.4237 C   0  0  0  0  0  0  0  0  0  0  0  0
  -16.8021  -45.0761   -9.0786 C   0  0  0  0  0  0  0  0  0  0  0  0
  -18.1351  -46.1311   -9.4951 Cl  0  0  0  0  0  0  0  0  0  0  0  0
  -15.5433  -45.3358   -9.3509 N   0  0  0  0  0  0  0  0  0  0  0  0
  -16.5203  -41.8092   -7.3953 C   0  0  0  0  0  0  0  0  0  0  0  0
  -17.5830  -42.0024   -6.6166 O   0  0  0  0  0  0  0  0  0  0  0  0
  -16.2009  -40.4552   -7.3732 N   0  0  0  0  0  0  0  0  0  0  0  0
  -21.3612  -38.6032   -7.7890 C   0  0  0  0  0  0  0  0  0  0  0  0
  1  2  1  0
  2  3  1  0
  2  4  1  0
  4  5  2  0
  5  6  1  0
  6  7  2  0
  7  8  1  0
  8  9  1  0
  9 10  1  0
 10 11  1  0
 11 12  1  0
 12 13  1  1
 12 14  1  0
 14 15  1  0
 15 16  2  0
 16 17  1  0
 16 18  1  0
 18 19  1  0
 19 20  1  0
 20 21  1  0
 21 22  1  0
 22 23  1  0
 23 24  1  0
 24 25  1  0
 25 26  1  0
 26 27  2  0
 27 28  1  0
 28 29  2  0
 29 30  1  0
 30 31  1  0
 30 32  2  0
 28 33  1  0
 33 34  2  0
 33 35  1  0
  8 36  2  0
 32 26  1  0
 14 35  1  1
 36  4  1  0
M  END
$$$$
