
     RDKit          3D

 36 38  0  0  0  0  0  0  0  0999 V2000
  -20.6666  -42.3292   -3.8139 C   0  0  0  0  0  0  0  0  0  0  0  0
  -22.0872  -41.8957   -4.1956 C   0  0  0  0  0  0  0  0  0  0  0  0
  -22.9288  -41.8551   -2.9463 C   0  0  0  0  0  0  0  0  0  0  0  0
  -22.0376  -40.5936   -4.9036 C   0  0  0  0  0  0  0  0  0  0  0  0
  -22.7215  -39.4973   -4.3839 C   0  0  0  0  0  0  0  0  0  0  0  0
  -22.6511  -38.3078   -5.0735 C   0  0  0  0  0  0  0  0  0  0  0  0
  -21.9292  -38.1805   -6.2495 C   0  0  0  0  0  0  0  0  0  0  0  0
  -21.2731  -39.2898   -6.7203 C   0  0  0  0  0  0  0  0  0  0  0  0
  -20.4861  -39.1690   -8.0032 C   0  0  0  0  0  0  0  0  0  0  0  0
  -19.4796  -38.1934   -7.7663 N   0  0  0  0  0  0  0  0  0  0  0  0
  -18.3983  -38.5764   -6.9206 C   0  0  0  0  0  0  0  0  0  0  0  0
  -17.0829  -38.3471   -7.5481 C   0  0  1  0  0  0  0  0  0  0  0  0
  -16.1784  -37.7729   -6.6618 O   0  0  0  0  0  0  0  0  0  0  0  0
  -16.4571  -39.6659   -7.9550 C   0  0  2  0  0  0  0  0  0  0  0  0
  -15.5397  -39.4990   -9.1534 C   0  0  0  0  0  0  0  0  0  0  0  0
  -14.3229  -39.1969   -9.4359 C   0  0  0  0  0  0  0  0  0  0  0  0
  -13.1151  -38.8213   -8.5546 C   0  0  0  0  0  0  0  0  0  0  0  0
  -13.6226  -39.1448  -10.8120 C   0  0  0  0  0  0  0  0  0  0  0  0
  -12.5753  -40.2362  -10.8840 C   0  0  0  0  0  0  0  0  0  0  0  0
  -13.1235  -41.3955  -10.4090 O   0  0  0  0  0  0  0  0  0  0  0  0
  -12.2496  -42.4336  -10.1732 C   0  0  0  0  0  0  0  0  0  0  0  0
  -12.1447  -43.2549  -11.4399 C   0  0  0  0  0  0  0  0  0  0  0  0
  -12.8350  -44.5583  -11.2393 C   0  0  0  0  0  0  0  0  0  0  0  0
  -14.0526  -44.7707  -12.1104 C   0  0  0  0  0  0  0  0  0  0  0  0
  -14.6753  -43.5463  -12.5027 N   0  0  0  0  0  0  0  0  0  0  0  0
  -15.8154  -42.8512  -11.9620 C   0  0  0  0  0  0  0  0  0  0  0  0
  -16.1488  -42.4663  -10.6898 C   0  0  0  0  0  0  0  0  0  0  0  0
  -17.3324  -41.7795  -10.5439 C   0  0  0  0  0  0  0  0  0  0  0  0
  -18.1281  -41.5126  -11.6849 C   0  0  0  0  0  0  0  0  0  0  0  0
  -17.7870  -41.9037  -12.9618 C   0  0  0  0  0  0  0  0  0  0  0  0
  -18.8084  -41.5472  -14.3377 Cl  0  0  0  0  0  0  0  0  0  0  0  0
  -16.6477  -42.5536  -13.0378 N   0  0  0  0  0  0  0  0  0  0  0  0
  -17.9851  -41.2091   -9.3474 C   0  0  0  0  0  0  0  0  0  0  0  0
  -19.3157  -41.2390   -9.3093 O   0  0  0  0  0  0  0  0  0  0  0  0
  -17.5263  -40.6102   -8.1783 N   0  0  0  0  0  0  0  0  0  0  0  0
  -21.3155  -40.5141   -6.0562 C   0  0  0  0  0  0  0  0  0  0  0  0
  1  2  1  0
  2  3  1  0
  2  4  1  0
  4  5  2  0
  5  6  1  0
  6  7  2  0
  7  8  1  0
  8  9  1  0
  9 10  1  0
 10 11  1  0
 11 12  1  0
 12 13  1  1
 12 14  1  0
 14 15  1  0
 15 16  2  0
 16 17  1  0
 16 18  1  0
 18 19  1  0
 19 20  1  0
 20 21  1  0
 21 22  1  0
 22 23  1  0
 23 24  1  0
 24 25  1  0
 25 26  1  0
 26 27  2  0
 27 28  1  0
 28 29  2  0
 29 30  1  0
 30 31  1  0
 30 32  2  0
 28 33  1  0
 33 34  2  0
 33 35  1  0
  8 36  2  0
 32 26  1  0
 14 35  1  6
 36  4  1  0
M  END
$$$$
