
     RDKit          3D

 36 38  0  0  0  0  0  0  0  0999 V2000
  -14.0372  -33.5708  -13.0407 C   0  0  0  0  0  0  0  0  0  0  0  0
  -14.4942  -34.9961  -13.3742 C   0  0  0  0  0  0  0  0  0  0  0  0
  -13.2745  -35.8465  -13.6191 C   0  0  0  0  0  0  0  0  0  0  0  0
  -15.3513  -35.5135  -12.2803 C   0  0  0  0  0  0  0  0  0  0  0  0
  -16.7360  -35.5174  -12.4295 C   0  0  0  0  0  0  0  0  0  0  0  0
  -17.4950  -36.0042  -11.3891 C   0  0  0  0  0  0  0  0  0  0  0  0
  -16.9225  -36.4806  -10.2205 C   0  0  0  0  0  0  0  0  0  0  0  0
  -15.5541  -36.4553  -10.1224 C   0  0  0  0  0  0  0  0  0  0  0  0
  -14.9149  -36.9663   -8.8534 C   0  0  0  0  0  0  0  0  0  0  0  0
  -14.6934  -38.3570   -9.0474 N   0  0  0  0  0  0  0  0  0  0  0  0
  -15.6982  -39.2429   -8.5609 C   0  0  0  0  0  0  0  0  0  0  0  0
  -15.2135  -40.0943   -7.4577 C   0  0  1  0  0  0  0  0  0  0  0  0
  -14.9154  -39.3510   -6.3211 O   0  0  0  0  0  0  0  0  0  0  0  0
  -16.2962  -41.0628   -7.0260 C   0  0  2  0  0  0  0  0  0  0  0  0
  -17.0252  -41.6498   -8.2217 C   0  0  0  0  0  0  0  0  0  0  0  0
  -16.9338  -42.6194   -9.0603 C   0  0  0  0  0  0  0  0  0  0  0  0
  -15.8999  -43.7500   -9.2313 C   0  0  0  0  0  0  0  0  0  0  0  0
  -17.8933  -43.0165  -10.2042 C   0  0  0  0  0  0  0  0  0  0  0  0
  -18.5334  -44.3505   -9.8822 C   0  0  0  0  0  0  0  0  0  0  0  0
  -18.9506  -44.3284   -8.5801 O   0  0  0  0  0  0  0  0  0  0  0  0
  -19.3369  -45.5357   -8.0411 C   0  0  0  0  0  0  0  0  0  0  0  0
  -20.8201  -45.7063   -8.2885 C   0  0  0  0  0  0  0  0  0  0  0  0
  -21.5534  -45.5575   -7.0019 C   0  0  0  0  0  0  0  0  0  0  0  0
  -22.4777  -44.3626   -6.9342 C   0  0  0  0  0  0  0  0  0  0  0  0
  -22.0701  -43.2959   -7.7927 N   0  0  0  0  0  0  0  0  0  0  0  0
  -21.3273  -42.0929   -7.5167 C   0  0  0  0  0  0  0  0  0  0  0  0
  -20.1369  -41.8645   -6.8773 C   0  0  0  0  0  0  0  0  0  0  0  0
  -19.7079  -40.5581   -6.8218 C   0  0  0  0  0  0  0  0  0  0  0  0
  -20.4971  -39.5401   -7.4108 C   0  0  0  0  0  0  0  0  0  0  0  0
  -21.6943  -39.7769   -8.0516 C   0  0  0  0  0  0  0  0  0  0  0  0
  -22.6302  -38.4802   -8.7628 Cl  0  0  0  0  0  0  0  0  0  0  0  0
  -22.0506  -41.0413   -8.0732 N   0  0  0  0  0  0  0  0  0  0  0  0
  -18.4903  -39.9580   -6.2384 C   0  0  0  0  0  0  0  0  0  0  0  0
  -18.6099  -38.7477   -5.6965 O   0  0  0  0  0  0  0  0  0  0  0  0
  -17.1672  -40.3683   -6.1074 N   0  0  0  0  0  0  0  0  0  0  0  0
  -14.7456  -35.9722  -11.1493 C   0  0  0  0  0  0  0  0  0  0  0  0
  1  2  1  0
  2  3  1  0
  2  4  1  0
  4  5  2  0
  5  6  1  0
  6  7  2  0
  7  8  1  0
  8  9  1  0
  9 10  1  0
 10 11  1  0
 11 12  1  0
 12 13  1  1
 12 14  1  0
 14 15  1  0
 15 16  2  0
 16 17  1  0
 16 18  1  0
 18 19  1  0
 19 20  1  0
 20 21  1  0
 21 22  1  0
 22 23  1  0
 23 24  1  0
 24 25  1  0
 25 26  1  0
 26 27  2  0
 27 28  1  0
 28 29  2  0
 29 30  1  0
 30 31  1  0
 30 32  2  0
 28 33  1  0
 33 34  2  0
 33 35  1  0
  8 36  2  0
 32 26  1  0
 14 35  1  1
 36  4  1  0
M  END
$$$$
