
     RDKit          3D

 36 38  0  0  0  0  0  0  0  0999 V2000
  -18.3527  -37.2531  -14.9815 C   0  0  0  0  0  0  0  0  0  0  0  0
  -19.3017  -37.4550  -13.7939 C   0  0  0  0  0  0  0  0  0  0  0  0
  -19.5729  -38.9294  -13.6414 C   0  0  0  0  0  0  0  0  0  0  0  0
  -18.7139  -36.8449  -12.5769 C   0  0  0  0  0  0  0  0  0  0  0  0
  -19.3836  -35.8092  -11.9299 C   0  0  0  0  0  0  0  0  0  0  0  0
  -18.8021  -35.2694  -10.8047 C   0  0  0  0  0  0  0  0  0  0  0  0
  -17.5896  -35.7250  -10.3123 C   0  0  0  0  0  0  0  0  0  0  0  0
  -16.9695  -36.7472  -10.9856 C   0  0  0  0  0  0  0  0  0  0  0  0
  -15.6451  -37.2517  -10.4647 C   0  0  0  0  0  0  0  0  0  0  0  0
  -15.7771  -37.3409   -9.0520 N   0  0  0  0  0  0  0  0  0  0  0  0
  -17.0446  -37.7550   -8.5489 C   0  0  0  0  0  0  0  0  0  0  0  0
  -16.9776  -39.0530   -7.8506 C   0  0  1  0  0  0  0  0  0  0  0  0
  -16.4063  -38.9342   -6.5886 O   0  0  0  0  0  0  0  0  0  0  0  0
  -18.3729  -39.5911   -7.6057 C   0  0  2  0  0  0  0  0  0  0  0  0
  -18.3328  -40.9800   -6.9933 C   0  0  0  0  0  0  0  0  0  0  0  0
  -18.2520  -41.5563   -5.8475 C   0  0  0  0  0  0  0  0  0  0  0  0
  -18.1431  -41.0031   -4.4127 C   0  0  0  0  0  0  0  0  0  0  0  0
  -18.2773  -43.0629   -5.5067 C   0  0  0  0  0  0  0  0  0  0  0  0
  -19.5411  -43.3822   -4.7360 C   0  0  0  0  0  0  0  0  0  0  0  0
  -20.5956  -42.7775   -5.3624 O   0  0  0  0  0  0  0  0  0  0  0  0
  -21.7869  -42.7562   -4.6714 C   0  0  0  0  0  0  0  0  0  0  0  0
  -22.5629  -44.0031   -5.0365 C   0  0  0  0  0  0  0  0  0  0  0  0
  -23.7216  -43.6281   -5.8922 C   0  0  0  0  0  0  0  0  0  0  0  0
  -23.6689  -44.1702   -7.3028 C   0  0  0  0  0  0  0  0  0  0  0  0
  -22.3354  -44.4065   -7.7575 N   0  0  0  0  0  0  0  0  0  0  0  0
  -21.4618  -43.6070   -8.5778 C   0  0  0  0  0  0  0  0  0  0  0  0
  -21.0719  -42.2949   -8.5117 C   0  0  0  0  0  0  0  0  0  0  0  0
  -20.1828  -41.8671   -9.4711 C   0  0  0  0  0  0  0  0  0  0  0  0
  -19.7275  -42.7788  -10.4549 C   0  0  0  0  0  0  0  0  0  0  0  0
  -20.1249  -44.0972  -10.5160 C   0  0  0  0  0  0  0  0  0  0  0  0
  -19.5303  -45.1815  -11.7546 Cl  0  0  0  0  0  0  0  0  0  0  0  0
  -20.9722  -44.4467   -9.5747 N   0  0  0  0  0  0  0  0  0  0  0  0
  -19.5483  -40.5512   -9.6917 C   0  0  0  0  0  0  0  0  0  0  0  0
  -19.3311  -40.1859  -10.9536 O   0  0  0  0  0  0  0  0  0  0  0  0
  -19.0918  -39.5362   -8.8567 N   0  0  0  0  0  0  0  0  0  0  0  0
  -17.5202  -37.3245  -12.1280 C   0  0  0  0  0  0  0  0  0  0  0  0
  1  2  1  0
  2  3  1  0
  2  4  1  0
  4  5  2  0
  5  6  1  0
  6  7  2  0
  7  8  1  0
  8  9  1  0
  9 10  1  0
 10 11  1  0
 11 12  1  0
 12 13  1  1
 12 14  1  0
 14 15  1  0
 15 16  2  0
 16 17  1  0
 16 18  1  0
 18 19  1  0
 19 20  1  0
 20 21  1  0
 21 22  1  0
 22 23  1  0
 23 24  1  0
 24 25  1  0
 25 26  1  0
 26 27  2  0
 27 28  1  0
 28 29  2  0
 29 30  1  0
 30 31  1  0
 30 32  2  0
 28 33  1  0
 33 34  2  0
 33 35  1  0
  8 36  2  0
 32 26  1  0
 14 35  1  6
 36  4  1  0
M  END
$$$$
