
     RDKit          3D

 39 41  0  0  0  0  0  0  0  0999 V2000
  -22.2192  -42.9131   -2.8864 C   0  0  0  0  0  0  0  0  0  0  0  0
  -21.7874  -41.9902   -4.0140 C   0  0  0  0  0  0  0  0  0  0  0  0
  -22.8364  -41.7809   -4.9290 O   0  0  0  0  0  0  0  0  0  0  0  0
  -22.6244  -40.9835   -6.0351 C   0  0  0  0  0  0  0  0  0  0  0  0
  -21.3822  -40.4154   -6.2971 C   0  0  0  0  0  0  0  0  0  0  0  0
  -21.1541  -39.6008   -7.4224 C   0  0  0  0  0  0  0  0  0  0  0  0
  -19.7602  -39.1321   -7.5531 C   0  0  0  0  0  0  0  0  0  0  0  0
  -18.7260  -39.8994   -7.0661 N   0  0  0  0  0  0  0  0  0  0  0  0
  -17.6145  -39.5175   -6.3574 C   0  0  0  0  0  0  0  0  0  0  0  0
  -16.5045  -38.8072   -7.0931 C   0  0  1  0  0  0  0  0  0  0  0  0
  -15.6157  -38.1152   -6.3471 O   0  0  0  0  0  0  0  0  0  0  0  0
  -15.7884  -39.7458   -8.0895 C   0  0  2  0  0  0  0  0  0  0  0  0
  -14.4269  -39.2919   -8.3730 C   0  0  0  0  0  0  0  0  0  0  0  0
  -14.1201  -38.4195   -9.5173 C   0  0  2  0  0  0  0  0  0  0  0  0
  -14.9480  -37.1848   -9.6776 C   0  0  0  0  0  0  0  0  0  0  0  0
  -13.9339  -39.1002  -10.8476 C   0  0  0  0  0  0  0  0  0  0  0  0
  -12.4835  -39.4873  -11.0156 C   0  0  0  0  0  0  0  0  0  0  0  0
  -12.2448  -40.8502  -10.8261 O   0  0  0  0  0  0  0  0  0  0  0  0
  -11.1223  -41.2749  -11.5397 C   0  0  0  0  0  0  0  0  0  0  0  0
  -11.2398  -42.7392  -11.9210 C   0  0  0  0  0  0  0  0  0  0  0  0
  -10.6326  -43.6481  -10.8782 C   0  0  0  0  0  0  0  0  0  0  0  0
  -11.5422  -43.9120   -9.7298 C   0  0  0  0  0  0  0  0  0  0  0  0
  -12.8252  -44.4734  -10.0678 N   0  0  0  0  0  0  0  0  0  0  0  0
  -14.0990  -43.8553  -10.3157 C   0  0  0  0  0  0  0  0  0  0  0  0
  -14.7517  -42.8220   -9.6763 C   0  0  0  0  0  0  0  0  0  0  0  0
  -15.9650  -42.4047  -10.1817 C   0  0  0  0  0  0  0  0  0  0  0  0
  -16.4931  -43.0570  -11.3319 C   0  0  0  0  0  0  0  0  0  0  0  0
  -15.8782  -44.0834  -11.9875 C   0  0  0  0  0  0  0  0  0  0  0  0
  -14.6740  -44.4691  -11.4585 C   0  0  0  0  0  0  0  0  0  0  0  0
  -16.8767  -41.3342   -9.7690 C   0  0  0  0  0  0  0  0  0  0  0  0
  -18.1841  -41.5140   -9.9364 O   0  0  0  0  0  0  0  0  0  0  0  0
  -16.6671  -40.0535   -9.1920 N   0  0  0  0  0  0  0  0  0  0  0  0
  -22.1952  -39.3792   -8.2579 C   0  0  0  0  0  0  0  0  0  0  0  0
  -23.4416  -39.9623   -7.9745 C   0  0  0  0  0  0  0  0  0  0  0  0
  -23.6712  -40.7511   -6.8919 C   0  0  0  0  0  0  0  0  0  0  0  0
  -22.0940  -38.5301   -9.4618 C   0  0  0  0  0  0  0  0  0  0  0  0
  -23.2973  -38.4954  -10.1677 F   0  0  0  0  0  0  0  0  0  0  0  0
  -21.4734  -37.3390   -9.3116 F   0  0  0  0  0  0  0  0  0  0  0  0
  -21.2548  -39.2256  -10.3920 F   0  0  0  0  0  0  0  0  0  0  0  0
  1  2  1  0
  2  3  1  0
  3  4  1  0
  4  5  2  0
  5  6  1  0
  6  7  1  0
  7  8  1  0
  8  9  1  0
  9 10  1  0
 10 11  1  1
 10 12  1  0
 12 13  1  6
 13 14  1  0
 14 15  1  6
 14 16  1  0
 16 17  1  0
 17 18  1  0
 18 19  1  0
 19 20  1  0
 20 21  1  0
 21 22  1  0
 22 23  1  0
 23 24  1  0
 24 25  2  0
 25 26  1  0
 26 27  2  0
 27 28  1  0
 28 29  2  0
 26 30  1  0
 30 31  2  0
 30 32  1  0
  6 33  2  0
 33 34  1  0
 34 35  2  0
 33 36  1  0
 36 37  1  0
 36 38  1  0
 36 39  1  0
 29 24  1  0
 32 12  1  0
 35  4  1  0
M  END
$$$$
