
     RDKit          3D

 39 41  0  0  0  0  0  0  0  0999 V2000
  -20.2888  -41.1487   -1.1313 C   0  0  0  0  0  0  0  0  0  0  0  0
  -20.3708  -40.4820   -2.4945 C   0  0  0  0  0  0  0  0  0  0  0  0
  -21.4613  -40.9742   -3.2360 O   0  0  0  0  0  0  0  0  0  0  0  0
  -21.7096  -40.4694   -4.4960 C   0  0  0  0  0  0  0  0  0  0  0  0
  -20.6784  -40.0505   -5.3300 C   0  0  0  0  0  0  0  0  0  0  0  0
  -20.9196  -39.5343   -6.6173 C   0  0  0  0  0  0  0  0  0  0  0  0
  -19.6950  -39.1901   -7.3667 C   0  0  0  0  0  0  0  0  0  0  0  0
  -18.6779  -38.4998   -6.7463 N   0  0  0  0  0  0  0  0  0  0  0  0
  -17.5234  -37.9821   -7.2781 C   0  0  0  0  0  0  0  0  0  0  0  0
  -16.2249  -38.7037   -7.0111 C   0  0  1  0  0  0  0  0  0  0  0  0
  -16.1415  -39.4182   -5.8675 O   0  0  0  0  0  0  0  0  0  0  0  0
  -15.7772  -39.5422   -8.2290 C   0  0  2  0  0  0  0  0  0  0  0  0
  -14.3558  -39.8805   -8.1562 C   0  0  0  0  0  0  0  0  0  0  0  0
  -13.3244  -39.0479   -8.7945 C   0  0  2  0  0  0  0  0  0  0  0  0
  -13.3565  -37.5805   -8.5092 C   0  0  0  0  0  0  0  0  0  0  0  0
  -13.0806  -39.2900  -10.2607 C   0  0  0  0  0  0  0  0  0  0  0  0
  -12.0278  -40.3608  -10.4252 C   0  0  0  0  0  0  0  0  0  0  0  0
  -12.5485  -41.6018  -10.7978 O   0  0  0  0  0  0  0  0  0  0  0  0
  -11.6101  -42.3566  -11.5043 C   0  0  0  0  0  0  0  0  0  0  0  0
  -12.2911  -43.3077  -12.4714 C   0  0  0  0  0  0  0  0  0  0  0  0
  -12.5607  -44.6564  -11.8464 C   0  0  0  0  0  0  0  0  0  0  0  0
  -13.7935  -44.6798  -11.0124 C   0  0  0  0  0  0  0  0  0  0  0  0
  -15.0066  -44.2876  -11.6833 N   0  0  0  0  0  0  0  0  0  0  0  0
  -15.6727  -43.0175  -11.7800 C   0  0  0  0  0  0  0  0  0  0  0  0
  -15.9105  -42.0378  -10.8386 C   0  0  0  0  0  0  0  0  0  0  0  0
  -16.5426  -40.8817  -11.2453 C   0  0  0  0  0  0  0  0  0  0  0  0
  -16.9262  -40.7501  -12.6101 C   0  0  0  0  0  0  0  0  0  0  0  0
  -16.7109  -41.6983  -13.5672 C   0  0  0  0  0  0  0  0  0  0  0  0
  -16.0784  -42.8317  -13.1269 C   0  0  0  0  0  0  0  0  0  0  0  0
  -16.9029  -39.6606  -10.5196 C   0  0  0  0  0  0  0  0  0  0  0  0
  -18.0060  -39.0101  -10.8797 O   0  0  0  0  0  0  0  0  0  0  0  0
  -16.2967  -38.9603   -9.4430 N   0  0  0  0  0  0  0  0  0  0  0  0
  -22.2058  -39.4532   -7.0299 C   0  0  0  0  0  0  0  0  0  0  0  0
  -23.2324  -39.8815   -6.1716 C   0  0  0  0  0  0  0  0  0  0  0  0
  -23.0095  -40.3824   -4.9281 C   0  0  0  0  0  0  0  0  0  0  0  0
  -22.5953  -38.9145   -8.3484 C   0  0  0  0  0  0  0  0  0  0  0  0
  -22.9783  -37.5754   -8.2627 F   0  0  0  0  0  0  0  0  0  0  0  0
  -21.7915  -39.2239   -9.3899 F   0  0  0  0  0  0  0  0  0  0  0  0
  -23.8412  -39.5302   -8.6976 F   0  0  0  0  0  0  0  0  0  0  0  0
  1  2  1  0
  2  3  1  0
  3  4  1  0
  4  5  2  0
  5  6  1  0
  6  7  1  0
  7  8  1  0
  8  9  1  0
  9 10  1  0
 10 11  1  1
 10 12  1  0
 12 13  1  6
 13 14  1  0
 14 15  1  6
 14 16  1  0
 16 17  1  0
 17 18  1  0
 18 19  1  0
 19 20  1  0
 20 21  1  0
 21 22  1  0
 22 23  1  0
 23 24  1  0
 24 25  2  0
 25 26  1  0
 26 27  2  0
 27 28  1  0
 28 29  2  0
 26 30  1  0
 30 31  2  0
 30 32  1  0
  6 33  2  0
 33 34  1  0
 34 35  2  0
 33 36  1  0
 36 37  1  0
 36 38  1  0
 36 39  1  0
 29 24  1  0
 32 12  1  0
 35  4  1  0
M  END
$$$$
