
     RDKit          3D

 39 41  0  0  0  0  0  0  0  0999 V2000
  -16.1717  -35.3641  -13.4715 C   0  0  0  0  0  0  0  0  0  0  0  0
  -17.1122  -35.4140  -12.2788 C   0  0  0  0  0  0  0  0  0  0  0  0
  -17.5980  -36.7185  -12.0692 O   0  0  0  0  0  0  0  0  0  0  0  0
  -18.6453  -36.9211  -11.1939 C   0  0  0  0  0  0  0  0  0  0  0  0
  -18.4300  -37.3215   -9.8795 C   0  0  0  0  0  0  0  0  0  0  0  0
  -19.4905  -37.5309   -8.9775 C   0  0  0  0  0  0  0  0  0  0  0  0
  -19.0577  -37.9054   -7.6166 C   0  0  0  0  0  0  0  0  0  0  0  0
  -17.7219  -37.8729   -7.2842 N   0  0  0  0  0  0  0  0  0  0  0  0
  -16.9604  -38.8135   -6.6371 C   0  0  0  0  0  0  0  0  0  0  0  0
  -15.9309  -39.5752   -7.4359 C   0  0  1  0  0  0  0  0  0  0  0  0
  -14.6912  -39.6735   -6.9078 O   0  0  0  0  0  0  0  0  0  0  0  0
  -16.4613  -40.9564   -7.8805 C   0  0  2  0  0  0  0  0  0  0  0  0
  -15.4974  -42.0197   -7.5968 C   0  0  0  0  0  0  0  0  0  0  0  0
  -14.5153  -42.4665   -8.5971 C   0  0  2  0  0  0  0  0  0  0  0  0
  -13.6954  -41.4123   -9.2693 C   0  0  0  0  0  0  0  0  0  0  0  0
  -14.9978  -43.4755   -9.6055 C   0  0  0  0  0  0  0  0  0  0  0  0
  -14.7783  -44.8695   -9.0666 C   0  0  0  0  0  0  0  0  0  0  0  0
  -15.9477  -45.4809   -8.6093 O   0  0  0  0  0  0  0  0  0  0  0  0
  -15.8619  -46.8718   -8.6939 C   0  0  0  0  0  0  0  0  0  0  0  0
  -17.2334  -47.4926   -8.8863 C   0  0  0  0  0  0  0  0  0  0  0  0
  -17.8868  -47.8454   -7.5707 C   0  0  0  0  0  0  0  0  0  0  0  0
  -18.5452  -46.6835   -6.9133 C   0  0  0  0  0  0  0  0  0  0  0  0
  -19.5445  -46.0068   -7.7002 N   0  0  0  0  0  0  0  0  0  0  0  0
  -19.4607  -44.8598   -8.5624 C   0  0  0  0  0  0  0  0  0  0  0  0
  -18.7998  -43.6575   -8.4201 C   0  0  0  0  0  0  0  0  0  0  0  0
  -18.8633  -42.7512   -9.4575 C   0  0  0  0  0  0  0  0  0  0  0  0
  -19.6083  -43.0893  -10.6228 C   0  0  0  0  0  0  0  0  0  0  0  0
  -20.2769  -44.2658  -10.7971 C   0  0  0  0  0  0  0  0  0  0  0  0
  -20.1890  -45.1422   -9.7470 C   0  0  0  0  0  0  0  0  0  0  0  0
  -18.2574  -41.4288   -9.6352 C   0  0  0  0  0  0  0  0  0  0  0  0
  -18.9243  -40.5132  -10.3328 O   0  0  0  0  0  0  0  0  0  0  0  0
  -17.0290  -40.8613   -9.2037 N   0  0  0  0  0  0  0  0  0  0  0  0
  -20.7492  -37.3300   -9.4316 C   0  0  0  0  0  0  0  0  0  0  0  0
  -20.9445  -36.9260  -10.7630 C   0  0  0  0  0  0  0  0  0  0  0  0
  -19.9275  -36.7200  -11.6406 C   0  0  0  0  0  0  0  0  0  0  0  0
  -21.9485  -37.5322   -8.5942 C   0  0  0  0  0  0  0  0  0  0  0  0
  -22.0062  -38.8303   -8.0855 F   0  0  0  0  0  0  0  0  0  0  0  0
  -22.2452  -36.5495   -7.7151 F   0  0  0  0  0  0  0  0  0  0  0  0
  -23.0766  -37.5375   -9.4777 F   0  0  0  0  0  0  0  0  0  0  0  0
  1  2  1  0
  2  3  1  0
  3  4  1  0
  4  5  2  0
  5  6  1  0
  6  7  1  0
  7  8  1  0
  8  9  1  0
  9 10  1  0
 10 11  1  1
 10 12  1  0
 12 13  1  6
 13 14  1  0
 14 15  1  6
 14 16  1  0
 16 17  1  0
 17 18  1  0
 18 19  1  0
 19 20  1  0
 20 21  1  0
 21 22  1  0
 22 23  1  0
 23 24  1  0
 24 25  2  0
 25 26  1  0
 26 27  2  0
 27 28  1  0
 28 29  2  0
 26 30  1  0
 30 31  2  0
 30 32  1  0
  6 33  2  0
 33 34  1  0
 34 35  2  0
 33 36  1  0
 36 37  1  0
 36 38  1  0
 36 39  1  0
 29 24  1  0
 32 12  1  0
 35  4  1  0
M  END
$$$$
