
     RDKit          3D

 39 41  0  0  0  0  0  0  0  0999 V2000
  -14.5655  -42.1874  -12.4470 C   0  0  0  0  0  0  0  0  0  0  0  0
  -14.9858  -40.9910  -13.2847 C   0  0  0  0  0  0  0  0  0  0  0  0
  -13.8692  -40.2318  -13.6823 O   0  0  0  0  0  0  0  0  0  0  0  0
  -13.7605  -38.9180  -13.2745 C   0  0  0  0  0  0  0  0  0  0  0  0
  -14.5463  -38.4060  -12.2474 C   0  0  0  0  0  0  0  0  0  0  0  0
  -14.4439  -37.0677  -11.8226 C   0  0  0  0  0  0  0  0  0  0  0  0
  -15.3261  -36.7272  -10.6888 C   0  0  0  0  0  0  0  0  0  0  0  0
  -16.4134  -37.5204  -10.3986 N   0  0  0  0  0  0  0  0  0  0  0  0
  -17.3456  -37.3919   -9.3995 C   0  0  0  0  0  0  0  0  0  0  0  0
  -17.1211  -38.1418   -8.1090 C   0  0  1  0  0  0  0  0  0  0  0  0
  -16.9735  -37.4047   -6.9864 O   0  0  0  0  0  0  0  0  0  0  0  0
  -18.1668  -39.2614   -7.9103 C   0  0  2  0  0  0  0  0  0  0  0  0
  -19.3938  -38.7495   -7.3000 C   0  0  0  0  0  0  0  0  0  0  0  0
  -19.6078  -38.7745   -5.8446 C   0  0  2  0  0  0  0  0  0  0  0  0
  -18.5212  -38.2146   -4.9836 C   0  0  0  0  0  0  0  0  0  0  0  0
  -20.1206  -40.0663   -5.2650 C   0  0  0  0  0  0  0  0  0  0  0  0
  -21.6311  -40.0601   -5.2813 C   0  0  0  0  0  0  0  0  0  0  0  0
  -22.1810  -40.8524   -6.2913 O   0  0  0  0  0  0  0  0  0  0  0  0
  -23.4526  -41.3118   -5.9431 C   0  0  0  0  0  0  0  0  0  0  0  0
  -23.7557  -42.6395   -6.6131 C   0  0  0  0  0  0  0  0  0  0  0  0
  -24.4407  -42.4589   -7.9475 C   0  0  0  0  0  0  0  0  0  0  0  0
  -23.4940  -42.1573   -9.0560 C   0  0  0  0  0  0  0  0  0  0  0  0
  -22.4453  -43.1239   -9.2595 N   0  0  0  0  0  0  0  0  0  0  0  0
  -21.0969  -43.1834   -8.7653 C   0  0  0  0  0  0  0  0  0  0  0  0
  -20.1316  -42.2078   -8.6276 C   0  0  0  0  0  0  0  0  0  0  0  0
  -18.9233  -42.5602   -8.0642 C   0  0  0  0  0  0  0  0  0  0  0  0
  -18.7212  -43.9091   -7.6556 C   0  0  0  0  0  0  0  0  0  0  0  0
  -19.6504  -44.9005   -7.7794 C   0  0  0  0  0  0  0  0  0  0  0  0
  -20.8391  -44.5126   -8.3409 C   0  0  0  0  0  0  0  0  0  0  0  0
  -17.7277  -41.7733   -7.7499 C   0  0  0  0  0  0  0  0  0  0  0  0
  -16.5384  -42.3630   -7.8368 O   0  0  0  0  0  0  0  0  0  0  0  0
  -17.5354  -40.4270   -7.3403 N   0  0  0  0  0  0  0  0  0  0  0  0
  -13.5448  -36.2766  -12.4525 C   0  0  0  0  0  0  0  0  0  0  0  0
  -12.7612  -36.8137  -13.4877 C   0  0  0  0  0  0  0  0  0  0  0  0
  -12.8518  -38.1043  -13.9038 C   0  0  0  0  0  0  0  0  0  0  0  0
  -13.3518  -34.8518  -12.1161 C   0  0  0  0  0  0  0  0  0  0  0  0
  -14.4307  -34.0742  -12.5388 F   0  0  0  0  0  0  0  0  0  0  0  0
  -12.8902  -34.5803  -10.8753 F   0  0  0  0  0  0  0  0  0  0  0  0
  -12.3125  -34.3596  -12.9709 F   0  0  0  0  0  0  0  0  0  0  0  0
  1  2  1  0
  2  3  1  0
  3  4  1  0
  4  5  2  0
  5  6  1  0
  6  7  1  0
  7  8  1  0
  8  9  1  0
  9 10  1  0
 10 11  1  1
 10 12  1  0
 12 13  1  1
 13 14  1  0
 14 15  1  1
 14 16  1  0
 16 17  1  0
 17 18  1  0
 18 19  1  0
 19 20  1  0
 20 21  1  0
 21 22  1  0
 22 23  1  0
 23 24  1  0
 24 25  2  0
 25 26  1  0
 26 27  2  0
 27 28  1  0
 28 29  2  0
 26 30  1  0
 30 31  2  0
 30 32  1  0
  6 33  2  0
 33 34  1  0
 34 35  2  0
 33 36  1  0
 36 37  1  0
 36 38  1  0
 36 39  1  0
 29 24  1  0
 32 12  1  0
 35  4  1  0
M  END
$$$$
