
     RDKit          3D

 39 41  0  0  0  0  0  0  0  0999 V2000
  -23.3711  -40.6836   -3.7036 C   0  0  0  0  0  0  0  0  0  0  0  0
  -22.4700  -39.8717   -4.6191 C   0  0  0  0  0  0  0  0  0  0  0  0
  -22.8182  -40.0579   -5.9702 O   0  0  0  0  0  0  0  0  0  0  0  0
  -22.1459  -39.3542   -6.9485 C   0  0  0  0  0  0  0  0  0  0  0  0
  -20.8347  -38.9267   -6.7685 C   0  0  0  0  0  0  0  0  0  0  0  0
  -20.1389  -38.2086   -7.7594 C   0  0  0  0  0  0  0  0  0  0  0  0
  -18.7434  -37.8865   -7.4008 C   0  0  0  0  0  0  0  0  0  0  0  0
  -17.7646  -38.8492   -7.5053 N   0  0  0  0  0  0  0  0  0  0  0  0
  -17.0380  -39.4660   -6.5178 C   0  0  0  0  0  0  0  0  0  0  0  0
  -15.7322  -40.1231   -6.8930 C   0  0  1  0  0  0  0  0  0  0  0  0
  -14.9051  -40.4705   -5.8827 O   0  0  0  0  0  0  0  0  0  0  0  0
  -15.9458  -41.2995   -7.8714 C   0  0  2  0  0  0  0  0  0  0  0  0
  -14.9405  -42.3454   -7.6830 C   0  0  0  0  0  0  0  0  0  0  0  0
  -13.6963  -42.3789   -8.4674 C   0  0  2  0  0  0  0  0  0  0  0  0
  -12.8928  -41.1195   -8.5298 C   0  0  0  0  0  0  0  0  0  0  0  0
  -13.7807  -43.0131   -9.8306 C   0  0  0  0  0  0  0  0  0  0  0  0
  -13.5064  -44.4940   -9.7140 C   0  0  0  0  0  0  0  0  0  0  0  0
  -14.6555  -45.2826   -9.8042 O   0  0  0  0  0  0  0  0  0  0  0  0
  -14.3614  -46.5577  -10.2909 C   0  0  0  0  0  0  0  0  0  0  0  0
  -15.5485  -47.1468  -11.0306 C   0  0  0  0  0  0  0  0  0  0  0  0
  -16.4420  -47.9546  -10.1187 C   0  0  0  0  0  0  0  0  0  0  0  0
  -17.3917  -47.1167   -9.3364 C   0  0  0  0  0  0  0  0  0  0  0  0
  -18.2576  -46.2668  -10.1132 N   0  0  0  0  0  0  0  0  0  0  0  0
  -18.1293  -44.8939  -10.5191 C   0  0  0  0  0  0  0  0  0  0  0  0
  -17.6933  -43.7774   -9.8365 C   0  0  0  0  0  0  0  0  0  0  0  0
  -17.6316  -42.5795  -10.5167 C   0  0  0  0  0  0  0  0  0  0  0  0
  -18.0232  -42.5435  -11.8851 C   0  0  0  0  0  0  0  0  0  0  0  0
  -18.4624  -43.6254  -12.5910 C   0  0  0  0  0  0  0  0  0  0  0  0
  -18.5079  -44.7983  -11.8833 C   0  0  0  0  0  0  0  0  0  0  0  0
  -17.1887  -41.2453  -10.1030 C   0  0  0  0  0  0  0  0  0  0  0  0
  -17.7894  -40.1837  -10.6342 O   0  0  0  0  0  0  0  0  0  0  0  0
  -16.1889  -40.7940   -9.2009 N   0  0  0  0  0  0  0  0  0  0  0  0
  -20.7918  -37.9385   -8.9135 C   0  0  0  0  0  0  0  0  0  0  0  0
  -22.1160  -38.3792   -9.0746 C   0  0  0  0  0  0  0  0  0  0  0  0
  -22.7955  -39.0741   -8.1247 C   0  0  0  0  0  0  0  0  0  0  0  0
  -20.1828  -37.1786  -10.0235 C   0  0  0  0  0  0  0  0  0  0  0  0
  -18.8499  -37.5406  -10.2227 F   0  0  0  0  0  0  0  0  0  0  0  0
  -20.9241  -37.0489  -11.1462 F   0  0  0  0  0  0  0  0  0  0  0  0
  -20.0313  -35.8281   -9.5692 F   0  0  0  0  0  0  0  0  0  0  0  0
  1  2  1  0
  2  3  1  0
  3  4  1  0
  4  5  2  0
  5  6  1  0
  6  7  1  0
  7  8  1  0
  8  9  1  0
  9 10  1  0
 10 11  1  1
 10 12  1  0
 12 13  1  6
 13 14  1  0
 14 15  1  6
 14 16  1  0
 16 17  1  0
 17 18  1  0
 18 19  1  0
 19 20  1  0
 20 21  1  0
 21 22  1  0
 22 23  1  0
 23 24  1  0
 24 25  2  0
 25 26  1  0
 26 27  2  0
 27 28  1  0
 28 29  2  0
 26 30  1  0
 30 31  2  0
 30 32  1  0
  6 33  2  0
 33 34  1  0
 34 35  2  0
 33 36  1  0
 36 37  1  0
 36 38  1  0
 36 39  1  0
 29 24  1  0
 32 12  1  0
 35  4  1  0
M  END
$$$$
