
     RDKit          3D

 39 41  0  0  0  0  0  0  0  0999 V2000
  -12.2939  -41.5875  -14.0914 C   0  0  0  0  0  0  0  0  0  0  0  0
  -13.2748  -40.6072  -13.4697 C   0  0  0  0  0  0  0  0  0  0  0  0
  -12.6121  -39.4634  -12.9859 O   0  0  0  0  0  0  0  0  0  0  0  0
  -13.3513  -38.3781  -12.5620 C   0  0  0  0  0  0  0  0  0  0  0  0
  -14.4201  -38.5220  -11.6837 C   0  0  0  0  0  0  0  0  0  0  0  0
  -15.1810  -37.4222  -11.2441 C   0  0  0  0  0  0  0  0  0  0  0  0
  -16.2409  -37.7717  -10.2775 C   0  0  0  0  0  0  0  0  0  0  0  0
  -15.9673  -37.7830   -8.9281 N   0  0  0  0  0  0  0  0  0  0  0  0
  -15.0884  -38.5659   -8.2223 C   0  0  0  0  0  0  0  0  0  0  0  0
  -15.6243  -39.7878   -7.5168 C   0  0  1  0  0  0  0  0  0  0  0  0
  -15.2838  -39.9484   -6.2192 O   0  0  0  0  0  0  0  0  0  0  0  0
  -17.1483  -39.9409   -7.7189 C   0  0  2  0  0  0  0  0  0  0  0  0
  -17.8285  -40.2576   -6.4630 C   0  0  0  0  0  0  0  0  0  0  0  0
  -18.0986  -41.6445   -6.0530 C   0  0  2  0  0  0  0  0  0  0  0  0
  -16.9526  -42.6042   -6.0894 C   0  0  0  0  0  0  0  0  0  0  0  0
  -19.3347  -42.2844   -6.6277 C   0  0  0  0  0  0  0  0  0  0  0  0
  -20.5125  -42.0037   -5.7244 C   0  0  0  0  0  0  0  0  0  0  0  0
  -21.3731  -41.0217   -6.2194 O   0  0  0  0  0  0  0  0  0  0  0  0
  -22.6740  -41.1977   -5.7440 C   0  0  0  0  0  0  0  0  0  0  0  0
  -23.6934  -40.6585   -6.7307 C   0  0  0  0  0  0  0  0  0  0  0  0
  -24.0380  -39.2130   -6.4585 C   0  0  0  0  0  0  0  0  0  0  0  0
  -23.0437  -38.2579   -7.0197 C   0  0  0  0  0  0  0  0  0  0  0  0
  -22.8091  -38.3647   -8.4372 N   0  0  0  0  0  0  0  0  0  0  0  0
  -21.8198  -39.0904   -9.1859 C   0  0  0  0  0  0  0  0  0  0  0  0
  -20.4681  -39.2701   -8.9777 C   0  0  0  0  0  0  0  0  0  0  0  0
  -19.7741  -40.0759   -9.8554 C   0  0  0  0  0  0  0  0  0  0  0  0
  -20.4756  -40.6810  -10.9367 C   0  0  0  0  0  0  0  0  0  0  0  0
  -21.8096  -40.5232  -11.1758 C   0  0  0  0  0  0  0  0  0  0  0  0
  -22.4664  -39.7181  -10.2819 C   0  0  0  0  0  0  0  0  0  0  0  0
  -18.3696  -40.4921   -9.8943 C   0  0  0  0  0  0  0  0  0  0  0  0
  -17.7984  -40.6897  -11.0794 O   0  0  0  0  0  0  0  0  0  0  0  0
  -17.4098  -40.7552   -8.8810 N   0  0  0  0  0  0  0  0  0  0  0  0
  -14.8401  -36.1977  -11.7083 C   0  0  0  0  0  0  0  0  0  0  0  0
  -13.7573  -36.0746  -12.5951 C   0  0  0  0  0  0  0  0  0  0  0  0
  -13.0161  -37.1299  -13.0240 C   0  0  0  0  0  0  0  0  0  0  0  0
  -15.5673  -34.9665  -11.3400 C   0  0  0  0  0  0  0  0  0  0  0  0
  -15.6011  -34.0552  -12.3963 F   0  0  0  0  0  0  0  0  0  0  0  0
  -16.7321  -35.1281  -10.6740 F   0  0  0  0  0  0  0  0  0  0  0  0
  -14.7445  -34.2623  -10.4017 F   0  0  0  0  0  0  0  0  0  0  0  0
  1  2  1  0
  2  3  1  0
  3  4  1  0
  4  5  2  0
  5  6  1  0
  6  7  1  0
  7  8  1  0
  8  9  1  0
  9 10  1  0
 10 11  1  1
 10 12  1  0
 12 13  1  1
 13 14  1  0
 14 15  1  6
 14 16  1  0
 16 17  1  0
 17 18  1  0
 18 19  1  0
 19 20  1  0
 20 21  1  0
 21 22  1  0
 22 23  1  0
 23 24  1  0
 24 25  2  0
 25 26  1  0
 26 27  2  0
 27 28  1  0
 28 29  2  0
 26 30  1  0
 30 31  2  0
 30 32  1  0
  6 33  2  0
 33 34  1  0
 34 35  2  0
 33 36  1  0
 36 37  1  0
 36 38  1  0
 36 39  1  0
 29 24  1  0
 32 12  1  0
 35  4  1  0
M  END
$$$$
