
     RDKit          3D

 39 41  0  0  0  0  0  0  0  0999 V2000
  -22.2573  -39.2988  -13.0307 C   0  0  0  0  0  0  0  0  0  0  0  0
  -21.8384  -39.4393  -11.5766 C   0  0  0  0  0  0  0  0  0  0  0  0
  -22.9475  -39.3354  -10.7161 O   0  0  0  0  0  0  0  0  0  0  0  0
  -22.7654  -39.4633   -9.3543 C   0  0  0  0  0  0  0  0  0  0  0  0
  -21.5467  -39.1714   -8.7510 C   0  0  0  0  0  0  0  0  0  0  0  0
  -21.3494  -39.2977   -7.3628 C   0  0  0  0  0  0  0  0  0  0  0  0
  -20.0040  -38.8952   -6.9073 C   0  0  0  0  0  0  0  0  0  0  0  0
  -18.8947  -39.5906   -7.3336 N   0  0  0  0  0  0  0  0  0  0  0  0
  -17.6947  -39.7935   -6.6993 C   0  0  0  0  0  0  0  0  0  0  0  0
  -16.4792  -39.0618   -7.2141 C   0  0  1  0  0  0  0  0  0  0  0  0
  -15.7197  -38.4133   -6.3041 O   0  0  0  0  0  0  0  0  0  0  0  0
  -15.6150  -39.9616   -8.1253 C   0  0  2  0  0  0  0  0  0  0  0  0
  -14.2582  -39.4345   -8.2713 C   0  0  0  0  0  0  0  0  0  0  0  0
  -13.8834  -38.5485   -9.3845 C   0  0  2  0  0  0  0  0  0  0  0  0
  -14.7561  -37.3610   -9.6374 C   0  0  0  0  0  0  0  0  0  0  0  0
  -13.5253  -39.2200  -10.6839 C   0  0  0  0  0  0  0  0  0  0  0  0
  -12.0465  -39.5278  -10.6999 C   0  0  0  0  0  0  0  0  0  0  0  0
  -11.7551  -40.8753  -10.4772 O   0  0  0  0  0  0  0  0  0  0  0  0
  -10.5441  -41.2392  -11.0693 C   0  0  0  0  0  0  0  0  0  0  0  0
  -10.5425  -42.7084  -11.4502 C   0  0  0  0  0  0  0  0  0  0  0  0
   -9.9971  -43.5812  -10.3443 C   0  0  0  0  0  0  0  0  0  0  0  0
  -11.0039  -43.8925   -9.2930 C   0  0  0  0  0  0  0  0  0  0  0  0
  -12.2133  -44.5236   -9.7565 N   0  0  0  0  0  0  0  0  0  0  0  0
  -13.4865  -43.9763  -10.1377 C   0  0  0  0  0  0  0  0  0  0  0  0
  -14.2563  -42.9791   -9.5758 C   0  0  0  0  0  0  0  0  0  0  0  0
  -15.4322  -42.6294  -10.2055 C   0  0  0  0  0  0  0  0  0  0  0  0
  -15.8036  -43.3113  -11.3990 C   0  0  0  0  0  0  0  0  0  0  0  0
  -15.0701  -44.3037  -11.9810 C   0  0  0  0  0  0  0  0  0  0  0  0
  -13.9074  -44.6223  -11.3288 C   0  0  0  0  0  0  0  0  0  0  0  0
  -16.4379  -41.6096   -9.8959 C   0  0  0  0  0  0  0  0  0  0  0  0
  -17.7097  -41.8607  -10.1947 O   0  0  0  0  0  0  0  0  0  0  0  0
  -16.3582  -40.3184   -9.3096 N   0  0  0  0  0  0  0  0  0  0  0  0
  -22.3959  -39.7201   -6.6162 C   0  0  0  0  0  0  0  0  0  0  0  0
  -23.6181  -40.0099   -7.2457 C   0  0  0  0  0  0  0  0  0  0  0  0
  -23.8187  -39.8897   -8.5844 C   0  0  0  0  0  0  0  0  0  0  0  0
  -22.3159  -39.9119   -5.1543 C   0  0  0  0  0  0  0  0  0  0  0  0
  -21.9247  -41.2110   -4.8279 F   0  0  0  0  0  0  0  0  0  0  0  0
  -21.7157  -38.9289   -4.4471 F   0  0  0  0  0  0  0  0  0  0  0  0
  -23.6606  -39.9020   -4.6593 F   0  0  0  0  0  0  0  0  0  0  0  0
  1  2  1  0
  2  3  1  0
  3  4  1  0
  4  5  2  0
  5  6  1  0
  6  7  1  0
  7  8  1  0
  8  9  1  0
  9 10  1  0
 10 11  1  1
 10 12  1  0
 12 13  1  6
 13 14  1  0
 14 15  1  6
 14 16  1  0
 16 17  1  0
 17 18  1  0
 18 19  1  0
 19 20  1  0
 20 21  1  0
 21 22  1  0
 22 23  1  0
 23 24  1  0
 24 25  2  0
 25 26  1  0
 26 27  2  0
 27 28  1  0
 28 29  2  0
 26 30  1  0
 30 31  2  0
 30 32  1  0
  6 33  2  0
 33 34  1  0
 34 35  2  0
 33 36  1  0
 36 37  1  0
 36 38  1  0
 36 39  1  0
 29 24  1  0
 32 12  1  0
 35  4  1  0
M  END
$$$$
