
     RDKit          3D

 39 41  0  0  0  0  0  0  0  0999 V2000
  -21.5220  -35.4529   -8.3810 C   0  0  0  0  0  0  0  0  0  0  0  0
  -20.0518  -35.4191   -8.7643 C   0  0  0  0  0  0  0  0  0  0  0  0
  -19.8545  -35.9184  -10.0655 O   0  0  0  0  0  0  0  0  0  0  0  0
  -18.6531  -35.6919  -10.7054 C   0  0  0  0  0  0  0  0  0  0  0  0
  -17.5044  -36.4020  -10.3726 C   0  0  0  0  0  0  0  0  0  0  0  0
  -16.2736  -36.1798  -11.0188 C   0  0  0  0  0  0  0  0  0  0  0  0
  -15.1847  -37.0647  -10.5595 C   0  0  0  0  0  0  0  0  0  0  0  0
  -15.3380  -37.8077   -9.4105 N   0  0  0  0  0  0  0  0  0  0  0  0
  -16.2645  -38.7759   -9.1143 C   0  0  0  0  0  0  0  0  0  0  0  0
  -15.8282  -39.9532   -8.2768 C   0  0  1  0  0  0  0  0  0  0  0  0
  -15.1834  -39.6813   -7.1211 O   0  0  0  0  0  0  0  0  0  0  0  0
  -16.9843  -40.9527   -8.0512 C   0  0  2  0  0  0  0  0  0  0  0  0
  -16.5335  -42.1431   -7.3301 C   0  0  0  0  0  0  0  0  0  0  0  0
  -16.0895  -43.3568   -8.0332 C   0  0  2  0  0  0  0  0  0  0  0  0
  -15.0699  -43.1872   -9.1136 C   0  0  0  0  0  0  0  0  0  0  0  0
  -17.1701  -44.3062   -8.4788 C   0  0  0  0  0  0  0  0  0  0  0  0
  -17.4556  -45.2969   -7.3747 C   0  0  0  0  0  0  0  0  0  0  0  0
  -18.6390  -45.0334   -6.6816 O   0  0  0  0  0  0  0  0  0  0  0  0
  -19.1797  -46.1990   -6.1353 C   0  0  0  0  0  0  0  0  0  0  0  0
  -20.6894  -46.0972   -6.0171 C   0  0  0  0  0  0  0  0  0  0  0  0
  -21.1184  -45.5474   -4.6769 C   0  0  0  0  0  0  0  0  0  0  0  0
  -21.0490  -44.0623   -4.6035 C   0  0  0  0  0  0  0  0  0  0  0  0
  -21.8092  -43.3534   -5.6012 N   0  0  0  0  0  0  0  0  0  0  0  0
  -21.4366  -42.8286   -6.8864 C   0  0  0  0  0  0  0  0  0  0  0  0
  -20.3105  -42.1499   -7.3034 C   0  0  0  0  0  0  0  0  0  0  0  0
  -20.2092  -41.8106   -8.6361 C   0  0  0  0  0  0  0  0  0  0  0  0
  -21.2668  -42.1677   -9.5201 C   0  0  0  0  0  0  0  0  0  0  0  0
  -22.3957  -42.8348   -9.1431 C   0  0  0  0  0  0  0  0  0  0  0  0
  -22.4600  -43.1575   -7.8125 C   0  0  0  0  0  0  0  0  0  0  0  0
  -19.1513  -41.1353   -9.3925 C   0  0  0  0  0  0  0  0  0  0  0  0
  -19.4981  -40.3651  -10.4202 O   0  0  0  0  0  0  0  0  0  0  0  0
  -17.7362  -41.1169   -9.2717 N   0  0  0  0  0  0  0  0  0  0  0  0
  -16.2358  -35.2383  -11.9900 C   0  0  0  0  0  0  0  0  0  0  0  0
  -17.4075  -34.5323  -12.3104 C   0  0  0  0  0  0  0  0  0  0  0  0
  -18.6004  -34.7406  -11.6934 C   0  0  0  0  0  0  0  0  0  0  0  0
  -15.0055  -34.8960  -12.7313 C   0  0  0  0  0  0  0  0  0  0  0  0
  -13.8686  -35.0474  -11.9364 F   0  0  0  0  0  0  0  0  0  0  0  0
  -14.9035  -35.3781  -13.9897 F   0  0  0  0  0  0  0  0  0  0  0  0
  -15.0157  -33.4757  -12.9208 F   0  0  0  0  0  0  0  0  0  0  0  0
  1  2  1  0
  2  3  1  0
  3  4  1  0
  4  5  2  0
  5  6  1  0
  6  7  1  0
  7  8  1  0
  8  9  1  0
  9 10  1  0
 10 11  1  1
 10 12  1  0
 12 13  1  6
 13 14  1  0
 14 15  1  6
 14 16  1  0
 16 17  1  0
 17 18  1  0
 18 19  1  0
 19 20  1  0
 20 21  1  0
 21 22  1  0
 22 23  1  0
 23 24  1  0
 24 25  2  0
 25 26  1  0
 26 27  2  0
 27 28  1  0
 28 29  2  0
 26 30  1  0
 30 31  2  0
 30 32  1  0
  6 33  2  0
 33 34  1  0
 34 35  2  0
 33 36  1  0
 36 37  1  0
 36 38  1  0
 36 39  1  0
 29 24  1  0
 32 12  1  0
 35  4  1  0
M  END
$$$$
