
     RDKit          3D

 39 41  0  0  0  0  0  0  0  0999 V2000
  -19.3571  -36.3242  -14.8427 C   0  0  0  0  0  0  0  0  0  0  0  0
  -19.1442  -35.0460  -14.0487 C   0  0  0  0  0  0  0  0  0  0  0  0
  -18.4878  -35.3075  -12.8314 O   0  0  0  0  0  0  0  0  0  0  0  0
  -17.1252  -35.5258  -12.8272 C   0  0  0  0  0  0  0  0  0  0  0  0
  -16.5200  -36.3393  -11.8752 C   0  0  0  0  0  0  0  0  0  0  0  0
  -15.1312  -36.5696  -11.8614 C   0  0  0  0  0  0  0  0  0  0  0  0
  -14.6860  -37.4990  -10.8043 C   0  0  0  0  0  0  0  0  0  0  0  0
  -15.6055  -38.2787  -10.1393 N   0  0  0  0  0  0  0  0  0  0  0  0
  -16.3161  -38.0076   -8.9969 C   0  0  0  0  0  0  0  0  0  0  0  0
  -16.2932  -39.0233   -7.8807 C   0  0  1  0  0  0  0  0  0  0  0  0
  -15.6695  -38.6666   -6.7364 O   0  0  0  0  0  0  0  0  0  0  0  0
  -17.7016  -39.5912   -7.5970 C   0  0  2  0  0  0  0  0  0  0  0  0
  -17.7824  -40.1891   -6.2643 C   0  0  0  0  0  0  0  0  0  0  0  0
  -17.5430  -41.6232   -6.0392 C   0  0  2  0  0  0  0  0  0  0  0  0
  -16.2933  -42.2070   -6.6165 C   0  0  0  0  0  0  0  0  0  0  0  0
  -18.7101  -42.5434   -6.2814 C   0  0  0  0  0  0  0  0  0  0  0  0
  -19.5105  -42.6860   -5.0083 C   0  0  0  0  0  0  0  0  0  0  0  0
  -20.7014  -41.9565   -5.0139 O   0  0  0  0  0  0  0  0  0  0  0  0
  -21.6578  -42.5362   -4.1781 C   0  0  0  0  0  0  0  0  0  0  0  0
  -23.0632  -42.2359   -4.6663 C   0  0  0  0  0  0  0  0  0  0  0  0
  -23.6228  -40.9769   -4.0465 C   0  0  0  0  0  0  0  0  0  0  0  0
  -23.1611  -39.7348   -4.7246 C   0  0  0  0  0  0  0  0  0  0  0  0
  -23.4381  -39.6564   -6.1363 N   0  0  0  0  0  0  0  0  0  0  0  0
  -22.6441  -40.0051   -7.2826 C   0  0  0  0  0  0  0  0  0  0  0  0
  -21.3084  -39.8048   -7.5627 C   0  0  0  0  0  0  0  0  0  0  0  0
  -20.8078  -40.3046   -8.7464 C   0  0  0  0  0  0  0  0  0  0  0  0
  -21.6857  -40.9975   -9.6275 C   0  0  0  0  0  0  0  0  0  0  0  0
  -23.0114  -41.2112   -9.3857 C   0  0  0  0  0  0  0  0  0  0  0  0
  -23.4725  -40.7028   -8.1993 C   0  0  0  0  0  0  0  0  0  0  0  0
  -19.4572  -40.2951   -9.3148 C   0  0  0  0  0  0  0  0  0  0  0  0
  -19.3250  -40.2251  -10.6367 O   0  0  0  0  0  0  0  0  0  0  0  0
  -18.1623  -40.3512   -8.7339 N   0  0  0  0  0  0  0  0  0  0  0  0
  -14.3857  -35.9662  -12.8160 C   0  0  0  0  0  0  0  0  0  0  0  0
  -15.0170  -35.1482  -13.7680 C   0  0  0  0  0  0  0  0  0  0  0  0
  -16.3568  -34.9210  -13.7903 C   0  0  0  0  0  0  0  0  0  0  0  0
  -12.9186  -36.1103  -12.9018 C   0  0  0  0  0  0  0  0  0  0  0  0
  -12.5122  -37.4104  -12.5989 F   0  0  0  0  0  0  0  0  0  0  0  0
  -12.3171  -35.5479  -13.9735 F   0  0  0  0  0  0  0  0  0  0  0  0
  -12.3643  -35.3888  -11.7948 F   0  0  0  0  0  0  0  0  0  0  0  0
  1  2  1  0
  2  3  1  0
  3  4  1  0
  4  5  2  0
  5  6  1  0
  6  7  1  0
  7  8  1  0
  8  9  1  0
  9 10  1  0
 10 11  1  1
 10 12  1  0
 12 13  1  1
 13 14  1  0
 14 15  1  6
 14 16  1  0
 16 17  1  0
 17 18  1  0
 18 19  1  0
 19 20  1  0
 20 21  1  0
 21 22  1  0
 22 23  1  0
 23 24  1  0
 24 25  2  0
 25 26  1  0
 26 27  2  0
 27 28  1  0
 28 29  2  0
 26 30  1  0
 30 31  2  0
 30 32  1  0
  6 33  2  0
 33 34  1  0
 34 35  2  0
 33 36  1  0
 36 37  1  0
 36 38  1  0
 36 39  1  0
 29 24  1  0
 32 12  1  0
 35  4  1  0
M  END
$$$$
