
     RDKit          3D

 39 41  0  0  0  0  0  0  0  0999 V2000
  -20.3101  -33.7586  -11.5548 C   0  0  0  0  0  0  0  0  0  0  0  0
  -18.7938  -33.8320  -11.4836 C   0  0  0  0  0  0  0  0  0  0  0  0
  -18.3388  -35.1484  -11.6869 O   0  0  0  0  0  0  0  0  0  0  0  0
  -16.9833  -35.4070  -11.6842 C   0  0  0  0  0  0  0  0  0  0  0  0
  -16.3881  -36.1672  -10.6831 C   0  0  0  0  0  0  0  0  0  0  0  0
  -15.0066  -36.4379  -10.6701 C   0  0  0  0  0  0  0  0  0  0  0  0
  -14.5731  -37.3013   -9.5538 C   0  0  0  0  0  0  0  0  0  0  0  0
  -15.4537  -37.6159   -8.5431 N   0  0  0  0  0  0  0  0  0  0  0  0
  -15.2672  -38.4086   -7.4384 C   0  0  0  0  0  0  0  0  0  0  0  0
  -15.4909  -39.8949   -7.5768 C   0  0  1  0  0  0  0  0  0  0  0  0
  -14.7670  -40.7039   -6.7726 O   0  0  0  0  0  0  0  0  0  0  0  0
  -16.9928  -40.2530   -7.5258 C   0  0  2  0  0  0  0  0  0  0  0  0
  -17.2000  -41.6527   -7.1541 C   0  0  0  0  0  0  0  0  0  0  0  0
  -17.3417  -42.7130   -8.1642 C   0  0  2  0  0  0  0  0  0  0  0  0
  -16.3023  -42.7792   -9.2370 C   0  0  0  0  0  0  0  0  0  0  0  0
  -18.7148  -42.8964   -8.7548 C   0  0  0  0  0  0  0  0  0  0  0  0
  -19.4974  -43.8764   -7.9127 C   0  0  0  0  0  0  0  0  0  0  0  0
  -20.4541  -43.2698   -7.0960 O   0  0  0  0  0  0  0  0  0  0  0  0
  -21.5115  -44.1382   -6.8185 C   0  0  0  0  0  0  0  0  0  0  0  0
  -22.7983  -43.3711   -6.5748 C   0  0  0  0  0  0  0  0  0  0  0  0
  -22.9935  -43.0390   -5.1140 C   0  0  0  0  0  0  0  0  0  0  0  0
  -22.2357  -41.8332   -4.6809 C   0  0  0  0  0  0  0  0  0  0  0  0
  -22.5120  -40.6263   -5.4176 N   0  0  0  0  0  0  0  0  0  0  0  0
  -21.8622  -40.0364   -6.5559 C   0  0  0  0  0  0  0  0  0  0  0  0
  -20.5271  -39.8877   -6.8690 C   0  0  0  0  0  0  0  0  0  0  0  0
  -20.2008  -39.3152   -8.0803 C   0  0  0  0  0  0  0  0  0  0  0  0
  -21.2486  -38.8987   -8.9498 C   0  0  0  0  0  0  0  0  0  0  0  0
  -22.5784  -39.0262   -8.6724 C   0  0  0  0  0  0  0  0  0  0  0  0
  -22.8642  -39.6016   -7.4616 C   0  0  0  0  0  0  0  0  0  0  0  0
  -18.9077  -39.0525   -8.7176 C   0  0  0  0  0  0  0  0  0  0  0  0
  -18.7897  -37.9806   -9.4967 O   0  0  0  0  0  0  0  0  0  0  0  0
  -17.6612  -39.7330   -8.6942 N   0  0  0  0  0  0  0  0  0  0  0  0
  -14.2580  -35.9282  -11.6755 C   0  0  0  0  0  0  0  0  0  0  0  0
  -14.8792  -35.1626  -12.6766 C   0  0  0  0  0  0  0  0  0  0  0  0
  -16.2119  -34.8972  -12.6985 C   0  0  0  0  0  0  0  0  0  0  0  0
  -12.7972  -36.1225  -11.7692 C   0  0  0  0  0  0  0  0  0  0  0  0
  -12.1461  -35.6832  -10.6158 F   0  0  0  0  0  0  0  0  0  0  0  0
  -12.3749  -37.3092  -12.2590 F   0  0  0  0  0  0  0  0  0  0  0  0
  -12.3126  -35.1765  -12.7302 F   0  0  0  0  0  0  0  0  0  0  0  0
  1  2  1  0
  2  3  1  0
  3  4  1  0
  4  5  2  0
  5  6  1  0
  6  7  1  0
  7  8  1  0
  8  9  1  0
  9 10  1  0
 10 11  1  1
 10 12  1  0
 12 13  1  6
 13 14  1  0
 14 15  1  6
 14 16  1  0
 16 17  1  0
 17 18  1  0
 18 19  1  0
 19 20  1  0
 20 21  1  0
 21 22  1  0
 22 23  1  0
 23 24  1  0
 24 25  2  0
 25 26  1  0
 26 27  2  0
 27 28  1  0
 28 29  2  0
 26 30  1  0
 30 31  2  0
 30 32  1  0
  6 33  2  0
 33 34  1  0
 34 35  2  0
 33 36  1  0
 36 37  1  0
 36 38  1  0
 36 39  1  0
 29 24  1  0
 32 12  1  0
 35  4  1  0
M  END
$$$$
