
     RDKit          3D

 39 41  0  0  0  0  0  0  0  0999 V2000
  -23.9473  -39.2847   -6.1899 C   0  0  0  0  0  0  0  0  0  0  0  0
  -22.6776  -39.0917   -7.0024 C   0  0  0  0  0  0  0  0  0  0  0  0
  -22.7109  -37.8793   -7.7168 O   0  0  0  0  0  0  0  0  0  0  0  0
  -21.6890  -37.5791   -8.5941 C   0  0  0  0  0  0  0  0  0  0  0  0
  -20.3656  -37.8970   -8.3081 C   0  0  0  0  0  0  0  0  0  0  0  0
  -19.3149  -37.5961   -9.1956 C   0  0  0  0  0  0  0  0  0  0  0  0
  -17.9892  -38.0557   -8.7363 C   0  0  0  0  0  0  0  0  0  0  0  0
  -17.6897  -38.0646   -7.3925 N   0  0  0  0  0  0  0  0  0  0  0  0
  -16.6631  -38.6909   -6.7312 C   0  0  0  0  0  0  0  0  0  0  0  0
  -15.6142  -39.4050   -7.5485 C   0  0  1  0  0  0  0  0  0  0  0  0
  -14.3617  -39.4445   -7.0433 O   0  0  0  0  0  0  0  0  0  0  0  0
  -16.0877  -40.8101   -7.9822 C   0  0  2  0  0  0  0  0  0  0  0  0
  -14.9798  -41.7649   -8.0149 C   0  0  0  0  0  0  0  0  0  0  0  0
  -14.2156  -42.0280   -9.2443 C   0  0  2  0  0  0  0  0  0  0  0  0
  -13.6872  -40.8433   -9.9880 C   0  0  0  0  0  0  0  0  0  0  0  0
  -14.8119  -43.0238  -10.2037 C   0  0  0  0  0  0  0  0  0  0  0  0
  -14.3308  -44.4117   -9.8511 C   0  0  0  0  0  0  0  0  0  0  0  0
  -15.2928  -45.1864   -9.1994 O   0  0  0  0  0  0  0  0  0  0  0  0
  -15.0859  -46.5491   -9.4222 C   0  0  0  0  0  0  0  0  0  0  0  0
  -16.3930  -47.3175   -9.3569 C   0  0  0  0  0  0  0  0  0  0  0  0
  -16.6837  -47.8266   -7.9645 C   0  0  0  0  0  0  0  0  0  0  0  0
  -17.2881  -46.7949   -7.0778 C   0  0  0  0  0  0  0  0  0  0  0  0
  -18.5069  -46.1965   -7.5596 N   0  0  0  0  0  0  0  0  0  0  0  0
  -18.7441  -44.9970   -8.3152 C   0  0  0  0  0  0  0  0  0  0  0  0
  -18.1959  -43.7349   -8.2197 C   0  0  0  0  0  0  0  0  0  0  0  0
  -18.5914  -42.7809   -9.1335 C   0  0  0  0  0  0  0  0  0  0  0  0
  -19.5472  -43.1340  -10.1280 C   0  0  0  0  0  0  0  0  0  0  0  0
  -20.1128  -44.3696  -10.2506 C   0  0  0  0  0  0  0  0  0  0  0  0
  -19.6940  -45.2919   -9.3272 C   0  0  0  0  0  0  0  0  0  0  0  0
  -18.1830  -41.3867   -9.3258 C   0  0  0  0  0  0  0  0  0  0  0  0
  -19.0843  -40.5171   -9.7742 O   0  0  0  0  0  0  0  0  0  0  0  0
  -16.9533  -40.7030   -9.1317 N   0  0  0  0  0  0  0  0  0  0  0  0
  -19.6319  -36.9761  -10.3558 C   0  0  0  0  0  0  0  0  0  0  0  0
  -20.9750  -36.6636  -10.6249 C   0  0  0  0  0  0  0  0  0  0  0  0
  -21.9961  -36.9513   -9.7753 C   0  0  0  0  0  0  0  0  0  0  0  0
  -18.6236  -36.5893  -11.3629 C   0  0  0  0  0  0  0  0  0  0  0  0
  -17.3313  -36.9079  -10.9438 F   0  0  0  0  0  0  0  0  0  0  0  0
  -18.9080  -36.8888  -12.6498 F   0  0  0  0  0  0  0  0  0  0  0  0
  -18.5629  -35.1577  -11.3620 F   0  0  0  0  0  0  0  0  0  0  0  0
  1  2  1  0
  2  3  1  0
  3  4  1  0
  4  5  2  0
  5  6  1  0
  6  7  1  0
  7  8  1  0
  8  9  1  0
  9 10  1  0
 10 11  1  1
 10 12  1  0
 12 13  1  6
 13 14  1  0
 14 15  1  6
 14 16  1  0
 16 17  1  0
 17 18  1  0
 18 19  1  0
 19 20  1  0
 20 21  1  0
 21 22  1  0
 22 23  1  0
 23 24  1  0
 24 25  2  0
 25 26  1  0
 26 27  2  0
 27 28  1  0
 28 29  2  0
 26 30  1  0
 30 31  2  0
 30 32  1  0
  6 33  2  0
 33 34  1  0
 34 35  2  0
 33 36  1  0
 36 37  1  0
 36 38  1  0
 36 39  1  0
 29 24  1  0
 32 12  1  0
 35  4  1  0
M  END
$$$$
