
     RDKit          3D

 39 41  0  0  0  0  0  0  0  0999 V2000
  -12.4664  -43.8460  -12.8130 C   0  0  0  0  0  0  0  0  0  0  0  0
  -12.8196  -42.4606  -12.2978 C   0  0  0  0  0  0  0  0  0  0  0  0
  -13.2644  -41.6283  -13.3423 O   0  0  0  0  0  0  0  0  0  0  0  0
  -13.5131  -40.2947  -13.0896 C   0  0  0  0  0  0  0  0  0  0  0  0
  -13.4235  -39.7667  -11.8060 C   0  0  0  0  0  0  0  0  0  0  0  0
  -13.6744  -38.4079  -11.5364 C   0  0  0  0  0  0  0  0  0  0  0  0
  -13.4809  -38.0294  -10.1226 C   0  0  0  0  0  0  0  0  0  0  0  0
  -14.3708  -38.4615   -9.1649 N   0  0  0  0  0  0  0  0  0  0  0  0
  -15.6940  -38.8024   -9.2933 C   0  0  0  0  0  0  0  0  0  0  0  0
  -16.6177  -38.5411   -8.1287 C   0  0  1  0  0  0  0  0  0  0  0  0
  -17.0608  -37.2751   -7.9664 O   0  0  0  0  0  0  0  0  0  0  0  0
  -17.7849  -39.5524   -8.0880 C   0  0  2  0  0  0  0  0  0  0  0  0
  -19.0818  -38.8809   -8.1729 C   0  0  0  0  0  0  0  0  0  0  0  0
  -19.8381  -38.4949   -6.9714 C   0  0  2  0  0  0  0  0  0  0  0  0
  -19.1056  -37.7237   -5.9205 C   0  0  0  0  0  0  0  0  0  0  0  0
  -20.6833  -39.5683   -6.3381 C   0  0  0  0  0  0  0  0  0  0  0  0
  -22.0601  -39.5561   -6.9594 C   0  0  0  0  0  0  0  0  0  0  0  0
  -22.2713  -40.5961   -7.8672 O   0  0  0  0  0  0  0  0  0  0  0  0
  -23.6242  -40.9301   -7.9536 C   0  0  0  0  0  0  0  0  0  0  0  0
  -23.8031  -42.3903   -8.3270 C   0  0  0  0  0  0  0  0  0  0  0  0
  -23.8983  -42.5866   -9.8219 C   0  0  0  0  0  0  0  0  0  0  0  0
  -22.5708  -42.6150  -10.4948 C   0  0  0  0  0  0  0  0  0  0  0  0
  -21.6470  -43.6075  -10.0078 N   0  0  0  0  0  0  0  0  0  0  0  0
  -20.6079  -43.5355   -9.0172 C   0  0  0  0  0  0  0  0  0  0  0  0
  -19.6604  -42.5674   -8.7573 C   0  0  0  0  0  0  0  0  0  0  0  0
  -18.8110  -42.7562   -7.6875 C   0  0  0  0  0  0  0  0  0  0  0  0
  -18.9426  -43.9376   -6.9037 C   0  0  0  0  0  0  0  0  0  0  0  0
  -19.8642  -44.9172   -7.1329 C   0  0  0  0  0  0  0  0  0  0  0  0
  -20.6922  -44.6939   -8.2022 C   0  0  0  0  0  0  0  0  0  0  0  0
  -17.7425  -41.9213   -7.1319 C   0  0  0  0  0  0  0  0  0  0  0  0
  -16.6897  -42.5203   -6.5817 O   0  0  0  0  0  0  0  0  0  0  0  0
  -17.5631  -40.5156   -7.0368 N   0  0  0  0  0  0  0  0  0  0  0  0
  -14.0130  -37.6137  -12.5783 C   0  0  0  0  0  0  0  0  0  0  0  0
  -14.0981  -38.1673  -13.8668 C   0  0  0  0  0  0  0  0  0  0  0  0
  -13.8564  -39.4771  -14.1372 C   0  0  0  0  0  0  0  0  0  0  0  0
  -14.3190  -36.1769  -12.4285 C   0  0  0  0  0  0  0  0  0  0  0  0
  -15.1900  -35.7314  -13.4237 F   0  0  0  0  0  0  0  0  0  0  0  0
  -14.5947  -35.7442  -11.1782 F   0  0  0  0  0  0  0  0  0  0  0  0
  -13.1269  -35.4598  -12.7717 F   0  0  0  0  0  0  0  0  0  0  0  0
  1  2  1  0
  2  3  1  0
  3  4  1  0
  4  5  2  0
  5  6  1  0
  6  7  1  0
  7  8  1  0
  8  9  1  0
  9 10  1  0
 10 11  1  6
 10 12  1  0
 12 13  1  1
 13 14  1  0
 14 15  1  1
 14 16  1  0
 16 17  1  0
 17 18  1  0
 18 19  1  0
 19 20  1  0
 20 21  1  0
 21 22  1  0
 22 23  1  0
 23 24  1  0
 24 25  2  0
 25 26  1  0
 26 27  2  0
 27 28  1  0
 28 29  2  0
 26 30  1  0
 30 31  2  0
 30 32  1  0
  6 33  2  0
 33 34  1  0
 34 35  2  0
 33 36  1  0
 36 37  1  0
 36 38  1  0
 36 39  1  0
 29 24  1  0
 32 12  1  0
 35  4  1  0
M  END
$$$$
