
     RDKit          3D

 39 41  0  0  0  0  0  0  0  0999 V2000
  -18.1218  -34.5172  -12.5362 C   0  0  0  0  0  0  0  0  0  0  0  0
  -17.8504  -35.9819  -12.2352 C   0  0  0  0  0  0  0  0  0  0  0  0
  -19.0284  -36.7467  -12.3298 O   0  0  0  0  0  0  0  0  0  0  0  0
  -19.6561  -37.1732  -11.1773 C   0  0  0  0  0  0  0  0  0  0  0  0
  -18.9901  -37.2151   -9.9570 C   0  0  0  0  0  0  0  0  0  0  0  0
  -19.6202  -37.6479   -8.7748 C   0  0  0  0  0  0  0  0  0  0  0  0
  -18.7633  -37.5746   -7.5748 C   0  0  0  0  0  0  0  0  0  0  0  0
  -17.5482  -38.2217   -7.5544 N   0  0  0  0  0  0  0  0  0  0  0  0
  -17.0019  -39.0224   -6.5828 C   0  0  0  0  0  0  0  0  0  0  0  0
  -15.6486  -39.6393   -6.8397 C   0  0  1  0  0  0  0  0  0  0  0  0
  -14.8827  -39.9145   -5.7612 O   0  0  0  0  0  0  0  0  0  0  0  0
  -15.7473  -40.8592   -7.7824 C   0  0  2  0  0  0  0  0  0  0  0  0
  -14.6562  -41.8063   -7.5529 C   0  0  0  0  0  0  0  0  0  0  0  0
  -13.4052  -41.7539   -8.3255 C   0  0  2  0  0  0  0  0  0  0  0  0
  -12.7148  -40.4310   -8.4207 C   0  0  0  0  0  0  0  0  0  0  0  0
  -13.4184  -42.4343   -9.6688 C   0  0  0  0  0  0  0  0  0  0  0  0
  -13.0165  -43.8811   -9.5035 C   0  0  0  0  0  0  0  0  0  0  0  0
  -14.0908  -44.7702   -9.5785 O   0  0  0  0  0  0  0  0  0  0  0  0
  -13.6805  -46.0287  -10.0225 C   0  0  0  0  0  0  0  0  0  0  0  0
  -14.8030  -46.7425  -10.7533 C   0  0  0  0  0  0  0  0  0  0  0  0
  -15.6321  -47.5976   -9.8239 C   0  0  0  0  0  0  0  0  0  0  0  0
  -16.6603  -46.8232   -9.0763 C   0  0  0  0  0  0  0  0  0  0  0  0
  -17.5889  -46.0770   -9.8866 N   0  0  0  0  0  0  0  0  0  0  0  0
  -17.5771  -44.7112  -10.3342 C   0  0  0  0  0  0  0  0  0  0  0  0
  -17.2485  -43.5403   -9.6833 C   0  0  0  0  0  0  0  0  0  0  0  0
  -17.2848  -42.3629  -10.4002 C   0  0  0  0  0  0  0  0  0  0  0  0
  -17.6628  -42.4033  -11.7724 C   0  0  0  0  0  0  0  0  0  0  0  0
  -17.9974  -43.5407  -12.4475 C   0  0  0  0  0  0  0  0  0  0  0  0
  -17.9475  -44.6910  -11.7038 C   0  0  0  0  0  0  0  0  0  0  0  0
  -16.9654  -40.9829  -10.0250 C   0  0  0  0  0  0  0  0  0  0  0  0
  -17.6511  -39.9951  -10.5941 O   0  0  0  0  0  0  0  0  0  0  0  0
  -16.0191  -40.4179   -9.1291 N   0  0  0  0  0  0  0  0  0  0  0  0
  -20.9154  -38.0308   -8.8582 C   0  0  0  0  0  0  0  0  0  0  0  0
  -21.5693  -37.9810  -10.1007 C   0  0  0  0  0  0  0  0  0  0  0  0
  -20.9701  -37.5635  -11.2469 C   0  0  0  0  0  0  0  0  0  0  0  0
  -21.6855  -38.5220   -7.6980 C   0  0  0  0  0  0  0  0  0  0  0  0
  -22.5154  -39.5881   -8.0472 F   0  0  0  0  0  0  0  0  0  0  0  0
  -21.0057  -38.6697   -6.5393 F   0  0  0  0  0  0  0  0  0  0  0  0
  -22.6558  -37.5148   -7.3863 F   0  0  0  0  0  0  0  0  0  0  0  0
  1  2  1  0
  2  3  1  0
  3  4  1  0
  4  5  2  0
  5  6  1  0
  6  7  1  0
  7  8  1  0
  8  9  1  0
  9 10  1  0
 10 11  1  1
 10 12  1  0
 12 13  1  6
 13 14  1  0
 14 15  1  6
 14 16  1  0
 16 17  1  0
 17 18  1  0
 18 19  1  0
 19 20  1  0
 20 21  1  0
 21 22  1  0
 22 23  1  0
 23 24  1  0
 24 25  2  0
 25 26  1  0
 26 27  2  0
 27 28  1  0
 28 29  2  0
 26 30  1  0
 30 31  2  0
 30 32  1  0
  6 33  2  0
 33 34  1  0
 34 35  2  0
 33 36  1  0
 36 37  1  0
 36 38  1  0
 36 39  1  0
 29 24  1  0
 32 12  1  0
 35  4  1  0
M  END
$$$$
