
     RDKit          3D

 39 41  0  0  0  0  0  0  0  0999 V2000
  -25.3728  -40.2312   -6.3461 C   0  0  0  0  0  0  0  0  0  0  0  0
  -24.6108  -39.7144   -7.5552 C   0  0  0  0  0  0  0  0  0  0  0  0
  -23.2430  -39.5546   -7.2634 O   0  0  0  0  0  0  0  0  0  0  0  0
  -22.3834  -39.1208   -8.2518 C   0  0  0  0  0  0  0  0  0  0  0  0
  -21.0762  -38.7412   -7.9663 C   0  0  0  0  0  0  0  0  0  0  0  0
  -20.1903  -38.2975   -8.9663 C   0  0  0  0  0  0  0  0  0  0  0  0
  -18.8337  -37.9867   -8.4736 C   0  0  0  0  0  0  0  0  0  0  0  0
  -18.2486  -38.7836   -7.5153 N   0  0  0  0  0  0  0  0  0  0  0  0
  -16.9897  -38.7151   -6.9729 C   0  0  0  0  0  0  0  0  0  0  0  0
  -15.8130  -39.0807   -7.8445 C   0  0  1  0  0  0  0  0  0  0  0  0
  -14.5839  -38.7542   -7.3882 O   0  0  0  0  0  0  0  0  0  0  0  0
  -15.8704  -40.5588   -8.2900 C   0  0  2  0  0  0  0  0  0  0  0  0
  -14.5318  -41.1085   -8.5048 C   0  0  0  0  0  0  0  0  0  0  0  0
  -13.8909  -41.1003   -9.8291 C   0  0  2  0  0  0  0  0  0  0  0  0
  -13.8656  -39.8011  -10.5689 C   0  0  0  0  0  0  0  0  0  0  0  0
  -14.2616  -42.2245  -10.7598 C   0  0  0  0  0  0  0  0  0  0  0  0
  -13.3248  -43.3890  -10.5397 C   0  0  0  0  0  0  0  0  0  0  0  0
  -13.8990  -44.4376   -9.8179 O   0  0  0  0  0  0  0  0  0  0  0  0
  -13.3029  -45.6600  -10.1338 C   0  0  0  0  0  0  0  0  0  0  0  0
  -14.2799  -46.8070   -9.9515 C   0  0  0  0  0  0  0  0  0  0  0  0
  -14.2106  -47.3968   -8.5624 C   0  0  0  0  0  0  0  0  0  0  0  0
  -14.9890  -46.6222   -7.5575 C   0  0  0  0  0  0  0  0  0  0  0  0
  -16.3863  -46.4403   -7.8577 N   0  0  0  0  0  0  0  0  0  0  0  0
  -17.0869  -45.3720   -8.5165 C   0  0  0  0  0  0  0  0  0  0  0  0
  -16.9582  -44.0019   -8.4227 C   0  0  0  0  0  0  0  0  0  0  0  0
  -17.7505  -43.2152   -9.2319 C   0  0  0  0  0  0  0  0  0  0  0  0
  -18.6668  -43.8453  -10.1211 C   0  0  0  0  0  0  0  0  0  0  0  0
  -18.8238  -45.1955  -10.2383 C   0  0  0  0  0  0  0  0  0  0  0  0
  -18.0183  -45.9448   -9.4208 C   0  0  0  0  0  0  0  0  0  0  0  0
  -17.8324  -41.7617   -9.3999 C   0  0  0  0  0  0  0  0  0  0  0  0
  -19.0127  -41.2216   -9.6912 O   0  0  0  0  0  0  0  0  0  0  0  0
  -16.8676  -40.7225   -9.3200 N   0  0  0  0  0  0  0  0  0  0  0  0
  -20.6528  -38.2474  -10.2370 C   0  0  0  0  0  0  0  0  0  0  0  0
  -21.9767  -38.6349  -10.5036 C   0  0  0  0  0  0  0  0  0  0  0  0
  -22.8388  -39.0659   -9.5454 C   0  0  0  0  0  0  0  0  0  0  0  0
  -19.8326  -37.7838  -11.3740 C   0  0  0  0  0  0  0  0  0  0  0  0
  -20.0909  -38.5240  -12.5285 F   0  0  0  0  0  0  0  0  0  0  0  0
  -19.7415  -36.4467  -11.5489 F   0  0  0  0  0  0  0  0  0  0  0  0
  -18.4817  -38.1744  -11.0990 F   0  0  0  0  0  0  0  0  0  0  0  0
  1  2  1  0
  2  3  1  0
  3  4  1  0
  4  5  2  0
  5  6  1  0
  6  7  1  0
  7  8  1  0
  8  9  1  0
  9 10  1  0
 10 11  1  1
 10 12  1  0
 12 13  1  6
 13 14  1  0
 14 15  1  6
 14 16  1  0
 16 17  1  0
 17 18  1  0
 18 19  1  0
 19 20  1  0
 20 21  1  0
 21 22  1  0
 22 23  1  0
 23 24  1  0
 24 25  2  0
 25 26  1  0
 26 27  2  0
 27 28  1  0
 28 29  2  0
 26 30  1  0
 30 31  2  0
 30 32  1  0
  6 33  2  0
 33 34  1  0
 34 35  2  0
 33 36  1  0
 36 37  1  0
 36 38  1  0
 36 39  1  0
 29 24  1  0
 32 12  1  0
 35  4  1  0
M  END
$$$$
