
     RDKit          3D

 36 39  0  0  0  0  0  0  0  0999 V2000
  -13.9516  -40.9404  -10.3641 C   0  0  0  0  0  0  0  0  0  0  0  0
  -13.8107  -39.5834   -9.6991 C   0  0  0  0  0  0  0  0  0  0  0  0
  -12.7119  -39.5706   -8.6913 C   0  0  0  0  0  0  0  0  0  0  0  0
  -15.0390  -39.1064   -9.1624 N   0  0  0  0  0  0  0  0  0  0  0  0
  -15.2544  -39.1156   -7.7826 C   0  0  0  0  0  0  0  0  0  0  0  0
  -16.5403  -38.5991   -7.2409 C   0  0  1  0  0  0  0  0  0  0  0  0
  -16.9348  -37.3627   -7.6865 O   0  0  0  0  0  0  0  0  0  0  0  0
  -17.6751  -39.6397   -7.4737 C   0  0  2  0  0  0  0  0  0  0  0  0
  -18.5158  -39.8309   -6.2790 C   0  0  0  0  0  0  0  0  0  0  0  0
  -19.9223  -39.3465   -6.1975 C   0  0  0  0  0  0  0  0  0  0  0  0
  -20.2290  -39.1017   -4.8187 C   0  0  0  0  0  0  0  0  0  0  0  0
  -21.4527  -38.7170   -4.3696 C   0  0  0  0  0  0  0  0  0  0  0  0
  -22.4014  -38.5746   -5.3386 C   0  0  0  0  0  0  0  0  0  0  0  0
  -22.1579  -38.8032   -6.7267 C   0  0  0  0  0  0  0  0  0  0  0  0
  -23.4109  -38.5832   -7.4759 C   0  0  0  0  0  0  0  0  0  0  0  0
  -23.7744  -39.1646   -8.7536 C   0  0  0  0  0  0  0  0  0  0  0  0
  -23.3257  -40.5814   -8.9460 C   0  0  0  0  0  0  0  0  0  0  0  0
  -23.5139  -41.3874   -7.7014 C   0  0  0  0  0  0  0  0  0  0  0  0
  -22.7323  -42.6453   -7.7049 N   0  0  0  0  0  0  0  0  0  0  0  0
  -21.3404  -42.8527   -7.4917 C   0  0  0  0  0  0  0  0  0  0  0  0
  -21.1653  -43.8463   -6.4772 C   0  0  0  0  0  0  0  0  0  0  0  0
  -19.9971  -44.2399   -6.0079 N   0  0  0  0  0  0  0  0  0  0  0  0
  -18.9113  -43.6642   -6.5217 C   0  0  0  0  0  0  0  0  0  0  0  0
  -18.9771  -42.6685   -7.5323 C   0  0  0  0  0  0  0  0  0  0  0  0
  -20.2124  -42.2605   -8.0274 C   0  0  0  0  0  0  0  0  0  0  0  0
  -17.6080  -42.1876   -7.8240 C   0  0  0  0  0  0  0  0  0  0  0  0
  -16.7221  -43.1468   -7.9347 O   0  0  0  0  0  0  0  0  0  0  0  0
  -17.1041  -40.8731   -7.9984 N   0  0  0  0  0  0  0  0  0  0  0  0
  -20.9130  -39.1845   -7.1312 C   0  0  0  0  0  0  0  0  0  0  0  0
  -13.3867  -38.6609  -10.8348 C   0  0  0  0  0  0  0  0  0  0  0  0
  -12.1727  -38.8149  -11.4488 C   0  0  0  0  0  0  0  0  0  0  0  0
  -11.7949  -37.9493  -12.4648 C   0  0  0  0  0  0  0  0  0  0  0  0
  -12.6446  -36.9370  -12.8518 C   0  0  0  0  0  0  0  0  0  0  0  0
  -13.8643  -36.7730  -12.2423 C   0  0  0  0  0  0  0  0  0  0  0  0
  -15.0220  -35.3737  -12.7883 Br  0  0  0  0  0  0  0  0  0  0  0  0
  -14.2311  -37.6586  -11.2147 C   0  0  0  0  0  0  0  0  0  0  0  0
  1  2  1  0
  2  3  1  0
  2  4  1  0
  4  5  1  0
  5  6  1  0
  6  7  1  6
  6  8  1  0
  8  9  1  1
  9 10  1  0
 10 11  1  0
 11 12  2  0
 12 13  1  0
 13 14  2  0
 14 15  1  0
 15 16  1  0
 16 17  1  0
 17 18  1  0
 18 19  1  0
 19 20  1  0
 20 21  1  0
 21 22  2  0
 22 23  1  0
 23 24  2  0
 24 25  1  0
 24 26  1  0
 26 27  2  0
 26 28  1  0
 14 29  1  0
  2 30  1  0
 30 31  2  0
 31 32  1  0
 32 33  2  0
 33 34  1  0
 34 35  1  0
 34 36  2  0
 25 20  2  0
 28  8  1  0
 29 10  2  0
 36 30  1  0
M  END
$$$$
