
     RDKit          3D

 36 39  0  0  0  0  0  0  0  0999 V2000
  -12.0616  -39.8396   -8.9964 C   0  0  0  0  0  0  0  0  0  0  0  0
  -13.4469  -39.9060   -9.6126 C   0  0  0  0  0  0  0  0  0  0  0  0
  -13.6665  -38.8139  -10.6038 C   0  0  0  0  0  0  0  0  0  0  0  0
  -14.4791  -39.9613   -8.6350 N   0  0  0  0  0  0  0  0  0  0  0  0
  -15.2268  -38.8202   -8.3364 C   0  0  0  0  0  0  0  0  0  0  0  0
  -16.1986  -38.8582   -7.2102 C   0  0  1  0  0  0  0  0  0  0  0  0
  -16.6816  -37.6469   -6.7830 O   0  0  0  0  0  0  0  0  0  0  0  0
  -17.3785  -39.8144   -7.5540 C   0  0  2  0  0  0  0  0  0  0  0  0
  -18.3325  -39.9527   -6.4398 C   0  0  0  0  0  0  0  0  0  0  0  0
  -19.7033  -39.3704   -6.4759 C   0  0  0  0  0  0  0  0  0  0  0  0
  -20.1125  -39.1127   -5.1262 C   0  0  0  0  0  0  0  0  0  0  0  0
  -21.3410  -38.6449   -4.7813 C   0  0  0  0  0  0  0  0  0  0  0  0
  -22.1883  -38.4300   -5.8277 C   0  0  0  0  0  0  0  0  0  0  0  0
  -21.8401  -38.6670   -7.1919 C   0  0  0  0  0  0  0  0  0  0  0  0
  -23.0037  -38.3544   -8.0451 C   0  0  0  0  0  0  0  0  0  0  0  0
  -23.2930  -38.9010   -9.3567 C   0  0  0  0  0  0  0  0  0  0  0  0
  -22.9294  -40.3448   -9.5263 C   0  0  0  0  0  0  0  0  0  0  0  0
  -23.2825  -41.1429   -8.3128 C   0  0  0  0  0  0  0  0  0  0  0  0
  -22.5936  -42.4529   -8.2632 N   0  0  0  0  0  0  0  0  0  0  0  0
  -21.2439  -42.7597   -7.9316 C   0  0  0  0  0  0  0  0  0  0  0  0
  -21.2289  -43.7692   -6.9178 C   0  0  0  0  0  0  0  0  0  0  0  0
  -20.1370  -44.2472   -6.3530 N   0  0  0  0  0  0  0  0  0  0  0  0
  -18.9725  -43.7469   -6.7628 C   0  0  0  0  0  0  0  0  0  0  0  0
  -18.8791  -42.7430   -7.7631 C   0  0  0  0  0  0  0  0  0  0  0  0
  -20.0344  -42.2456   -8.3594 C   0  0  0  0  0  0  0  0  0  0  0  0
  -17.4594  -42.3585   -7.9280 C   0  0  0  0  0  0  0  0  0  0  0  0
  -16.6365  -43.3773   -7.9725 O   0  0  0  0  0  0  0  0  0  0  0  0
  -16.8513  -41.0820   -8.0417 N   0  0  0  0  0  0  0  0  0  0  0  0
  -20.5942  -39.1331   -7.4905 C   0  0  0  0  0  0  0  0  0  0  0  0
  -13.4412  -41.2180  -10.3868 C   0  0  0  0  0  0  0  0  0  0  0  0
  -13.9360  -41.2834  -11.6618 C   0  0  0  0  0  0  0  0  0  0  0  0
  -13.9441  -42.4928  -12.3412 C   0  0  0  0  0  0  0  0  0  0  0  0
  -13.4534  -43.6244  -11.7285 C   0  0  0  0  0  0  0  0  0  0  0  0
  -12.9554  -43.5703  -10.4499 C   0  0  0  0  0  0  0  0  0  0  0  0
  -12.2831  -45.1384   -9.6219 Br  0  0  0  0  0  0  0  0  0  0  0  0
  -12.9549  -42.3371   -9.7761 C   0  0  0  0  0  0  0  0  0  0  0  0
  1  2  1  0
  2  3  1  0
  2  4  1  0
  4  5  1  0
  5  6  1  0
  6  7  1  6
  6  8  1  0
  8  9  1  1
  9 10  1  0
 10 11  1  0
 11 12  2  0
 12 13  1  0
 13 14  2  0
 14 15  1  0
 15 16  1  0
 16 17  1  0
 17 18  1  0
 18 19  1  0
 19 20  1  0
 20 21  1  0
 21 22  2  0
 22 23  1  0
 23 24  2  0
 24 25  1  0
 24 26  1  0
 26 27  2  0
 26 28  1  0
 14 29  1  0
  2 30  1  0
 30 31  2  0
 31 32  1  0
 32 33  2  0
 33 34  1  0
 34 35  1  0
 34 36  2  0
 25 20  2  0
 28  8  1  0
 29 10  2  0
 36 30  1  0
M  END
$$$$
