
     RDKit          3D

 36 39  0  0  0  0  0  0  0  0999 V2000
  -12.0695  -39.6791   -9.4582 C   0  0  0  0  0  0  0  0  0  0  0  0
  -13.4207  -39.3591  -10.0708 C   0  0  0  0  0  0  0  0  0  0  0  0
  -13.4195  -38.0355  -10.7573 C   0  0  0  0  0  0  0  0  0  0  0  0
  -14.4877  -39.4805   -9.1375 N   0  0  0  0  0  0  0  0  0  0  0  0
  -15.4831  -38.5029   -9.0762 C   0  0  0  0  0  0  0  0  0  0  0  0
  -16.4797  -38.5439   -7.9721 C   0  0  1  0  0  0  0  0  0  0  0  0
  -17.0679  -37.3497   -7.6394 O   0  0  0  0  0  0  0  0  0  0  0  0
  -17.5709  -39.6124   -8.2760 C   0  0  2  0  0  0  0  0  0  0  0  0
  -18.4443  -39.8687   -7.1175 C   0  0  0  0  0  0  0  0  0  0  0  0
  -19.8681  -39.4325   -7.0697 C   0  0  0  0  0  0  0  0  0  0  0  0
  -20.2287  -39.2420   -5.6953 C   0  0  0  0  0  0  0  0  0  0  0  0
  -21.4788  -38.9113   -5.2770 C   0  0  0  0  0  0  0  0  0  0  0  0
  -22.3987  -38.7684   -6.2733 C   0  0  0  0  0  0  0  0  0  0  0  0
  -22.1015  -38.9445   -7.6586 C   0  0  0  0  0  0  0  0  0  0  0  0
  -23.3353  -38.7409   -8.4434 C   0  0  0  0  0  0  0  0  0  0  0  0
  -23.6363  -39.2924   -9.7503 C   0  0  0  0  0  0  0  0  0  0  0  0
  -23.1347  -40.6871   -9.9709 C   0  0  0  0  0  0  0  0  0  0  0  0
  -23.3377  -41.5383   -8.7590 C   0  0  0  0  0  0  0  0  0  0  0  0
  -22.5151  -42.7696   -8.7745 N   0  0  0  0  0  0  0  0  0  0  0  0
  -21.1250  -42.9391   -8.5199 C   0  0  0  0  0  0  0  0  0  0  0  0
  -20.9512  -43.9586   -7.5312 C   0  0  0  0  0  0  0  0  0  0  0  0
  -19.7870  -44.3293   -7.0343 N   0  0  0  0  0  0  0  0  0  0  0  0
  -18.7042  -43.7030   -7.4923 C   0  0  0  0  0  0  0  0  0  0  0  0
  -18.7691  -42.6780   -8.4732 C   0  0  0  0  0  0  0  0  0  0  0  0
  -20.0000  -42.2941   -8.9978 C   0  0  0  0  0  0  0  0  0  0  0  0
  -17.4077  -42.1442   -8.7025 C   0  0  0  0  0  0  0  0  0  0  0  0
  -16.4873  -43.0705   -8.8122 O   0  0  0  0  0  0  0  0  0  0  0  0
  -16.9422  -40.8094   -8.8186 N   0  0  0  0  0  0  0  0  0  0  0  0
  -20.8318  -39.2725   -8.0315 C   0  0  0  0  0  0  0  0  0  0  0  0
  -13.5956  -40.4216  -11.1484 C   0  0  0  0  0  0  0  0  0  0  0  0
  -13.5652  -40.0874  -12.4758 C   0  0  0  0  0  0  0  0  0  0  0  0
  -13.7506  -41.0658  -13.4415 C   0  0  0  0  0  0  0  0  0  0  0  0
  -13.9649  -42.3715  -13.0596 C   0  0  0  0  0  0  0  0  0  0  0  0
  -13.9979  -42.7177  -11.7311 C   0  0  0  0  0  0  0  0  0  0  0  0
  -14.2936  -44.5207  -11.2232 Br  0  0  0  0  0  0  0  0  0  0  0  0
  -13.8084  -41.7140  -10.7659 C   0  0  0  0  0  0  0  0  0  0  0  0
  1  2  1  0
  2  3  1  0
  2  4  1  0
  4  5  1  0
  5  6  1  0
  6  7  1  6
  6  8  1  0
  8  9  1  1
  9 10  1  0
 10 11  1  0
 11 12  2  0
 12 13  1  0
 13 14  2  0
 14 15  1  0
 15 16  1  0
 16 17  1  0
 17 18  1  0
 18 19  1  0
 19 20  1  0
 20 21  1  0
 21 22  2  0
 22 23  1  0
 23 24  2  0
 24 25  1  0
 24 26  1  0
 26 27  2  0
 26 28  1  0
 14 29  1  0
  2 30  1  0
 30 31  2  0
 31 32  1  0
 32 33  2  0
 33 34  1  0
 34 35  1  0
 34 36  2  0
 25 20  2  0
 28  8  1  0
 29 10  2  0
 36 30  1  0
M  END
$$$$
