
     RDKit          3D

 36 39  0  0  0  0  0  0  0  0999 V2000
  -13.0108  -38.3016   -9.5489 C   0  0  0  0  0  0  0  0  0  0  0  0
  -14.1759  -39.2004   -9.9205 C   0  0  0  0  0  0  0  0  0  0  0  0
  -14.9968  -38.6186  -11.0210 C   0  0  0  0  0  0  0  0  0  0  0  0
  -14.9659  -39.5662   -8.7952 N   0  0  0  0  0  0  0  0  0  0  0  0
  -15.1379  -38.6724   -7.7361 C   0  0  0  0  0  0  0  0  0  0  0  0
  -16.5065  -38.4173   -7.2109 C   0  0  1  0  0  0  0  0  0  0  0  0
  -17.0510  -37.1920   -7.5027 O   0  0  0  0  0  0  0  0  0  0  0  0
  -17.4720  -39.5534   -7.6599 C   0  0  2  0  0  0  0  0  0  0  0  0
  -18.4032  -39.9546   -6.5910 C   0  0  0  0  0  0  0  0  0  0  0  0
  -19.8598  -39.6445   -6.6331 C   0  0  0  0  0  0  0  0  0  0  0  0
  -20.3379  -39.5713   -5.2835 C   0  0  0  0  0  0  0  0  0  0  0  0
  -21.6403  -39.3746   -4.9487 C   0  0  0  0  0  0  0  0  0  0  0  0
  -22.4922  -39.2484   -6.0059 C   0  0  0  0  0  0  0  0  0  0  0  0
  -22.0776  -39.3120   -7.3707 C   0  0  0  0  0  0  0  0  0  0  0  0
  -23.2625  -39.1652   -8.2391 C   0  0  0  0  0  0  0  0  0  0  0  0
  -23.4144  -39.6577   -9.5944 C   0  0  0  0  0  0  0  0  0  0  0  0
  -22.7750  -40.9884   -9.8514 C   0  0  0  0  0  0  0  0  0  0  0  0
  -22.9912  -41.9276   -8.7088 C   0  0  0  0  0  0  0  0  0  0  0  0
  -22.0630  -43.0814   -8.7268 N   0  0  0  0  0  0  0  0  0  0  0  0
  -20.6863  -43.1479   -8.3717 C   0  0  0  0  0  0  0  0  0  0  0  0
  -20.4964  -44.2086   -7.4304 C   0  0  0  0  0  0  0  0  0  0  0  0
  -19.3442  -44.5095   -6.8634 N   0  0  0  0  0  0  0  0  0  0  0  0
  -18.2905  -43.7662   -7.1978 C   0  0  0  0  0  0  0  0  0  0  0  0
  -18.3732  -42.6913   -8.1223 C   0  0  0  0  0  0  0  0  0  0  0  0
  -19.5908  -42.3813   -8.7215 C   0  0  0  0  0  0  0  0  0  0  0  0
  -17.0517  -42.0308   -8.2120 C   0  0  0  0  0  0  0  0  0  0  0  0
  -16.0465  -42.8670   -8.2991 O   0  0  0  0  0  0  0  0  0  0  0  0
  -16.6999  -40.6567   -8.2162 N   0  0  0  0  0  0  0  0  0  0  0  0
  -20.7594  -39.5072   -7.6584 C   0  0  0  0  0  0  0  0  0  0  0  0
  -13.5101  -40.4539  -10.4739 C   0  0  0  0  0  0  0  0  0  0  0  0
  -13.6013  -40.7690  -11.8032 C   0  0  0  0  0  0  0  0  0  0  0  0
  -13.0084  -41.9276  -12.2832 C   0  0  0  0  0  0  0  0  0  0  0  0
  -12.3295  -42.7570  -11.4185 C   0  0  0  0  0  0  0  0  0  0  0  0
  -12.2324  -42.4508  -10.0833 C   0  0  0  0  0  0  0  0  0  0  0  0
  -11.2932  -43.6043   -8.9069 Br  0  0  0  0  0  0  0  0  0  0  0  0
  -12.8390  -41.2734   -9.6138 C   0  0  0  0  0  0  0  0  0  0  0  0
  1  2  1  0
  2  3  1  0
  2  4  1  0
  4  5  1  0
  5  6  1  0
  6  7  1  6
  6  8  1  0
  8  9  1  1
  9 10  1  0
 10 11  1  0
 11 12  2  0
 12 13  1  0
 13 14  2  0
 14 15  1  0
 15 16  1  0
 16 17  1  0
 17 18  1  0
 18 19  1  0
 19 20  1  0
 20 21  1  0
 21 22  2  0
 22 23  1  0
 23 24  2  0
 24 25  1  0
 24 26  1  0
 26 27  2  0
 26 28  1  0
 14 29  1  0
  2 30  1  0
 30 31  2  0
 31 32  1  0
 32 33  2  0
 33 34  1  0
 34 35  1  0
 34 36  2  0
 25 20  2  0
 28  8  1  0
 29 10  2  0
 36 30  1  0
M  END
$$$$
