
     RDKit          3D

 36 39  0  0  0  0  0  0  0  0999 V2000
  -14.3022  -41.4369  -10.0951 C   0  0  0  0  0  0  0  0  0  0  0  0
  -13.7248  -40.1566   -9.5199 C   0  0  0  0  0  0  0  0  0  0  0  0
  -12.4057  -40.3879   -8.8644 C   0  0  0  0  0  0  0  0  0  0  0  0
  -14.6389  -39.4788   -8.6659 N   0  0  0  0  0  0  0  0  0  0  0  0
  -15.8030  -38.9124   -9.1897 C   0  0  0  0  0  0  0  0  0  0  0  0
  -16.8541  -38.4145   -8.2618 C   0  0  1  0  0  0  0  0  0  0  0  0
  -17.5460  -37.3013   -8.6681 O   0  0  0  0  0  0  0  0  0  0  0  0
  -17.8454  -39.5629   -7.9108 C   0  0  2  0  0  0  0  0  0  0  0  0
  -18.7214  -39.2218   -6.7764 C   0  0  0  0  0  0  0  0  0  0  0  0
  -20.1772  -38.9485   -6.9364 C   0  0  0  0  0  0  0  0  0  0  0  0
  -20.5846  -38.0744   -5.8756 C   0  0  0  0  0  0  0  0  0  0  0  0
  -21.8673  -37.6744   -5.6715 C   0  0  0  0  0  0  0  0  0  0  0  0
  -22.7723  -38.1704   -6.5627 C   0  0  0  0  0  0  0  0  0  0  0  0
  -22.4290  -39.0436   -7.6389 C   0  0  0  0  0  0  0  0  0  0  0  0
  -23.6567  -39.4002   -8.3773 C   0  0  0  0  0  0  0  0  0  0  0  0
  -23.8801  -40.5943   -9.1691 C   0  0  0  0  0  0  0  0  0  0  0  0
  -23.2593  -41.8392   -8.6117 C   0  0  0  0  0  0  0  0  0  0  0  0
  -23.4193  -41.9114   -7.1273 C   0  0  0  0  0  0  0  0  0  0  0  0
  -22.4971  -42.8820   -6.4942 N   0  0  0  0  0  0  0  0  0  0  0  0
  -21.1041  -42.7711   -6.2238 C   0  0  0  0  0  0  0  0  0  0  0  0
  -20.8694  -43.0740   -4.8453 C   0  0  0  0  0  0  0  0  0  0  0  0
  -19.6905  -43.0189   -4.2565 N   0  0  0  0  0  0  0  0  0  0  0  0
  -18.6530  -42.6537   -5.0080 C   0  0  0  0  0  0  0  0  0  0  0  0
  -18.7798  -42.3330   -6.3857 C   0  0  0  0  0  0  0  0  0  0  0  0
  -20.0256  -42.3976   -7.0032 C   0  0  0  0  0  0  0  0  0  0  0  0
  -17.4624  -41.8984   -6.9020 C   0  0  0  0  0  0  0  0  0  0  0  0
  -16.4659  -42.6567   -6.5158 O   0  0  0  0  0  0  0  0  0  0  0  0
  -17.1068  -40.8063   -7.7343 N   0  0  0  0  0  0  0  0  0  0  0  0
  -21.1281  -39.4152   -7.8067 C   0  0  0  0  0  0  0  0  0  0  0  0
  -13.4692  -39.2872  -10.7445 C   0  0  0  0  0  0  0  0  0  0  0  0
  -13.7679  -39.7396  -12.0018 C   0  0  0  0  0  0  0  0  0  0  0  0
  -13.5051  -38.9423  -13.1061 C   0  0  0  0  0  0  0  0  0  0  0  0
  -12.9439  -37.6967  -12.9320 C   0  0  0  0  0  0  0  0  0  0  0  0
  -12.6398  -37.2334  -11.6755 C   0  0  0  0  0  0  0  0  0  0  0  0
  -11.8677  -35.5154  -11.4544 Br  0  0  0  0  0  0  0  0  0  0  0  0
  -12.9123  -38.0541  -10.5679 C   0  0  0  0  0  0  0  0  0  0  0  0
  1  2  1  0
  2  3  1  0
  2  4  1  0
  4  5  1  0
  5  6  1  0
  6  7  1  6
  6  8  1  0
  8  9  1  1
  9 10  1  0
 10 11  1  0
 11 12  2  0
 12 13  1  0
 13 14  2  0
 14 15  1  0
 15 16  1  0
 16 17  1  0
 17 18  1  0
 18 19  1  0
 19 20  1  0
 20 21  1  0
 21 22  2  0
 22 23  1  0
 23 24  2  0
 24 25  1  0
 24 26  1  0
 26 27  2  0
 26 28  1  0
 14 29  1  0
  2 30  1  0
 30 31  2  0
 31 32  1  0
 32 33  2  0
 33 34  1  0
 34 35  1  0
 34 36  2  0
 25 20  2  0
 28  8  1  0
 29 10  2  0
 36 30  1  0
M  END
$$$$
