
     RDKit          3D

 36 39  0  0  0  0  0  0  0  0999 V2000
  -12.1602  -38.9902   -9.5994 C   0  0  0  0  0  0  0  0  0  0  0  0
  -13.6250  -39.3812   -9.6704 C   0  0  0  0  0  0  0  0  0  0  0  0
  -14.3877  -38.5077  -10.6078 C   0  0  0  0  0  0  0  0  0  0  0  0
  -14.2348  -39.4556   -8.3872 N   0  0  0  0  0  0  0  0  0  0  0  0
  -15.0892  -38.4392   -7.9545 C   0  0  0  0  0  0  0  0  0  0  0  0
  -16.1444  -38.7496   -6.9525 C   0  0  1  0  0  0  0  0  0  0  0  0
  -16.7240  -37.6745   -6.3270 O   0  0  0  0  0  0  0  0  0  0  0  0
  -17.2403  -39.6522   -7.5920 C   0  0  2  0  0  0  0  0  0  0  0  0
  -18.2370  -40.1088   -6.6078 C   0  0  0  0  0  0  0  0  0  0  0  0
  -19.6398  -39.6074   -6.5895 C   0  0  0  0  0  0  0  0  0  0  0  0
  -20.1312  -39.7101   -5.2467 C   0  0  0  0  0  0  0  0  0  0  0  0
  -21.4034  -39.4056   -4.8781 C   0  0  0  0  0  0  0  0  0  0  0  0
  -22.2103  -38.9848   -5.8935 C   0  0  0  0  0  0  0  0  0  0  0  0
  -21.7803  -38.8617   -7.2494 C   0  0  0  0  0  0  0  0  0  0  0  0
  -22.9184  -38.4101   -8.0743 C   0  0  0  0  0  0  0  0  0  0  0  0
  -23.1059  -38.6326   -9.4949 C   0  0  0  0  0  0  0  0  0  0  0  0
  -22.6400  -39.9699   -9.9850 C   0  0  0  0  0  0  0  0  0  0  0  0
  -22.9993  -41.0584   -9.0257 C   0  0  0  0  0  0  0  0  0  0  0  0
  -22.2288  -42.3030   -9.2504 N   0  0  0  0  0  0  0  0  0  0  0  0
  -20.8799  -42.6113   -8.9172 C   0  0  0  0  0  0  0  0  0  0  0  0
  -20.8484  -43.8364   -8.1788 C   0  0  0  0  0  0  0  0  0  0  0  0
  -19.7567  -44.3812   -7.6777 N   0  0  0  0  0  0  0  0  0  0  0  0
  -18.6088  -43.7359   -7.8790 C   0  0  0  0  0  0  0  0  0  0  0  0
  -18.5325  -42.5139   -8.5987 C   0  0  0  0  0  0  0  0  0  0  0  0
  -19.6872  -41.9460   -9.1297 C   0  0  0  0  0  0  0  0  0  0  0  0
  -17.1348  -42.0276   -8.5746 C   0  0  0  0  0  0  0  0  0  0  0  0
  -16.2454  -42.9603   -8.8114 O   0  0  0  0  0  0  0  0  0  0  0  0
  -16.6073  -40.7325   -8.3371 N   0  0  0  0  0  0  0  0  0  0  0  0
  -20.4931  -39.1750   -7.5715 C   0  0  0  0  0  0  0  0  0  0  0  0
  -13.6026  -40.7777  -10.2787 C   0  0  0  0  0  0  0  0  0  0  0  0
  -14.1186  -41.0091  -11.5256 C   0  0  0  0  0  0  0  0  0  0  0  0
  -14.1107  -42.2925  -12.0519 C   0  0  0  0  0  0  0  0  0  0  0  0
  -13.5827  -43.3300  -11.3161 C   0  0  0  0  0  0  0  0  0  0  0  0
  -13.0631  -43.1092  -10.0642 C   0  0  0  0  0  0  0  0  0  0  0  0
  -12.3395  -44.5497   -9.0652 Br  0  0  0  0  0  0  0  0  0  0  0  0
  -13.0793  -41.8031   -9.5461 C   0  0  0  0  0  0  0  0  0  0  0  0
  1  2  1  0
  2  3  1  0
  2  4  1  0
  4  5  1  0
  5  6  1  0
  6  7  1  6
  6  8  1  0
  8  9  1  1
  9 10  1  0
 10 11  1  0
 11 12  2  0
 12 13  1  0
 13 14  2  0
 14 15  1  0
 15 16  1  0
 16 17  1  0
 17 18  1  0
 18 19  1  0
 19 20  1  0
 20 21  1  0
 21 22  2  0
 22 23  1  0
 23 24  2  0
 24 25  1  0
 24 26  1  0
 26 27  2  0
 26 28  1  0
 14 29  1  0
  2 30  1  0
 30 31  2  0
 31 32  1  0
 32 33  2  0
 33 34  1  0
 34 35  1  0
 34 36  2  0
 25 20  2  0
 28  8  1  0
 29 10  2  0
 36 30  1  0
M  END
$$$$
