
     RDKit          3D

 36 39  0  0  0  0  0  0  0  0999 V2000
  -14.6112  -40.7032  -10.6279 C   0  0  0  0  0  0  0  0  0  0  0  0
  -13.4930  -40.0499   -9.8366 C   0  0  0  0  0  0  0  0  0  0  0  0
  -12.6321  -41.0591   -9.1556 C   0  0  0  0  0  0  0  0  0  0  0  0
  -13.9672  -39.0533   -8.9388 N   0  0  0  0  0  0  0  0  0  0  0  0
  -15.3152  -38.6881   -8.9417 C   0  0  0  0  0  0  0  0  0  0  0  0
  -16.1524  -38.9769   -7.7461 C   0  0  1  0  0  0  0  0  0  0  0  0
  -16.6111  -37.8883   -7.0478 O   0  0  0  0  0  0  0  0  0  0  0  0
  -17.3419  -39.9026   -8.1372 C   0  0  2  0  0  0  0  0  0  0  0  0
  -18.2659  -40.1351   -7.0134 C   0  0  0  0  0  0  0  0  0  0  0  0
  -19.6367  -39.5537   -6.9639 C   0  0  0  0  0  0  0  0  0  0  0  0
  -20.0094  -39.4106   -5.5869 C   0  0  0  0  0  0  0  0  0  0  0  0
  -21.2278  -38.9751   -5.1713 C   0  0  0  0  0  0  0  0  0  0  0  0
  -22.1026  -38.6744   -6.1730 C   0  0  0  0  0  0  0  0  0  0  0  0
  -21.7913  -38.7958   -7.5611 C   0  0  0  0  0  0  0  0  0  0  0  0
  -22.9770  -38.4143   -8.3537 C   0  0  0  0  0  0  0  0  0  0  0  0
  -23.3017  -38.8495   -9.6982 C   0  0  0  0  0  0  0  0  0  0  0  0
  -22.9440  -40.2735   -9.9980 C   0  0  0  0  0  0  0  0  0  0  0  0
  -23.2652  -41.1710   -8.8466 C   0  0  0  0  0  0  0  0  0  0  0  0
  -22.5764  -42.4795   -8.9254 N   0  0  0  0  0  0  0  0  0  0  0  0
  -21.2186  -42.8112   -8.6569 C   0  0  0  0  0  0  0  0  0  0  0  0
  -21.1773  -43.9021   -7.7320 C   0  0  0  0  0  0  0  0  0  0  0  0
  -20.0712  -44.4243   -7.2386 N   0  0  0  0  0  0  0  0  0  0  0  0
  -18.9176  -43.8897   -7.6361 C   0  0  0  0  0  0  0  0  0  0  0  0
  -18.8501  -42.8054   -8.5508 C   0  0  0  0  0  0  0  0  0  0  0  0
  -20.0205  -42.2614   -9.0722 C   0  0  0  0  0  0  0  0  0  0  0  0
  -17.4350  -42.4065   -8.7208 C   0  0  0  0  0  0  0  0  0  0  0  0
  -16.6144  -43.4169   -8.8725 O   0  0  0  0  0  0  0  0  0  0  0  0
  -16.8291  -41.1241   -8.7433 N   0  0  0  0  0  0  0  0  0  0  0  0
  -20.5542  -39.2334   -7.9309 C   0  0  0  0  0  0  0  0  0  0  0  0
  -12.6360  -39.3761  -10.9007 C   0  0  0  0  0  0  0  0  0  0  0  0
  -12.3389  -40.0177  -12.0732 C   0  0  0  0  0  0  0  0  0  0  0  0
  -11.5368  -39.3966  -13.0193 C   0  0  0  0  0  0  0  0  0  0  0  0
  -11.0421  -38.1349  -12.7741 C   0  0  0  0  0  0  0  0  0  0  0  0
  -11.3333  -37.4826  -11.6013 C   0  0  0  0  0  0  0  0  0  0  0  0
  -10.6439  -35.7453  -11.2806 Br  0  0  0  0  0  0  0  0  0  0  0  0
  -12.1471  -38.1264  -10.6536 C   0  0  0  0  0  0  0  0  0  0  0  0
  1  2  1  0
  2  3  1  0
  2  4  1  0
  4  5  1  0
  5  6  1  0
  6  7  1  6
  6  8  1  0
  8  9  1  1
  9 10  1  0
 10 11  1  0
 11 12  2  0
 12 13  1  0
 13 14  2  0
 14 15  1  0
 15 16  1  0
 16 17  1  0
 17 18  1  0
 18 19  1  0
 19 20  1  0
 20 21  1  0
 21 22  2  0
 22 23  1  0
 23 24  2  0
 24 25  1  0
 24 26  1  0
 26 27  2  0
 26 28  1  0
 14 29  1  0
  2 30  1  0
 30 31  2  0
 31 32  1  0
 32 33  2  0
 33 34  1  0
 34 35  1  0
 34 36  2  0
 25 20  2  0
 28  8  1  0
 29 10  2  0
 36 30  1  0
M  END
$$$$
