
     RDKit          3D

 36 39  0  0  0  0  0  0  0  0999 V2000
  -21.2765  -38.9326   -7.3341 C   0  0  0  0  0  0  0  0  0  0  0  0
  -20.9387  -39.9376   -6.2481 C   0  0  0  0  0  0  0  0  0  0  0  0
  -21.7097  -39.6835   -4.9974 C   0  0  0  0  0  0  0  0  0  0  0  0
  -19.5398  -40.0348   -6.0078 N   0  0  0  0  0  0  0  0  0  0  0  0
  -18.8068  -38.9006   -5.6519 C   0  0  0  0  0  0  0  0  0  0  0  0
  -18.3664  -37.9537   -6.7118 C   0  0  1  0  0  0  0  0  0  0  0  0
  -17.7379  -36.8115   -6.2836 O   0  0  0  0  0  0  0  0  0  0  0  0
  -17.4794  -38.6942   -7.7556 C   0  0  2  0  0  0  0  0  0  0  0  0
  -17.7534  -38.2582   -9.1360 C   0  0  0  0  0  0  0  0  0  0  0  0
  -16.7929  -37.4400   -9.9282 C   0  0  0  0  0  0  0  0  0  0  0  0
  -17.5411  -36.6793  -10.8857 C   0  0  0  0  0  0  0  0  0  0  0  0
  -16.9769  -35.8742  -11.8240 C   0  0  0  0  0  0  0  0  0  0  0  0
  -15.6142  -35.8327  -11.8008 C   0  0  0  0  0  0  0  0  0  0  0  0
  -14.8139  -36.5661  -10.8733 C   0  0  0  0  0  0  0  0  0  0  0  0
  -13.3891  -36.3047  -11.1578 C   0  0  0  0  0  0  0  0  0  0  0  0
  -12.2671  -37.1703  -10.8500 C   0  0  0  0  0  0  0  0  0  0  0  0
  -12.5434  -38.6340  -11.0139 C   0  0  0  0  0  0  0  0  0  0  0  0
  -13.3526  -38.9026  -12.2416 C   0  0  0  0  0  0  0  0  0  0  0  0
  -13.9851  -40.2416  -12.2342 N   0  0  0  0  0  0  0  0  0  0  0  0
  -15.1255  -40.7058  -11.5200 C   0  0  0  0  0  0  0  0  0  0  0  0
  -16.0385  -41.3125  -12.4395 C   0  0  0  0  0  0  0  0  0  0  0  0
  -17.2172  -41.8043  -12.1100 N   0  0  0  0  0  0  0  0  0  0  0  0
  -17.5719  -41.7241  -10.8285 C   0  0  0  0  0  0  0  0  0  0  0  0
  -16.7380  -41.1413   -9.8375 C   0  0  0  0  0  0  0  0  0  0  0  0
  -15.4929  -40.6283  -10.1899 C   0  0  0  0  0  0  0  0  0  0  0  0
  -17.4554  -41.1434   -8.5428 C   0  0  0  0  0  0  0  0  0  0  0  0
  -18.0638  -42.2730   -8.2763 O   0  0  0  0  0  0  0  0  0  0  0  0
  -17.5923  -40.1331   -7.5567 N   0  0  0  0  0  0  0  0  0  0  0  0
  -15.4245  -37.3584   -9.9470 C   0  0  0  0  0  0  0  0  0  0  0  0
  -21.4274  -41.2655   -6.8127 C   0  0  0  0  0  0  0  0  0  0  0  0
  -21.8399  -41.3661   -8.1143 C   0  0  0  0  0  0  0  0  0  0  0  0
  -22.3043  -42.5786   -8.6026 C   0  0  0  0  0  0  0  0  0  0  0  0
  -22.3482  -43.6777   -7.7740 C   0  0  0  0  0  0  0  0  0  0  0  0
  -21.9374  -43.5878   -6.4667 C   0  0  0  0  0  0  0  0  0  0  0  0
  -22.0043  -45.1118   -5.3400 Br  0  0  0  0  0  0  0  0  0  0  0  0
  -21.4700  -42.3520   -5.9883 C   0  0  0  0  0  0  0  0  0  0  0  0
  1  2  1  0
  2  3  1  0
  2  4  1  0
  4  5  1  0
  5  6  1  0
  6  7  1  1
  6  8  1  0
  8  9  1  6
  9 10  1  0
 10 11  1  0
 11 12  2  0
 12 13  1  0
 13 14  2  0
 14 15  1  0
 15 16  1  0
 16 17  1  0
 17 18  1  0
 18 19  1  0
 19 20  1  0
 20 21  1  0
 21 22  2  0
 22 23  1  0
 23 24  2  0
 24 25  1  0
 24 26  1  0
 26 27  2  0
 26 28  1  0
 14 29  1  0
  2 30  1  0
 30 31  2  0
 31 32  1  0
 32 33  2  0
 33 34  1  0
 34 35  1  0
 34 36  2  0
 25 20  2  0
 28  8  1  0
 29 10  2  0
 36 30  1  0
M  END
$$$$
