
     RDKit          3D

 36 39  0  0  0  0  0  0  0  0999 V2000
  -13.0525  -41.9833   -9.8607 C   0  0  0  0  0  0  0  0  0  0  0  0
  -13.3696  -40.5340   -9.5407 C   0  0  0  0  0  0  0  0  0  0  0  0
  -12.2169  -39.8432   -8.8947 C   0  0  0  0  0  0  0  0  0  0  0  0
  -14.5717  -40.3884   -8.7938 N   0  0  0  0  0  0  0  0  0  0  0  0
  -15.0589  -39.1163   -8.4861 C   0  0  0  0  0  0  0  0  0  0  0  0
  -16.1290  -38.9722   -7.4624 C   0  0  1  0  0  0  0  0  0  0  0  0
  -16.5628  -37.6946   -7.2121 O   0  0  0  0  0  0  0  0  0  0  0  0
  -17.3369  -39.8880   -7.8188 C   0  0  2  0  0  0  0  0  0  0  0  0
  -18.3196  -39.9731   -6.7244 C   0  0  0  0  0  0  0  0  0  0  0  0
  -19.6660  -39.3397   -6.7995 C   0  0  0  0  0  0  0  0  0  0  0  0
  -20.0944  -39.0462   -5.4632 C   0  0  0  0  0  0  0  0  0  0  0  0
  -21.3113  -38.5270   -5.1526 C   0  0  0  0  0  0  0  0  0  0  0  0
  -22.1267  -38.2959   -6.2207 C   0  0  0  0  0  0  0  0  0  0  0  0
  -21.7581  -38.5667   -7.5732 C   0  0  0  0  0  0  0  0  0  0  0  0
  -22.8899  -38.2231   -8.4567 C   0  0  0  0  0  0  0  0  0  0  0  0
  -23.1712  -38.7781   -9.7664 C   0  0  0  0  0  0  0  0  0  0  0  0
  -22.8596  -40.2371   -9.9072 C   0  0  0  0  0  0  0  0  0  0  0  0
  -23.2694  -41.0027   -8.6905 C   0  0  0  0  0  0  0  0  0  0  0  0
  -22.6325  -42.3370   -8.6068 N   0  0  0  0  0  0  0  0  0  0  0  0
  -21.3031  -42.6898   -8.2406 C   0  0  0  0  0  0  0  0  0  0  0  0
  -21.3489  -43.6836   -7.2124 C   0  0  0  0  0  0  0  0  0  0  0  0
  -20.2887  -44.1942   -6.6164 N   0  0  0  0  0  0  0  0  0  0  0  0
  -19.0972  -43.7447   -7.0072 C   0  0  0  0  0  0  0  0  0  0  0  0
  -18.9436  -42.7604   -8.0194 C   0  0  0  0  0  0  0  0  0  0  0  0
  -20.0657  -42.2285   -8.6485 C   0  0  0  0  0  0  0  0  0  0  0  0
  -17.5069  -42.4326   -8.1580 C   0  0  0  0  0  0  0  0  0  0  0  0
  -16.7229  -43.4825   -8.1694 O   0  0  0  0  0  0  0  0  0  0  0  0
  -16.8481  -41.1820   -8.2763 N   0  0  0  0  0  0  0  0  0  0  0  0
  -20.5247  -39.0842   -7.8371 C   0  0  0  0  0  0  0  0  0  0  0  0
  -13.5670  -39.8914  -10.9078 C   0  0  0  0  0  0  0  0  0  0  0  0
  -14.2023  -40.5660  -11.9157 C   0  0  0  0  0  0  0  0  0  0  0  0
  -14.3507  -39.9727  -13.1608 C   0  0  0  0  0  0  0  0  0  0  0  0
  -13.8572  -38.7054  -13.3776 C   0  0  0  0  0  0  0  0  0  0  0  0
  -13.2178  -38.0201  -12.3738 C   0  0  0  0  0  0  0  0  0  0  0  0
  -12.5448  -36.2755  -12.6898 Br  0  0  0  0  0  0  0  0  0  0  0  0
  -13.0759  -38.6360  -11.1187 C   0  0  0  0  0  0  0  0  0  0  0  0
  1  2  1  0
  2  3  1  0
  2  4  1  0
  4  5  1  0
  5  6  1  0
  6  7  1  6
  6  8  1  0
  8  9  1  1
  9 10  1  0
 10 11  1  0
 11 12  2  0
 12 13  1  0
 13 14  2  0
 14 15  1  0
 15 16  1  0
 16 17  1  0
 17 18  1  0
 18 19  1  0
 19 20  1  0
 20 21  1  0
 21 22  2  0
 22 23  1  0
 23 24  2  0
 24 25  1  0
 24 26  1  0
 26 27  2  0
 26 28  1  0
 14 29  1  0
  2 30  1  0
 30 31  2  0
 31 32  1  0
 32 33  2  0
 33 34  1  0
 34 35  1  0
 34 36  2  0
 25 20  2  0
 28  8  1  0
 29 10  2  0
 36 30  1  0
M  END
$$$$
