
     RDKit          3D

 36 39  0  0  0  0  0  0  0  0999 V2000
  -18.5057  -37.1126   -8.4344 C   0  0  0  0  0  0  0  0  0  0  0  0
  -19.2848  -38.0091   -7.4895 C   0  0  0  0  0  0  0  0  0  0  0  0
  -20.0505  -37.2209   -6.4817 C   0  0  0  0  0  0  0  0  0  0  0  0
  -18.4707  -39.0079   -6.8863 N   0  0  0  0  0  0  0  0  0  0  0  0
  -17.0806  -38.8740   -6.8816 C   0  0  0  0  0  0  0  0  0  0  0  0
  -16.2609  -39.7379   -7.7735 C   0  0  1  0  0  0  0  0  0  0  0  0
  -15.0127  -40.0751   -7.3139 O   0  0  0  0  0  0  0  0  0  0  0  0
  -17.0565  -41.0213   -8.1539 C   0  0  2  0  0  0  0  0  0  0  0  0
  -17.0048  -41.3069   -9.5983 C   0  0  0  0  0  0  0  0  0  0  0  0
  -16.2373  -42.4505  -10.1665 C   0  0  0  0  0  0  0  0  0  0  0  0
  -15.8595  -42.1101  -11.5069 C   0  0  0  0  0  0  0  0  0  0  0  0
  -15.2069  -42.9535  -12.3494 C   0  0  0  0  0  0  0  0  0  0  0  0
  -14.9253  -44.1816  -11.8282 C   0  0  0  0  0  0  0  0  0  0  0  0
  -15.2748  -44.5798  -10.5024 C   0  0  0  0  0  0  0  0  0  0  0  0
  -14.8427  -45.9756  -10.2913 C   0  0  0  0  0  0  0  0  0  0  0  0
  -15.4058  -46.9287   -9.3547 C   0  0  0  0  0  0  0  0  0  0  0  0
  -16.8930  -46.8418   -9.1924 C   0  0  0  0  0  0  0  0  0  0  0  0
  -17.5736  -46.6249  -10.5054 C   0  0  0  0  0  0  0  0  0  0  0  0
  -18.9638  -46.1354  -10.3607 N   0  0  0  0  0  0  0  0  0  0  0  0
  -19.4416  -44.8364  -10.0284 C   0  0  0  0  0  0  0  0  0  0  0  0
  -20.3929  -44.4216  -11.0133 C   0  0  0  0  0  0  0  0  0  0  0  0
  -20.9924  -43.2468  -11.0275 N   0  0  0  0  0  0  0  0  0  0  0  0
  -20.6818  -42.3949  -10.0517 C   0  0  0  0  0  0  0  0  0  0  0  0
  -19.7507  -42.7100   -9.0266 C   0  0  0  0  0  0  0  0  0  0  0  0
  -19.1246  -43.9532   -9.0137 C   0  0  0  0  0  0  0  0  0  0  0  0
  -19.5788  -41.5281   -8.1525 C   0  0  0  0  0  0  0  0  0  0  0  0
  -20.7045  -40.9406   -7.8288 O   0  0  0  0  0  0  0  0  0  0  0  0
  -18.4079  -40.9331   -7.6167 N   0  0  0  0  0  0  0  0  0  0  0  0
  -15.9259  -43.6982   -9.6915 C   0  0  0  0  0  0  0  0  0  0  0  0
  -20.3046  -38.6935   -8.3908 C   0  0  0  0  0  0  0  0  0  0  0  0
  -21.5161  -39.0995   -7.8988 C   0  0  0  0  0  0  0  0  0  0  0  0
  -22.4214  -39.7428   -8.7299 C   0  0  0  0  0  0  0  0  0  0  0  0
  -22.0967  -39.9704  -10.0487 C   0  0  0  0  0  0  0  0  0  0  0  0
  -20.8841  -39.5679  -10.5524 C   0  0  0  0  0  0  0  0  0  0  0  0
  -20.4537  -39.8891  -12.3712 Br  0  0  0  0  0  0  0  0  0  0  0  0
  -19.9787  -38.9178   -9.6966 C   0  0  0  0  0  0  0  0  0  0  0  0
  1  2  1  0
  2  3  1  0
  2  4  1  0
  4  5  1  0
  5  6  1  0
  6  7  1  1
  6  8  1  0
  8  9  1  6
  9 10  1  0
 10 11  1  0
 11 12  2  0
 12 13  1  0
 13 14  2  0
 14 15  1  0
 15 16  1  0
 16 17  1  0
 17 18  1  0
 18 19  1  0
 19 20  1  0
 20 21  1  0
 21 22  2  0
 22 23  1  0
 23 24  2  0
 24 25  1  0
 24 26  1  0
 26 27  2  0
 26 28  1  0
 14 29  1  0
  2 30  1  0
 30 31  2  0
 31 32  1  0
 32 33  2  0
 33 34  1  0
 34 35  1  0
 34 36  2  0
 25 20  2  0
 28  8  1  0
 29 10  2  0
 36 30  1  0
M  END
$$$$
