
     RDKit          3D

 36 39  0  0  0  0  0  0  0  0999 V2000
  -13.8445  -40.4786  -12.2737 C   0  0  0  0  0  0  0  0  0  0  0  0
  -13.3854  -39.8054  -10.9932 C   0  0  0  0  0  0  0  0  0  0  0  0
  -12.2033  -40.4923  -10.3981 C   0  0  0  0  0  0  0  0  0  0  0  0
  -14.4405  -39.6386  -10.0535 N   0  0  0  0  0  0  0  0  0  0  0  0
  -14.1588  -39.2568   -8.7400 C   0  0  0  0  0  0  0  0  0  0  0  0
  -15.2222  -39.3629   -7.7048 C   0  0  1  0  0  0  0  0  0  0  0  0
  -15.4726  -38.2299   -6.9722 O   0  0  0  0  0  0  0  0  0  0  0  0
  -16.5407  -39.8895   -8.3444 C   0  0  2  0  0  0  0  0  0  0  0  0
  -17.3775  -40.6258   -7.3810 C   0  0  0  0  0  0  0  0  0  0  0  0
  -18.6625  -40.0872   -6.8534 C   0  0  0  0  0  0  0  0  0  0  0  0
  -18.8878  -40.6624   -5.5597 C   0  0  0  0  0  0  0  0  0  0  0  0
  -20.0049  -40.4462   -4.8166 C   0  0  0  0  0  0  0  0  0  0  0  0
  -20.9283  -39.6252   -5.3932 C   0  0  0  0  0  0  0  0  0  0  0  0
  -20.7622  -39.0226   -6.6769 C   0  0  0  0  0  0  0  0  0  0  0  0
  -21.9646  -38.2261   -6.9920 C   0  0  0  0  0  0  0  0  0  0  0  0
  -22.4596  -37.8819   -8.3108 C   0  0  0  0  0  0  0  0  0  0  0  0
  -22.2961  -38.9583   -9.3404 C   0  0  0  0  0  0  0  0  0  0  0  0
  -22.6101  -40.3062   -8.7756 C   0  0  0  0  0  0  0  0  0  0  0  0
  -22.0855  -41.4156   -9.6045 N   0  0  0  0  0  0  0  0  0  0  0  0
  -20.7555  -41.9059   -9.7329 C   0  0  0  0  0  0  0  0  0  0  0  0
  -20.7539  -43.3191   -9.5091 C   0  0  0  0  0  0  0  0  0  0  0  0
  -19.6739  -44.0762   -9.5090 N   0  0  0  0  0  0  0  0  0  0  0  0
  -18.5084  -43.4714   -9.7333 C   0  0  0  0  0  0  0  0  0  0  0  0
  -18.4022  -42.0746   -9.9669 C   0  0  0  0  0  0  0  0  0  0  0  0
  -19.5459  -41.2810   -9.9709 C   0  0  0  0  0  0  0  0  0  0  0  0
  -16.9725  -41.7167  -10.1033 C   0  0  0  0  0  0  0  0  0  0  0  0
  -16.2903  -42.5405  -10.8603 O   0  0  0  0  0  0  0  0  0  0  0  0
  -16.2288  -40.6418   -9.5525 N   0  0  0  0  0  0  0  0  0  0  0  0
  -19.6226  -39.2655   -7.3848 C   0  0  0  0  0  0  0  0  0  0  0  0
  -12.9198  -38.4285  -11.4494 C   0  0  0  0  0  0  0  0  0  0  0  0
  -11.5897  -38.1039  -11.4576 C   0  0  0  0  0  0  0  0  0  0  0  0
  -11.1878  -36.8367  -11.8535 C   0  0  0  0  0  0  0  0  0  0  0  0
  -12.1307  -35.9091  -12.2372 C   0  0  0  0  0  0  0  0  0  0  0  0
  -13.4675  -36.2239  -12.2321 C   0  0  0  0  0  0  0  0  0  0  0  0
  -14.7522  -34.9344  -12.7642 Br  0  0  0  0  0  0  0  0  0  0  0  0
  -13.8572  -37.5121  -11.8281 C   0  0  0  0  0  0  0  0  0  0  0  0
  1  2  1  0
  2  3  1  0
  2  4  1  0
  4  5  1  0
  5  6  1  0
  6  7  1  6
  6  8  1  0
  8  9  1  1
  9 10  1  0
 10 11  1  0
 11 12  2  0
 12 13  1  0
 13 14  2  0
 14 15  1  0
 15 16  1  0
 16 17  1  0
 17 18  1  0
 18 19  1  0
 19 20  1  0
 20 21  1  0
 21 22  2  0
 22 23  1  0
 23 24  2  0
 24 25  1  0
 24 26  1  0
 26 27  2  0
 26 28  1  0
 14 29  1  0
  2 30  1  0
 30 31  2  0
 31 32  1  0
 32 33  2  0
 33 34  1  0
 34 35  1  0
 34 36  2  0
 25 20  2  0
 28  8  1  0
 29 10  2  0
 36 30  1  0
M  END
$$$$
