
     RDKit          3D

 36 39  0  0  0  0  0  0  0  0999 V2000
  -12.5407  -41.0690   -9.2542 C   0  0  0  0  0  0  0  0  0  0  0  0
  -12.7419  -39.5766   -9.4430 C   0  0  0  0  0  0  0  0  0  0  0  0
  -11.4827  -38.8128   -9.2100 C   0  0  0  0  0  0  0  0  0  0  0  0
  -13.8286  -39.0693   -8.6775 N   0  0  0  0  0  0  0  0  0  0  0  0
  -14.9292  -39.8812   -8.3946 C   0  0  0  0  0  0  0  0  0  0  0  0
  -16.1850  -39.2602   -7.8936 C   0  0  1  0  0  0  0  0  0  0  0  0
  -16.4186  -37.9644   -8.2798 O   0  0  0  0  0  0  0  0  0  0  0  0
  -17.4062  -40.1557   -8.2562 C   0  0  2  0  0  0  0  0  0  0  0  0
  -18.1880  -40.5467   -7.0702 C   0  0  0  0  0  0  0  0  0  0  0  0
  -19.5472  -40.0062   -6.7871 C   0  0  0  0  0  0  0  0  0  0  0  0
  -19.7542  -40.0440   -5.3690 C   0  0  0  0  0  0  0  0  0  0  0  0
  -20.9174  -39.6905   -4.7616 C   0  0  0  0  0  0  0  0  0  0  0  0
  -21.9074  -39.2864   -5.6077 C   0  0  0  0  0  0  0  0  0  0  0  0
  -21.7628  -39.2270   -7.0269 C   0  0  0  0  0  0  0  0  0  0  0  0
  -23.0371  -38.7759   -7.6203 C   0  0  0  0  0  0  0  0  0  0  0  0
  -23.5167  -39.0471   -8.9616 C   0  0  0  0  0  0  0  0  0  0  0  0
  -23.1873  -40.4144   -9.4788 C   0  0  0  0  0  0  0  0  0  0  0  0
  -23.3629  -41.4552   -8.4203 C   0  0  0  0  0  0  0  0  0  0  0  0
  -22.6792  -42.7284   -8.7441 N   0  0  0  0  0  0  0  0  0  0  0  0
  -21.2968  -43.0611   -8.6808 C   0  0  0  0  0  0  0  0  0  0  0  0
  -21.1381  -44.2576   -7.9124 C   0  0  0  0  0  0  0  0  0  0  0  0
  -19.9774  -44.8129   -7.6222 N   0  0  0  0  0  0  0  0  0  0  0  0
  -18.8832  -44.2078   -8.0815 C   0  0  0  0  0  0  0  0  0  0  0  0
  -18.9327  -43.0167   -8.8534 C   0  0  0  0  0  0  0  0  0  0  0  0
  -20.1606  -42.4377   -9.1610 C   0  0  0  0  0  0  0  0  0  0  0  0
  -17.5507  -42.5688   -9.1365 C   0  0  0  0  0  0  0  0  0  0  0  0
  -16.7470  -43.5342   -9.5098 O   0  0  0  0  0  0  0  0  0  0  0  0
  -16.9607  -41.2807   -9.0677 N   0  0  0  0  0  0  0  0  0  0  0  0
  -20.5755  -39.5880   -7.5916 C   0  0  0  0  0  0  0  0  0  0  0  0
  -13.0828  -39.4368  -10.9212 C   0  0  0  0  0  0  0  0  0  0  0  0
  -13.0941  -40.5297  -11.7458 C   0  0  0  0  0  0  0  0  0  0  0  0
  -13.3833  -40.3779  -13.0940 C   0  0  0  0  0  0  0  0  0  0  0  0
  -13.6582  -39.1260  -13.5976 C   0  0  0  0  0  0  0  0  0  0  0  0
  -13.6489  -38.0229  -12.7796 C   0  0  0  0  0  0  0  0  0  0  0  0
  -14.0303  -36.3065  -13.4900 Br  0  0  0  0  0  0  0  0  0  0  0  0
  -13.3538  -38.1945  -11.4164 C   0  0  0  0  0  0  0  0  0  0  0  0
  1  2  1  0
  2  3  1  0
  2  4  1  0
  4  5  1  0
  5  6  1  0
  6  7  1  6
  6  8  1  0
  8  9  1  1
  9 10  1  0
 10 11  1  0
 11 12  2  0
 12 13  1  0
 13 14  2  0
 14 15  1  0
 15 16  1  0
 16 17  1  0
 17 18  1  0
 18 19  1  0
 19 20  1  0
 20 21  1  0
 21 22  2  0
 22 23  1  0
 23 24  2  0
 24 25  1  0
 24 26  1  0
 26 27  2  0
 26 28  1  0
 14 29  1  0
  2 30  1  0
 30 31  2  0
 31 32  1  0
 32 33  2  0
 33 34  1  0
 34 35  1  0
 34 36  2  0
 25 20  2  0
 28  8  1  0
 29 10  2  0
 36 30  1  0
M  END
$$$$
