
     RDKit          3D

 35 36  0  0  0  0  0  0  0  0999 V2000
  -23.4217  -40.3739  -10.0132 C   0  0  0  0  0  0  0  0  0  0  0  0
  -23.1777  -38.8779   -9.7731 C   0  0  0  0  0  0  0  0  0  0  0  0
  -22.9210  -38.2705  -11.1179 C   0  0  0  0  0  0  0  0  0  0  0  0
  -22.0367  -38.7378   -8.8373 C   0  0  0  0  0  0  0  0  0  0  0  0
  -20.8764  -38.0976   -9.2462 C   0  0  0  0  0  0  0  0  0  0  0  0
  -19.7804  -37.9361   -8.4268 C   0  0  0  0  0  0  0  0  0  0  0  0
  -18.5395  -37.2392   -8.8883 C   0  0  0  0  0  0  0  0  0  0  0  0
  -17.5397  -37.4608   -7.8981 N   0  0  0  0  0  0  0  0  0  0  0  0
  -17.0084  -38.8120   -7.8567 C   0  0  0  0  0  0  0  0  0  0  0  0
  -15.5989  -38.8037   -8.3345 C   0  0  1  0  0  0  0  0  0  0  0  0
  -14.7988  -38.1054   -7.4045 O   0  0  0  0  0  0  0  0  0  0  0  0
  -14.9955  -40.1561   -8.6045 C   0  0  2  0  0  0  0  0  0  0  0  0
  -13.4951  -40.1017   -8.6189 C   0  0  0  0  0  0  0  0  0  0  0  0
  -12.8655  -41.2526   -9.3959 C   0  0  2  0  0  0  0  0  0  0  0  0
  -12.0834  -42.0819   -8.4163 C   0  0  0  0  0  0  0  0  0  0  0  0
  -12.0377  -40.7474  -10.5378 C   0  0  0  0  0  0  0  0  0  0  0  0
  -10.8739  -41.7180  -10.8648 C   0  0  0  0  0  0  0  0  0  0  0  0
  -11.4920  -42.8393  -11.6441 C   0  0  0  0  0  0  0  0  0  0  0  0
  -11.6266  -44.1080  -11.4888 C   0  0  0  0  0  0  0  0  0  0  0  0
  -12.2611  -45.2094  -12.3052 C   0  0  0  0  0  0  0  0  0  0  0  0
  -13.7305  -45.1656  -12.4857 C   0  0  0  0  0  0  0  0  0  0  0  0
  -14.5106  -45.9246  -11.4606 C   0  0  0  0  0  0  0  0  0  0  0  0
  -15.1406  -45.0232  -10.4208 C   0  0  0  0  0  0  0  0  0  0  0  0
  -16.5097  -44.6107  -10.8131 C   0  0  0  0  0  0  0  0  0  0  0  0
  -16.8845  -44.9512  -11.9880 O   0  0  0  0  0  0  0  0  0  0  0  0
  -17.4203  -43.8920  -10.0276 N   0  0  0  0  0  0  0  0  0  0  0  0
  -18.8162  -44.2876  -10.0655 C   0  0  0  0  0  0  0  0  0  0  0  0
  -17.0368  -42.7564   -9.1685 C   0  0  1  0  0  0  0  0  0  0  0  0
  -16.1335  -43.1870   -8.0672 C   0  0  0  0  0  0  0  0  0  0  0  0
  -16.5718  -41.6202   -9.9778 C   0  0  0  0  0  0  0  0  0  0  0  0
  -17.3079  -41.3797  -11.0030 O   0  0  0  0  0  0  0  0  0  0  0  0
  -15.4701  -40.7882   -9.7920 N   0  0  0  0  0  0  0  0  0  0  0  0
  -19.8449  -38.4349   -7.1439 C   0  0  0  0  0  0  0  0  0  0  0  0
  -20.9796  -39.0767   -6.7011 C   0  0  0  0  0  0  0  0  0  0  0  0
  -22.0820  -39.2304   -7.5492 C   0  0  0  0  0  0  0  0  0  0  0  0
  1  2  1  0
  2  3  1  0
  2  4  1  0
  4  5  2  0
  5  6  1  0
  6  7  1  0
  7  8  1  0
  8  9  1  0
  9 10  1  0
 10 11  1  1
 10 12  1  0
 12 13  1  6
 13 14  1  0
 14 15  1  1
 14 16  1  0
 16 17  1  0
 17 18  1  0
 18 19  2  0
 19 20  1  0
 20 21  1  0
 21 22  1  0
 22 23  1  0
 23 24  1  0
 24 25  2  0
 24 26  1  0
 26 27  1  0
 26 28  1  0
 28 29  1  1
 28 30  1  0
 30 31  2  0
 30 32  1  0
  6 33  2  0
 33 34  1  0
 34 35  2  0
 32 12  1  0
 35  4  1  0
M  END
$$$$
