
     RDKit          3D

 35 36  0  0  0  0  0  0  0  0999 V2000
  -14.1474  -40.7152  -13.5849 C   0  0  0  0  0  0  0  0  0  0  0  0
  -12.8568  -39.8919  -13.4757 C   0  0  0  0  0  0  0  0  0  0  0  0
  -11.7375  -40.8774  -13.3378 C   0  0  0  0  0  0  0  0  0  0  0  0
  -12.9843  -38.9806  -12.3135 C   0  0  0  0  0  0  0  0  0  0  0  0
  -12.8798  -39.4794  -11.0237 C   0  0  0  0  0  0  0  0  0  0  0  0
  -12.9904  -38.6870   -9.9020 C   0  0  0  0  0  0  0  0  0  0  0  0
  -12.8713  -39.2464   -8.5195 C   0  0  0  0  0  0  0  0  0  0  0  0
  -13.9353  -40.1784   -8.3498 N   0  0  0  0  0  0  0  0  0  0  0  0
  -15.1706  -39.8268   -9.0279 C   0  0  0  0  0  0  0  0  0  0  0  0
  -16.0934  -39.1679   -8.0638 C   0  0  1  0  0  0  0  0  0  0  0  0
  -16.0057  -37.7679   -8.2218 O   0  0  0  0  0  0  0  0  0  0  0  0
  -17.5342  -39.5960   -8.1459 C   0  0  2  0  0  0  0  0  0  0  0  0
  -18.4579  -38.5432   -7.6048 C   0  0  0  0  0  0  0  0  0  0  0  0
  -19.8061  -39.1035   -7.1652 C   0  0  2  0  0  0  0  0  0  0  0  0
  -20.8551  -38.5054   -8.0601 C   0  0  0  0  0  0  0  0  0  0  0  0
  -20.0520  -38.8458   -5.7100 C   0  0  0  0  0  0  0  0  0  0  0  0
  -21.5670  -38.7177   -5.4071 C   0  0  0  0  0  0  0  0  0  0  0  0
  -22.0913  -40.1215   -5.3765 C   0  0  0  0  0  0  0  0  0  0  0  0
  -22.9575  -40.7990   -6.0420 C   0  0  0  0  0  0  0  0  0  0  0  0
  -23.4593  -42.2224   -5.9774 C   0  0  0  0  0  0  0  0  0  0  0  0
  -22.4977  -43.3008   -6.3029 C   0  0  0  0  0  0  0  0  0  0  0  0
  -22.4858  -43.7172   -7.7389 C   0  0  0  0  0  0  0  0  0  0  0  0
  -21.3046  -43.1551   -8.5001 C   0  0  0  0  0  0  0  0  0  0  0  0
  -20.1450  -44.0786   -8.4683 C   0  0  0  0  0  0  0  0  0  0  0  0
  -20.2653  -45.1065   -7.7161 O   0  0  0  0  0  0  0  0  0  0  0  0
  -18.9447  -43.9332   -9.1760 N   0  0  0  0  0  0  0  0  0  0  0  0
  -18.3526  -45.1189   -9.7677 C   0  0  0  0  0  0  0  0  0  0  0  0
  -18.2519  -42.6429   -9.3492 C   0  0  1  0  0  0  0  0  0  0  0  0
  -19.0646  -41.6918  -10.1548 C   0  0  0  0  0  0  0  0  0  0  0  0
  -17.7555  -42.1372   -8.0607 C   0  0  0  0  0  0  0  0  0  0  0  0
  -17.1883  -43.0344   -7.3367 O   0  0  0  0  0  0  0  0  0  0  0  0
  -17.8135  -40.8512   -7.5285 N   0  0  0  0  0  0  0  0  0  0  0  0
  -13.2152  -37.3385  -10.0746 C   0  0  0  0  0  0  0  0  0  0  0  0
  -13.3249  -36.8057  -11.3392 C   0  0  0  0  0  0  0  0  0  0  0  0
  -13.2094  -37.6277  -12.4657 C   0  0  0  0  0  0  0  0  0  0  0  0
  1  2  1  0
  2  3  1  0
  2  4  1  0
  4  5  2  0
  5  6  1  0
  6  7  1  0
  7  8  1  0
  8  9  1  0
  9 10  1  0
 10 11  1  6
 10 12  1  0
 12 13  1  1
 13 14  1  0
 14 15  1  6
 14 16  1  0
 16 17  1  0
 17 18  1  0
 18 19  2  0
 19 20  1  0
 20 21  1  0
 21 22  1  0
 22 23  1  0
 23 24  1  0
 24 25  2  0
 24 26  1  0
 26 27  1  0
 26 28  1  0
 28 29  1  1
 28 30  1  0
 30 31  2  0
 30 32  1  0
  6 33  2  0
 33 34  1  0
 34 35  2  0
 32 12  1  0
 35  4  1  0
M  END
$$$$
