
     RDKit          3D

 35 36  0  0  0  0  0  0  0  0999 V2000
  -12.6436  -33.7499  -12.8640 C   0  0  0  0  0  0  0  0  0  0  0  0
  -13.0789  -34.2132  -11.4672 C   0  0  0  0  0  0  0  0  0  0  0  0
  -11.8343  -34.2780  -10.6366 C   0  0  0  0  0  0  0  0  0  0  0  0
  -13.7630  -35.5211  -11.6040 C   0  0  0  0  0  0  0  0  0  0  0  0
  -13.3223  -36.6161  -10.8759 C   0  0  0  0  0  0  0  0  0  0  0  0
  -13.9124  -37.8585  -10.9587 C   0  0  0  0  0  0  0  0  0  0  0  0
  -13.4218  -39.0256  -10.1613 C   0  0  0  0  0  0  0  0  0  0  0  0
  -14.2171  -39.0930   -8.9814 N   0  0  0  0  0  0  0  0  0  0  0  0
  -15.4939  -39.7665   -9.1418 C   0  0  0  0  0  0  0  0  0  0  0  0
  -16.2400  -39.7246   -7.8547 C   0  0  1  0  0  0  0  0  0  0  0  0
  -16.2618  -38.3970   -7.3752 O   0  0  0  0  0  0  0  0  0  0  0  0
  -17.6427  -40.2690   -7.8976 C   0  0  2  0  0  0  0  0  0  0  0  0
  -18.6609  -39.2033   -7.6118 C   0  0  0  0  0  0  0  0  0  0  0  0
  -19.9877  -39.7662   -7.1141 C   0  0  2  0  0  0  0  0  0  0  0  0
  -21.0301  -39.4397   -8.1464 C   0  0  0  0  0  0  0  0  0  0  0  0
  -20.3209  -39.2439   -5.7501 C   0  0  0  0  0  0  0  0  0  0  0  0
  -21.8541  -39.1741   -5.5310 C   0  0  0  0  0  0  0  0  0  0  0  0
  -22.2827  -40.5796   -5.2355 C   0  0  0  0  0  0  0  0  0  0  0  0
  -23.0675  -41.4399   -5.7796 C   0  0  0  0  0  0  0  0  0  0  0  0
  -23.4740  -42.8561   -5.4462 C   0  0  0  0  0  0  0  0  0  0  0  0
  -22.4268  -43.9011   -5.5146 C   0  0  0  0  0  0  0  0  0  0  0  0
  -22.3168  -44.5926   -6.8356 C   0  0  0  0  0  0  0  0  0  0  0  0
  -21.1410  -44.1046   -7.6541 C   0  0  0  0  0  0  0  0  0  0  0  0
  -19.9242  -44.9121   -7.3973 C   0  0  0  0  0  0  0  0  0  0  0  0
  -20.0109  -45.7760   -6.4576 O   0  0  0  0  0  0  0  0  0  0  0  0
  -18.7036  -44.8192   -8.0786 N   0  0  0  0  0  0  0  0  0  0  0  0
  -18.0043  -46.0501   -8.3983 C   0  0  0  0  0  0  0  0  0  0  0  0
  -18.0924  -43.5401   -8.4849 C   0  0  1  0  0  0  0  0  0  0  0  0
  -18.9278  -42.8329   -9.4930 C   0  0  0  0  0  0  0  0  0  0  0  0
  -17.6947  -42.7520   -7.3089 C   0  0  0  0  0  0  0  0  0  0  0  0
  -17.1038  -43.4414   -6.3999 O   0  0  0  0  0  0  0  0  0  0  0  0
  -17.8658  -41.3941   -7.0494 N   0  0  0  0  0  0  0  0  0  0  0  0
  -14.9888  -38.0152  -11.8046 C   0  0  0  0  0  0  0  0  0  0  0  0
  -15.4557  -36.9519  -12.5440 C   0  0  0  0  0  0  0  0  0  0  0  0
  -14.8422  -35.6980  -12.4455 C   0  0  0  0  0  0  0  0  0  0  0  0
  1  2  1  0
  2  3  1  0
  2  4  1  0
  4  5  2  0
  5  6  1  0
  6  7  1  0
  7  8  1  0
  8  9  1  0
  9 10  1  0
 10 11  1  6
 10 12  1  0
 12 13  1  1
 13 14  1  0
 14 15  1  6
 14 16  1  0
 16 17  1  0
 17 18  1  0
 18 19  2  0
 19 20  1  0
 20 21  1  0
 21 22  1  0
 22 23  1  0
 23 24  1  0
 24 25  2  0
 24 26  1  0
 26 27  1  0
 26 28  1  0
 28 29  1  1
 28 30  1  0
 30 31  2  0
 30 32  1  0
  6 33  2  0
 33 34  1  0
 34 35  2  0
 32 12  1  0
 35  4  1  0
M  END
$$$$
