
     RDKit          3D

 35 36  0  0  0  0  0  0  0  0999 V2000
  -23.8156  -38.6649   -5.4101 C   0  0  0  0  0  0  0  0  0  0  0  0
  -23.4334  -39.8017   -6.3677 C   0  0  0  0  0  0  0  0  0  0  0  0
  -23.3941  -41.0523   -5.5446 C   0  0  0  0  0  0  0  0  0  0  0  0
  -22.1304  -39.4664   -6.9900 C   0  0  0  0  0  0  0  0  0  0  0  0
  -20.9494  -39.9056   -6.4107 C   0  0  0  0  0  0  0  0  0  0  0  0
  -19.7069  -39.6271   -6.9372 C   0  0  0  0  0  0  0  0  0  0  0  0
  -18.4455  -40.1139   -6.2966 C   0  0  0  0  0  0  0  0  0  0  0  0
  -17.4503  -40.1673   -7.3145 N   0  0  0  0  0  0  0  0  0  0  0  0
  -16.1557  -39.6305   -6.9331 C   0  0  0  0  0  0  0  0  0  0  0  0
  -15.7458  -38.5867   -7.9117 C   0  0  1  0  0  0  0  0  0  0  0  0
  -15.2671  -37.4582   -7.2117 O   0  0  0  0  0  0  0  0  0  0  0  0
  -14.7271  -39.0167   -8.9332 C   0  0  2  0  0  0  0  0  0  0  0  0
  -13.8293  -37.8819   -9.3337 C   0  0  0  0  0  0  0  0  0  0  0  0
  -13.1767  -38.0917  -10.6957 C   0  0  2  0  0  0  0  0  0  0  0  0
  -11.6947  -38.2033  -10.4718 C   0  0  0  0  0  0  0  0  0  0  0  0
  -13.5508  -36.9996  -11.6504 C   0  0  0  0  0  0  0  0  0  0  0  0
  -12.4333  -36.7568  -12.6971 C   0  0  0  0  0  0  0  0  0  0  0  0
  -12.5781  -37.8583  -13.7032 C   0  0  0  0  0  0  0  0  0  0  0  0
  -11.8459  -38.8271  -14.1244 C   0  0  0  0  0  0  0  0  0  0  0  0
  -12.0320  -39.9224  -15.1479 C   0  0  0  0  0  0  0  0  0  0  0  0
  -13.0694  -40.9435  -14.8744 C   0  0  0  0  0  0  0  0  0  0  0  0
  -12.5797  -42.1556  -14.1490 C   0  0  0  0  0  0  0  0  0  0  0  0
  -12.9503  -42.1474  -12.6816 C   0  0  0  0  0  0  0  0  0  0  0  0
  -14.2497  -42.8206  -12.4428 C   0  0  0  0  0  0  0  0  0  0  0  0
  -14.9021  -43.1696  -13.4864 O   0  0  0  0  0  0  0  0  0  0  0  0
  -14.8230  -43.1067  -11.1970 N   0  0  0  0  0  0  0  0  0  0  0  0
  -15.4853  -44.3870  -11.0277 C   0  0  0  0  0  0  0  0  0  0  0  0
  -14.7911  -42.1774  -10.0523 C   0  0  1  0  0  0  0  0  0  0  0  0
  -13.4005  -41.9491   -9.5744 C   0  0  0  0  0  0  0  0  0  0  0  0
  -15.5830  -40.9709  -10.3342 C   0  0  0  0  0  0  0  0  0  0  0  0
  -16.7192  -41.2143  -10.8825 O   0  0  0  0  0  0  0  0  0  0  0  0
  -15.2796  -39.6325  -10.0953 N   0  0  0  0  0  0  0  0  0  0  0  0
  -19.6399  -38.8779   -8.0918 C   0  0  0  0  0  0  0  0  0  0  0  0
  -20.7902  -38.4236   -8.6965 C   0  0  0  0  0  0  0  0  0  0  0  0
  -22.0425  -38.7175   -8.1456 C   0  0  0  0  0  0  0  0  0  0  0  0
  1  2  1  0
  2  3  1  0
  2  4  1  0
  4  5  2  0
  5  6  1  0
  6  7  1  0
  7  8  1  0
  8  9  1  0
  9 10  1  0
 10 11  1  1
 10 12  1  0
 12 13  1  6
 13 14  1  0
 14 15  1  1
 14 16  1  0
 16 17  1  0
 17 18  1  0
 18 19  2  0
 19 20  1  0
 20 21  1  0
 21 22  1  0
 22 23  1  0
 23 24  1  0
 24 25  2  0
 24 26  1  0
 26 27  1  0
 26 28  1  0
 28 29  1  6
 28 30  1  0
 30 31  2  0
 30 32  1  0
  6 33  2  0
 33 34  1  0
 34 35  2  0
 32 12  1  0
 35  4  1  0
M  END
$$$$
