
     RDKit          3D

 35 36  0  0  0  0  0  0  0  0999 V2000
  -16.1270  -32.5359   -9.5275 C   0  0  0  0  0  0  0  0  0  0  0  0
  -15.7592  -32.9005  -10.9722 C   0  0  0  0  0  0  0  0  0  0  0  0
  -16.7162  -32.1569  -11.8523 C   0  0  0  0  0  0  0  0  0  0  0  0
  -15.8501  -34.3729  -11.1171 C   0  0  0  0  0  0  0  0  0  0  0  0
  -14.8394  -35.1841  -10.6231 C   0  0  0  0  0  0  0  0  0  0  0  0
  -14.8623  -36.5578  -10.7268 C   0  0  0  0  0  0  0  0  0  0  0  0
  -13.7619  -37.4138  -10.1838 C   0  0  0  0  0  0  0  0  0  0  0  0
  -14.2458  -38.0099   -8.9839 N   0  0  0  0  0  0  0  0  0  0  0  0
  -15.6713  -38.2879   -8.9706 C   0  0  0  0  0  0  0  0  0  0  0  0
  -15.8931  -39.7157   -8.6138 C   0  0  1  0  0  0  0  0  0  0  0  0
  -15.3718  -39.9571   -7.3243 O   0  0  0  0  0  0  0  0  0  0  0  0
  -17.3209  -40.1882   -8.6777 C   0  0  2  0  0  0  0  0  0  0  0  0
  -18.1916  -39.2239   -9.4302 C   0  0  0  0  0  0  0  0  0  0  0  0
  -19.6683  -39.3522   -9.0729 C   0  0  2  0  0  0  0  0  0  0  0  0
  -20.3913  -39.8129  -10.3074 C   0  0  0  0  0  0  0  0  0  0  0  0
  -20.2051  -38.0692   -8.5162 C   0  0  0  0  0  0  0  0  0  0  0  0
  -21.7171  -37.9104   -8.8198 C   0  0  0  0  0  0  0  0  0  0  0  0
  -22.4210  -38.7831   -7.8251 C   0  0  0  0  0  0  0  0  0  0  0  0
  -23.1949  -39.8079   -7.8797 C   0  0  0  0  0  0  0  0  0  0  0  0
  -23.8876  -40.6631   -6.8448 C   0  0  0  0  0  0  0  0  0  0  0  0
  -23.0334  -41.4678   -5.9413 C   0  0  0  0  0  0  0  0  0  0  0  0
  -22.7482  -42.8554   -6.4197 C   0  0  0  0  0  0  0  0  0  0  0  0
  -21.3581  -42.9985   -7.0009 C   0  0  0  0  0  0  0  0  0  0  0  0
  -20.3742  -43.4062   -5.9692 C   0  0  0  0  0  0  0  0  0  0  0  0
  -20.8037  -43.4387   -4.7645 O   0  0  0  0  0  0  0  0  0  0  0  0
  -19.0349  -43.7548   -6.1870 N   0  0  0  0  0  0  0  0  0  0  0  0
  -18.4901  -44.8735   -5.4400 C   0  0  0  0  0  0  0  0  0  0  0  0
  -18.1513  -43.0456   -7.1310 C   0  0  1  0  0  0  0  0  0  0  0  0
  -18.6191  -43.1989   -8.5353 C   0  0  0  0  0  0  0  0  0  0  0  0
  -17.9007  -41.6684   -6.6809 C   0  0  0  0  0  0  0  0  0  0  0  0
  -17.6434  -41.5731   -5.4257 O   0  0  0  0  0  0  0  0  0  0  0  0
  -17.9035  -40.4808   -7.4089 N   0  0  0  0  0  0  0  0  0  0  0  0
  -15.9401  -37.1478  -11.3505 C   0  0  0  0  0  0  0  0  0  0  0  0
  -16.9632  -36.3763  -11.8539 C   0  0  0  0  0  0  0  0  0  0  0  0
  -16.9209  -34.9824  -11.7383 C   0  0  0  0  0  0  0  0  0  0  0  0
  1  2  1  0
  2  3  1  0
  2  4  1  0
  4  5  2  0
  5  6  1  0
  6  7  1  0
  7  8  1  0
  8  9  1  0
  9 10  1  0
 10 11  1  1
 10 12  1  0
 12 13  1  1
 13 14  1  0
 14 15  1  6
 14 16  1  0
 16 17  1  0
 17 18  1  0
 18 19  2  0
 19 20  1  0
 20 21  1  0
 21 22  1  0
 22 23  1  0
 23 24  1  0
 24 25  2  0
 24 26  1  0
 26 27  1  0
 26 28  1  0
 28 29  1  6
 28 30  1  0
 30 31  2  0
 30 32  1  0
  6 33  2  0
 33 34  1  0
 34 35  2  0
 32 12  1  0
 35  4  1  0
M  END
$$$$
