
     RDKit          3D

 35 36  0  0  0  0  0  0  0  0999 V2000
  -15.5055  -35.0251   -9.4700 C   0  0  0  0  0  0  0  0  0  0  0  0
  -15.5098  -34.9664  -11.0036 C   0  0  0  0  0  0  0  0  0  0  0  0
  -16.9474  -34.9161  -11.4205 C   0  0  0  0  0  0  0  0  0  0  0  0
  -14.7905  -36.1569  -11.5159 C   0  0  0  0  0  0  0  0  0  0  0  0
  -14.6104  -37.2648  -10.7012 C   0  0  0  0  0  0  0  0  0  0  0  0
  -13.9501  -38.4009  -11.1155 C   0  0  0  0  0  0  0  0  0  0  0  0
  -13.7701  -39.5860  -10.2201 C   0  0  0  0  0  0  0  0  0  0  0  0
  -14.4369  -39.2933   -8.9958 N   0  0  0  0  0  0  0  0  0  0  0  0
  -15.8800  -39.1662   -9.1004 C   0  0  0  0  0  0  0  0  0  0  0  0
  -16.4603  -40.4654   -9.5369 C   0  0  1  0  0  0  0  0  0  0  0  0
  -15.6378  -41.5171   -9.0786 O   0  0  0  0  0  0  0  0  0  0  0  0
  -17.8833  -40.7168   -9.1154 C   0  0  2  0  0  0  0  0  0  0  0  0
  -18.7523  -39.5151   -9.3495 C   0  0  0  0  0  0  0  0  0  0  0  0
  -20.0040  -39.5074   -8.4789 C   0  0  2  0  0  0  0  0  0  0  0  0
  -21.1901  -39.6164   -9.3956 C   0  0  0  0  0  0  0  0  0  0  0  0
  -20.0451  -38.2957   -7.5988 C   0  0  0  0  0  0  0  0  0  0  0  0
  -21.5037  -37.8760   -7.2830 C   0  0  0  0  0  0  0  0  0  0  0  0
  -21.9727  -38.8207   -6.2181 C   0  0  0  0  0  0  0  0  0  0  0  0
  -22.9038  -39.6999   -6.1077 C   0  0  0  0  0  0  0  0  0  0  0  0
  -23.3449  -40.6369   -5.0079 C   0  0  0  0  0  0  0  0  0  0  0  0
  -22.4064  -41.7108   -4.6085 C   0  0  0  0  0  0  0  0  0  0  0  0
  -22.5889  -43.0047   -5.3350 C   0  0  0  0  0  0  0  0  0  0  0  0
  -21.5489  -43.2208   -6.4132 C   0  0  0  0  0  0  0  0  0  0  0  0
  -20.3678  -43.9516   -5.8940 C   0  0  0  0  0  0  0  0  0  0  0  0
  -20.3450  -44.1585   -4.6317 O   0  0  0  0  0  0  0  0  0  0  0  0
  -19.2878  -44.4310   -6.6466 N   0  0  0  0  0  0  0  0  0  0  0  0
  -18.7497  -45.7372   -6.3140 C   0  0  0  0  0  0  0  0  0  0  0  0
  -18.6691  -43.6795   -7.7544 C   0  0  1  0  0  0  0  0  0  0  0  0
  -19.6200  -43.4918   -8.8835 C   0  0  0  0  0  0  0  0  0  0  0  0
  -18.0081  -42.4632   -7.2584 C   0  0  0  0  0  0  0  0  0  0  0  0
  -17.3136  -42.6496   -6.1936 O   0  0  0  0  0  0  0  0  0  0  0  0
  -18.0299  -41.1678   -7.7701 N   0  0  0  0  0  0  0  0  0  0  0  0
  -13.4476  -38.4332  -12.3981 C   0  0  0  0  0  0  0  0  0  0  0  0
  -13.6060  -37.3531  -13.2370 C   0  0  0  0  0  0  0  0  0  0  0  0
  -14.2800  -36.2084  -12.7968 C   0  0  0  0  0  0  0  0  0  0  0  0
  1  2  1  0
  2  3  1  0
  2  4  1  0
  4  5  2  0
  5  6  1  0
  6  7  1  0
  7  8  1  0
  8  9  1  0
  9 10  1  0
 10 11  1  1
 10 12  1  0
 12 13  1  1
 13 14  1  0
 14 15  1  6
 14 16  1  0
 16 17  1  0
 17 18  1  0
 18 19  2  0
 19 20  1  0
 20 21  1  0
 21 22  1  0
 22 23  1  0
 23 24  1  0
 24 25  2  0
 24 26  1  0
 26 27  1  0
 26 28  1  0
 28 29  1  6
 28 30  1  0
 30 31  2  0
 30 32  1  0
  6 33  2  0
 33 34  1  0
 34 35  2  0
 32 12  1  0
 35  4  1  0
M  END
$$$$
