
     RDKit          3D

 35 36  0  0  0  0  0  0  0  0999 V2000
  -12.2115  -35.1618  -11.4355 C   0  0  0  0  0  0  0  0  0  0  0  0
  -13.2857  -35.6557  -12.4139 C   0  0  0  0  0  0  0  0  0  0  0  0
  -14.6062  -35.2723  -11.8202 C   0  0  0  0  0  0  0  0  0  0  0  0
  -13.1207  -37.1188  -12.5851 C   0  0  0  0  0  0  0  0  0  0  0  0
  -13.2402  -37.9647  -11.4926 C   0  0  0  0  0  0  0  0  0  0  0  0
  -13.0966  -39.3321  -11.5836 C   0  0  0  0  0  0  0  0  0  0  0  0
  -13.2326  -40.2261  -10.3917 C   0  0  0  0  0  0  0  0  0  0  0  0
  -13.9608  -39.5025   -9.4041 N   0  0  0  0  0  0  0  0  0  0  0  0
  -15.4058  -39.5818   -9.5290 C   0  0  0  0  0  0  0  0  0  0  0  0
  -16.0316  -39.3148   -8.2053 C   0  0  1  0  0  0  0  0  0  0  0  0
  -15.8435  -37.9566   -7.8697 O   0  0  0  0  0  0  0  0  0  0  0  0
  -17.4912  -39.6652   -8.0931 C   0  0  2  0  0  0  0  0  0  0  0  0
  -18.2284  -38.6977   -7.2129 C   0  0  0  0  0  0  0  0  0  0  0  0
  -19.5151  -39.2788   -6.6370 C   0  0  2  0  0  0  0  0  0  0  0  0
  -20.6594  -38.4849   -7.2020 C   0  0  0  0  0  0  0  0  0  0  0  0
  -19.4832  -39.2881   -5.1393 C   0  0  0  0  0  0  0  0  0  0  0  0
  -20.9086  -39.1615   -4.5430 C   0  0  0  0  0  0  0  0  0  0  0  0
  -21.5180  -40.5255   -4.6641 C   0  0  0  0  0  0  0  0  0  0  0  0
  -22.5334  -41.0336   -5.2665 C   0  0  0  0  0  0  0  0  0  0  0  0
  -23.1161  -42.4240   -5.3624 C   0  0  0  0  0  0  0  0  0  0  0  0
  -22.3057  -43.4583   -6.0458 C   0  0  0  0  0  0  0  0  0  0  0  0
  -22.5753  -43.5996   -7.5096 C   0  0  0  0  0  0  0  0  0  0  0  0
  -21.5089  -42.9505   -8.3652 C   0  0  0  0  0  0  0  0  0  0  0  0
  -20.4304  -43.9069   -8.7125 C   0  0  0  0  0  0  0  0  0  0  0  0
  -20.4898  -45.0517   -8.1446 O   0  0  0  0  0  0  0  0  0  0  0  0
  -19.3655  -43.6775   -9.5935 N   0  0  0  0  0  0  0  0  0  0  0  0
  -18.9722  -44.7534  -10.4845 C   0  0  0  0  0  0  0  0  0  0  0  0
  -18.6237  -42.4047   -9.6614 C   0  0  1  0  0  0  0  0  0  0  0  0
  -19.4953  -41.2899  -10.1215 C   0  0  0  0  0  0  0  0  0  0  0  0
  -17.8745  -42.1675   -8.4186 C   0  0  0  0  0  0  0  0  0  0  0  0
  -17.2544  -43.2048   -7.9823 O   0  0  0  0  0  0  0  0  0  0  0  0
  -17.7466  -41.0021   -7.6662 N   0  0  0  0  0  0  0  0  0  0  0  0
  -12.8217  -39.8791  -12.8181 C   0  0  0  0  0  0  0  0  0  0  0  0
  -12.6957  -39.0722  -13.9264 C   0  0  0  0  0  0  0  0  0  0  0  0
  -12.8453  -37.6855  -13.8127 C   0  0  0  0  0  0  0  0  0  0  0  0
  1  2  1  0
  2  3  1  0
  2  4  1  0
  4  5  2  0
  5  6  1  0
  6  7  1  0
  7  8  1  0
  8  9  1  0
  9 10  1  0
 10 11  1  6
 10 12  1  0
 12 13  1  1
 13 14  1  0
 14 15  1  1
 14 16  1  0
 16 17  1  0
 17 18  1  0
 18 19  2  0
 19 20  1  0
 20 21  1  0
 21 22  1  0
 22 23  1  0
 23 24  1  0
 24 25  2  0
 24 26  1  0
 26 27  1  0
 26 28  1  0
 28 29  1  1
 28 30  1  0
 30 31  2  0
 30 32  1  0
  6 33  2  0
 33 34  1  0
 34 35  2  0
 32 12  1  0
 35  4  1  0
M  END
$$$$
