
     RDKit          3D

 35 36  0  0  0  0  0  0  0  0999 V2000
  -23.5194  -40.1412   -4.7245 C   0  0  0  0  0  0  0  0  0  0  0  0
  -23.7343  -40.2270   -6.2417 C   0  0  0  0  0  0  0  0  0  0  0  0
  -23.9297  -41.6775   -6.5593 C   0  0  0  0  0  0  0  0  0  0  0  0
  -22.5537  -39.6322   -6.9122 C   0  0  0  0  0  0  0  0  0  0  0  0
  -21.2994  -39.7306   -6.3288 C   0  0  0  0  0  0  0  0  0  0  0  0
  -20.1634  -39.1985   -6.8988 C   0  0  0  0  0  0  0  0  0  0  0  0
  -18.8193  -39.3192   -6.2526 C   0  0  0  0  0  0  0  0  0  0  0  0
  -17.8760  -39.5759   -7.2887 N   0  0  0  0  0  0  0  0  0  0  0  0
  -16.6056  -38.8868   -7.1440 C   0  0  0  0  0  0  0  0  0  0  0  0
  -16.3618  -38.0423   -8.3450 C   0  0  1  0  0  0  0  0  0  0  0  0
  -16.3179  -36.6860   -7.9561 O   0  0  0  0  0  0  0  0  0  0  0  0
  -15.1281  -38.3802   -9.1385 C   0  0  2  0  0  0  0  0  0  0  0  0
  -14.3070  -37.1588   -9.4352 C   0  0  0  0  0  0  0  0  0  0  0  0
  -13.3920  -37.3358  -10.6420 C   0  0  2  0  0  0  0  0  0  0  0  0
  -11.9749  -37.2560  -10.1475 C   0  0  0  0  0  0  0  0  0  0  0  0
  -13.7037  -36.3332  -11.7107 C   0  0  0  0  0  0  0  0  0  0  0  0
  -12.4456  -35.9927  -12.5502 C   0  0  0  0  0  0  0  0  0  0  0  0
  -12.2733  -37.1392  -13.5000 C   0  0  0  0  0  0  0  0  0  0  0  0
  -11.3695  -38.0251  -13.7246 C   0  0  0  0  0  0  0  0  0  0  0  0
  -11.2349  -39.1713  -14.6994 C   0  0  0  0  0  0  0  0  0  0  0  0
  -12.1815  -40.3017  -14.5592 C   0  0  0  0  0  0  0  0  0  0  0  0
  -11.7005  -41.4173  -13.6878 C   0  0  0  0  0  0  0  0  0  0  0  0
  -12.3369  -41.4018  -12.3147 C   0  0  0  0  0  0  0  0  0  0  0  0
  -13.5725  -42.2207  -12.2762 C   0  0  0  0  0  0  0  0  0  0  0  0
  -13.9745  -42.6848  -13.3986 O   0  0  0  0  0  0  0  0  0  0  0  0
  -14.3318  -42.5301  -11.1402 N   0  0  0  0  0  0  0  0  0  0  0  0
  -14.8632  -43.8751  -11.0194 C   0  0  0  0  0  0  0  0  0  0  0  0
  -14.6205  -41.5632  -10.0648 C   0  0  1  0  0  0  0  0  0  0  0  0
  -13.3789  -41.1484   -9.3572 C   0  0  0  0  0  0  0  0  0  0  0  0
  -15.4784  -40.4742  -10.5550 C   0  0  0  0  0  0  0  0  0  0  0  0
  -16.4569  -40.8752  -11.2848 O   0  0  0  0  0  0  0  0  0  0  0  0
  -15.3799  -39.1009  -10.3435 N   0  0  0  0  0  0  0  0  0  0  0  0
  -20.2840  -38.5397   -8.1030 C   0  0  0  0  0  0  0  0  0  0  0  0
  -21.5122  -38.4212   -8.7135 C   0  0  0  0  0  0  0  0  0  0  0  0
  -22.6540  -38.9688   -8.1180 C   0  0  0  0  0  0  0  0  0  0  0  0
  1  2  1  0
  2  3  1  0
  2  4  1  0
  4  5  2  0
  5  6  1  0
  6  7  1  0
  7  8  1  0
  8  9  1  0
  9 10  1  0
 10 11  1  1
 10 12  1  0
 12 13  1  6
 13 14  1  0
 14 15  1  1
 14 16  1  0
 16 17  1  0
 17 18  1  0
 18 19  2  0
 19 20  1  0
 20 21  1  0
 21 22  1  0
 22 23  1  0
 23 24  1  0
 24 25  2  0
 24 26  1  0
 26 27  1  0
 26 28  1  0
 28 29  1  6
 28 30  1  0
 30 31  2  0
 30 32  1  0
  6 33  2  0
 33 34  1  0
 34 35  2  0
 32 12  1  0
 35  4  1  0
M  END
$$$$
