
     RDKit          3D

 35 36  0  0  0  0  0  0  0  0999 V2000
  -12.0021  -33.7348  -10.4008 C   0  0  0  0  0  0  0  0  0  0  0  0
  -13.3312  -33.9574  -11.1351 C   0  0  0  0  0  0  0  0  0  0  0  0
  -14.4152  -33.6181  -10.1588 C   0  0  0  0  0  0  0  0  0  0  0  0
  -13.3762  -35.3649  -11.5977 C   0  0  0  0  0  0  0  0  0  0  0  0
  -13.4246  -36.3992  -10.6750 C   0  0  0  0  0  0  0  0  0  0  0  0
  -13.4661  -37.7275  -11.0389 C   0  0  0  0  0  0  0  0  0  0  0  0
  -13.5209  -38.8271  -10.0258 C   0  0  0  0  0  0  0  0  0  0  0  0
  -14.7600  -39.5059  -10.2084 N   0  0  0  0  0  0  0  0  0  0  0  0
  -15.3230  -40.0867   -9.0021 C   0  0  0  0  0  0  0  0  0  0  0  0
  -16.4333  -39.2259   -8.5108 C   0  0  1  0  0  0  0  0  0  0  0  0
  -16.5617  -38.1060   -9.3605 O   0  0  0  0  0  0  0  0  0  0  0  0
  -17.7686  -39.9057   -8.3663 C   0  0  2  0  0  0  0  0  0  0  0  0
  -18.8419  -38.9396   -7.9553 C   0  0  0  0  0  0  0  0  0  0  0  0
  -20.0301  -39.6203   -7.2847 C   0  0  2  0  0  0  0  0  0  0  0  0
  -21.2252  -39.4167   -8.1731 C   0  0  0  0  0  0  0  0  0  0  0  0
  -20.2335  -39.1080   -5.8917 C   0  0  0  0  0  0  0  0  0  0  0  0
  -21.7244  -39.1846   -5.4737 C   0  0  0  0  0  0  0  0  0  0  0  0
  -21.9690  -40.6196   -5.1167 C   0  0  0  0  0  0  0  0  0  0  0  0
  -22.7284  -41.5624   -5.5483 C   0  0  0  0  0  0  0  0  0  0  0  0
  -22.9453  -43.0052   -5.1566 C   0  0  0  0  0  0  0  0  0  0  0  0
  -21.8171  -43.9438   -5.3560 C   0  0  0  0  0  0  0  0  0  0  0  0
  -21.8116  -44.6455   -6.6763 C   0  0  0  0  0  0  0  0  0  0  0  0
  -20.8066  -44.0601   -7.6446 C   0  0  0  0  0  0  0  0  0  0  0  0
  -19.4925  -44.7398   -7.5452 C   0  0  0  0  0  0  0  0  0  0  0  0
  -19.3699  -45.5905   -6.5975 O   0  0  0  0  0  0  0  0  0  0  0  0
  -18.3862  -44.5404   -8.3812 N   0  0  0  0  0  0  0  0  0  0  0  0
  -17.6155  -45.7027   -8.7831 C   0  0  0  0  0  0  0  0  0  0  0  0
  -17.9633  -43.2154   -8.8713 C   0  0  1  0  0  0  0  0  0  0  0  0
  -18.9888  -42.6122   -9.7650 C   0  0  0  0  0  0  0  0  0  0  0  0
  -17.4965  -42.3705   -7.7621 C   0  0  0  0  0  0  0  0  0  0  0  0
  -16.7267  -42.9818   -6.9347 O   0  0  0  0  0  0  0  0  0  0  0  0
  -17.7665  -41.0313   -7.4899 N   0  0  0  0  0  0  0  0  0  0  0  0
  -13.4589  -38.0374  -12.3815 C   0  0  0  0  0  0  0  0  0  0  0  0
  -13.4113  -37.0386  -13.3278 C   0  0  0  0  0  0  0  0  0  0  0  0
  -13.3697  -35.6955  -12.9374 C   0  0  0  0  0  0  0  0  0  0  0  0
  1  2  1  0
  2  3  1  0
  2  4  1  0
  4  5  2  0
  5  6  1  0
  6  7  1  0
  7  8  1  0
  8  9  1  0
  9 10  1  0
 10 11  1  6
 10 12  1  0
 12 13  1  1
 13 14  1  0
 14 15  1  6
 14 16  1  0
 16 17  1  0
 17 18  1  0
 18 19  2  0
 19 20  1  0
 20 21  1  0
 21 22  1  0
 22 23  1  0
 23 24  1  0
 24 25  2  0
 24 26  1  0
 26 27  1  0
 26 28  1  0
 28 29  1  1
 28 30  1  0
 30 31  2  0
 30 32  1  0
  6 33  2  0
 33 34  1  0
 34 35  2  0
 32 12  1  0
 35  4  1  0
M  END
$$$$
