
     RDKit          3D

 35 36  0  0  0  0  0  0  0  0999 V2000
  -23.7590  -40.3384   -4.2585 C   0  0  0  0  0  0  0  0  0  0  0  0
  -22.8982  -41.1337   -5.2494 C   0  0  0  0  0  0  0  0  0  0  0  0
  -21.7340  -41.6614   -4.4689 C   0  0  0  0  0  0  0  0  0  0  0  0
  -22.5033  -40.2269   -6.3535 C   0  0  0  0  0  0  0  0  0  0  0  0
  -21.4834  -39.3059   -6.1661 C   0  0  0  0  0  0  0  0  0  0  0  0
  -21.0699  -38.4343   -7.1499 C   0  0  0  0  0  0  0  0  0  0  0  0
  -19.9650  -37.4506   -6.9264 C   0  0  0  0  0  0  0  0  0  0  0  0
  -18.8933  -37.8186   -7.7896 N   0  0  0  0  0  0  0  0  0  0  0  0
  -17.7949  -38.5123   -7.1400 C   0  0  0  0  0  0  0  0  0  0  0  0
  -16.5027  -37.9555   -7.6251 C   0  0  1  0  0  0  0  0  0  0  0  0
  -15.9123  -37.1911   -6.5956 O   0  0  0  0  0  0  0  0  0  0  0  0
  -15.5104  -38.9651   -8.1368 C   0  0  2  0  0  0  0  0  0  0  0  0
  -14.1104  -38.4227   -8.1253 C   0  0  0  0  0  0  0  0  0  0  0  0
  -13.1843  -39.1456   -9.0972 C   0  0  2  0  0  0  0  0  0  0  0  0
  -12.1275  -39.8364   -8.2819 C   0  0  0  0  0  0  0  0  0  0  0  0
  -12.6234  -38.2013  -10.1160 C   0  0  0  0  0  0  0  0  0  0  0  0
  -11.2273  -38.6636  -10.6066 C   0  0  0  0  0  0  0  0  0  0  0  0
  -11.4903  -39.7655  -11.5880 C   0  0  0  0  0  0  0  0  0  0  0  0
  -11.2007  -41.0148  -11.6739 C   0  0  0  0  0  0  0  0  0  0  0  0
  -11.4876  -42.0969  -12.6883 C   0  0  0  0  0  0  0  0  0  0  0  0
  -12.8999  -42.5031  -12.8725 C   0  0  0  0  0  0  0  0  0  0  0  0
  -13.3400  -43.6464  -12.0154 C   0  0  0  0  0  0  0  0  0  0  0  0
  -14.1725  -43.2024  -10.8320 C   0  0  0  0  0  0  0  0  0  0  0  0
  -15.6198  -43.1956  -11.1544 C   0  0  0  0  0  0  0  0  0  0  0  0
  -15.9247  -43.4224  -12.3760 O   0  0  0  0  0  0  0  0  0  0  0  0
  -16.6718  -42.9669  -10.2579 N   0  0  0  0  0  0  0  0  0  0  0  0
  -17.8657  -43.7826  -10.3834 C   0  0  0  0  0  0  0  0  0  0  0  0
  -16.6311  -41.9426   -9.1978 C   0  0  1  0  0  0  0  0  0  0  0  0
  -15.5818  -42.2458   -8.1871 C   0  0  0  0  0  0  0  0  0  0  0  0
  -16.5992  -40.5909   -9.7756 C   0  0  0  0  0  0  0  0  0  0  0  0
  -17.4253  -40.4232  -10.7454 O   0  0  0  0  0  0  0  0  0  0  0  0
  -15.8164  -39.4929   -9.4263 N   0  0  0  0  0  0  0  0  0  0  0  0
  -21.7014  -38.4836   -8.3736 C   0  0  0  0  0  0  0  0  0  0  0  0
  -22.7184  -39.3840   -8.5982 C   0  0  0  0  0  0  0  0  0  0  0  0
  -23.1234  -40.2608   -7.5857 C   0  0  0  0  0  0  0  0  0  0  0  0
  1  2  1  0
  2  3  1  0
  2  4  1  0
  4  5  2  0
  5  6  1  0
  6  7  1  0
  7  8  1  0
  8  9  1  0
  9 10  1  0
 10 11  1  1
 10 12  1  0
 12 13  1  6
 13 14  1  0
 14 15  1  1
 14 16  1  0
 16 17  1  0
 17 18  1  0
 18 19  2  0
 19 20  1  0
 20 21  1  0
 21 22  1  0
 22 23  1  0
 23 24  1  0
 24 25  2  0
 24 26  1  0
 26 27  1  0
 26 28  1  0
 28 29  1  6
 28 30  1  0
 30 31  2  0
 30 32  1  0
  6 33  2  0
 33 34  1  0
 34 35  2  0
 32 12  1  0
 35  4  1  0
M  END
$$$$
