
     RDKit          3D

 35 36  0  0  0  0  0  0  0  0999 V2000
  -22.3022  -39.6937   -2.1251 C   0  0  0  0  0  0  0  0  0  0  0  0
  -21.9775  -38.9543   -3.4301 C   0  0  0  0  0  0  0  0  0  0  0  0
  -23.2488  -38.2962   -3.8704 C   0  0  0  0  0  0  0  0  0  0  0  0
  -21.4579  -39.9414   -4.4063 C   0  0  0  0  0  0  0  0  0  0  0  0
  -20.6760  -39.5208   -5.4717 C   0  0  0  0  0  0  0  0  0  0  0  0
  -20.1642  -40.3862   -6.4139 C   0  0  0  0  0  0  0  0  0  0  0  0
  -19.3202  -39.9103   -7.5540 C   0  0  0  0  0  0  0  0  0  0  0  0
  -18.5182  -41.0110   -7.9717 N   0  0  0  0  0  0  0  0  0  0  0  0
  -17.4866  -40.6836   -8.9403 C   0  0  0  0  0  0  0  0  0  0  0  0
  -16.5131  -39.7404   -8.3257 C   0  0  1  0  0  0  0  0  0  0  0  0
  -16.1886  -40.1906   -7.0277 O   0  0  0  0  0  0  0  0  0  0  0  0
  -15.2495  -39.5070   -9.1097 C   0  0  2  0  0  0  0  0  0  0  0  0
  -14.7421  -38.1041   -8.9404 C   0  0  0  0  0  0  0  0  0  0  0  0
  -13.8336  -37.6583  -10.0808 C   0  0  2  0  0  0  0  0  0  0  0  0
  -12.4655  -37.4286   -9.5025 C   0  0  0  0  0  0  0  0  0  0  0  0
  -14.3906  -36.4559  -10.7797 C   0  0  0  0  0  0  0  0  0  0  0  0
  -13.2627  -35.5805  -11.3837 C   0  0  0  0  0  0  0  0  0  0  0  0
  -12.8449  -36.2759  -12.6440 C   0  0  0  0  0  0  0  0  0  0  0  0
  -11.7634  -36.8079  -13.0907 C   0  0  0  0  0  0  0  0  0  0  0  0
  -11.3828  -37.5032  -14.3767 C   0  0  0  0  0  0  0  0  0  0  0  0
  -12.0363  -38.7992  -14.6715 C   0  0  0  0  0  0  0  0  0  0  0  0
  -11.2919  -40.0013  -14.1854 C   0  0  0  0  0  0  0  0  0  0  0  0
  -11.8888  -40.5871  -12.9240 C   0  0  0  0  0  0  0  0  0  0  0  0
  -12.8979  -41.6294  -13.2304 C   0  0  0  0  0  0  0  0  0  0  0  0
  -13.2010  -41.7727  -14.4651 O   0  0  0  0  0  0  0  0  0  0  0  0
  -13.5427  -42.4619  -12.3063 N   0  0  0  0  0  0  0  0  0  0  0  0
  -13.7428  -43.8540  -12.6644 C   0  0  0  0  0  0  0  0  0  0  0  0
  -14.0294  -41.9990  -10.9934 C   0  0  1  0  0  0  0  0  0  0  0  0
  -12.9062  -41.5731  -10.1152 C   0  0  0  0  0  0  0  0  0  0  0  0
  -15.1269  -41.0333  -11.1517 C   0  0  0  0  0  0  0  0  0  0  0  0
  -15.9980  -41.3797  -12.0303 O   0  0  0  0  0  0  0  0  0  0  0  0
  -15.3482  -39.8238  -10.4971 N   0  0  0  0  0  0  0  0  0  0  0  0
  -20.4446  -41.7293   -6.2877 C   0  0  0  0  0  0  0  0  0  0  0  0
  -21.2173  -42.1857   -5.2437 C   0  0  0  0  0  0  0  0  0  0  0  0
  -21.7277  -41.2903   -4.2971 C   0  0  0  0  0  0  0  0  0  0  0  0
  1  2  1  0
  2  3  1  0
  2  4  1  0
  4  5  2  0
  5  6  1  0
  6  7  1  0
  7  8  1  0
  8  9  1  0
  9 10  1  0
 10 11  1  1
 10 12  1  0
 12 13  1  6
 13 14  1  0
 14 15  1  1
 14 16  1  0
 16 17  1  0
 17 18  1  0
 18 19  2  0
 19 20  1  0
 20 21  1  0
 21 22  1  0
 22 23  1  0
 23 24  1  0
 24 25  2  0
 24 26  1  0
 26 27  1  0
 26 28  1  0
 28 29  1  6
 28 30  1  0
 30 31  2  0
 30 32  1  0
  6 33  2  0
 33 34  1  0
 34 35  2  0
 32 12  1  0
 35  4  1  0
M  END
$$$$
