
     RDKit          3D

 35 36  0  0  0  0  0  0  0  0999 V2000
  -10.9964  -34.8824  -10.5933 C   0  0  0  0  0  0  0  0  0  0  0  0
  -11.9188  -34.9601  -11.8174 C   0  0  0  0  0  0  0  0  0  0  0  0
  -13.1474  -34.1767  -11.4710 C   0  0  0  0  0  0  0  0  0  0  0  0
  -12.1934  -36.3887  -12.1021 C   0  0  0  0  0  0  0  0  0  0  0  0
  -12.5766  -37.2410  -11.0773 C   0  0  0  0  0  0  0  0  0  0  0  0
  -12.8444  -38.5781  -11.2746 C   0  0  0  0  0  0  0  0  0  0  0  0
  -13.2593  -39.4787  -10.1542 C   0  0  0  0  0  0  0  0  0  0  0  0
  -14.5031  -40.0658  -10.5251 N   0  0  0  0  0  0  0  0  0  0  0  0
  -15.2259  -40.7049   -9.4394 C   0  0  0  0  0  0  0  0  0  0  0  0
  -16.0091  -39.6804   -8.6965 C   0  0  1  0  0  0  0  0  0  0  0  0
  -15.9867  -38.4673   -9.4181 O   0  0  0  0  0  0  0  0  0  0  0  0
  -17.4327  -40.0531   -8.3796 C   0  0  2  0  0  0  0  0  0  0  0  0
  -18.2610  -38.8466   -8.0441 C   0  0  0  0  0  0  0  0  0  0  0  0
  -19.4959  -39.1844   -7.2160 C   0  0  2  0  0  0  0  0  0  0  0  0
  -20.7013  -38.8560   -8.0515 C   0  0  0  0  0  0  0  0  0  0  0  0
  -19.4767  -38.4720   -5.8983 C   0  0  0  0  0  0  0  0  0  0  0  0
  -20.9131  -38.1932   -5.3858 C   0  0  0  0  0  0  0  0  0  0  0  0
  -21.3974  -39.4933   -4.8187 C   0  0  0  0  0  0  0  0  0  0  0  0
  -22.3581  -40.3097   -5.0690 C   0  0  0  0  0  0  0  0  0  0  0  0
  -22.8137  -41.6187   -4.4680 C   0  0  0  0  0  0  0  0  0  0  0  0
  -21.9083  -42.7831   -4.6015 C   0  0  0  0  0  0  0  0  0  0  0  0
  -22.1511  -43.6305   -5.8092 C   0  0  0  0  0  0  0  0  0  0  0  0
  -21.1391  -43.3854   -6.9075 C   0  0  0  0  0  0  0  0  0  0  0  0
  -19.9766  -44.2986   -6.7927 C   0  0  0  0  0  0  0  0  0  0  0  0
  -19.9389  -45.0316   -5.7448 O   0  0  0  0  0  0  0  0  0  0  0  0
  -18.9285  -44.4326   -7.7126 N   0  0  0  0  0  0  0  0  0  0  0  0
  -18.4329  -45.7674   -7.9938 C   0  0  0  0  0  0  0  0  0  0  0  0
  -18.3024  -43.2919   -8.4066 C   0  0  1  0  0  0  0  0  0  0  0  0
  -19.2658  -42.6103   -9.3130 C   0  0  0  0  0  0  0  0  0  0  0  0
  -17.5885  -42.4271   -7.4555 C   0  0  0  0  0  0  0  0  0  0  0  0
  -16.8825  -43.0732   -6.5982 O   0  0  0  0  0  0  0  0  0  0  0  0
  -17.5718  -41.0377   -7.3569 N   0  0  0  0  0  0  0  0  0  0  0  0
  -12.7245  -39.0870  -12.5495 C   0  0  0  0  0  0  0  0  0  0  0  0
  -12.3464  -38.2726  -13.5931 C   0  0  0  0  0  0  0  0  0  0  0  0
  -12.0789  -36.9171  -13.3716 C   0  0  0  0  0  0  0  0  0  0  0  0
  1  2  1  0
  2  3  1  0
  2  4  1  0
  4  5  2  0
  5  6  1  0
  6  7  1  0
  7  8  1  0
  8  9  1  0
  9 10  1  0
 10 11  1  6
 10 12  1  0
 12 13  1  1
 13 14  1  0
 14 15  1  6
 14 16  1  0
 16 17  1  0
 17 18  1  0
 18 19  2  0
 19 20  1  0
 20 21  1  0
 21 22  1  0
 22 23  1  0
 23 24  1  0
 24 25  2  0
 24 26  1  0
 26 27  1  0
 26 28  1  0
 28 29  1  1
 28 30  1  0
 30 31  2  0
 30 32  1  0
  6 33  2  0
 33 34  1  0
 34 35  2  0
 32 12  1  0
 35  4  1  0
M  END
$$$$
