
     RDKit          3D

 35 36  0  0  0  0  0  0  0  0999 V2000
  -21.8758  -38.1275   -9.1093 C   0  0  0  0  0  0  0  0  0  0  0  0
  -22.0153  -39.6544   -9.1769 C   0  0  0  0  0  0  0  0  0  0  0  0
  -23.3413  -39.9295   -9.8164 C   0  0  0  0  0  0  0  0  0  0  0  0
  -21.9038  -40.1923   -7.8001 C   0  0  0  0  0  0  0  0  0  0  0  0
  -20.8533  -39.8011   -6.9835 C   0  0  0  0  0  0  0  0  0  0  0  0
  -20.6914  -40.2648   -5.6961 C   0  0  0  0  0  0  0  0  0  0  0  0
  -19.5515  -39.8268   -4.8316 C   0  0  0  0  0  0  0  0  0  0  0  0
  -18.5934  -39.2044   -5.6824 N   0  0  0  0  0  0  0  0  0  0  0  0
  -17.3906  -39.9827   -5.9216 C   0  0  0  0  0  0  0  0  0  0  0  0
  -16.3064  -39.0824   -6.4004 C   0  0  1  0  0  0  0  0  0  0  0  0
  -15.1822  -39.2230   -5.5584 O   0  0  0  0  0  0  0  0  0  0  0  0
  -15.8898  -39.2711   -7.8346 C   0  0  2  0  0  0  0  0  0  0  0  0
  -14.4588  -38.8734   -8.0539 C   0  0  0  0  0  0  0  0  0  0  0  0
  -14.1535  -38.5278   -9.5073 C   0  0  2  0  0  0  0  0  0  0  0  0
  -13.1699  -39.5449  -10.0143 C   0  0  0  0  0  0  0  0  0  0  0  0
  -13.6672  -37.1169   -9.6386 C   0  0  0  0  0  0  0  0  0  0  0  0
  -12.7097  -36.9595  -10.8477 C   0  0  0  0  0  0  0  0  0  0  0  0
  -13.5941  -36.9006  -12.0563 C   0  0  0  0  0  0  0  0  0  0  0  0
  -13.7527  -37.6040  -13.1203 C   0  0  0  0  0  0  0  0  0  0  0  0
  -14.6625  -37.5082  -14.3224 C   0  0  0  0  0  0  0  0  0  0  0  0
  -16.1151  -37.6868  -14.0954 C   0  0  0  0  0  0  0  0  0  0  0  0
  -16.6051  -39.0912  -14.2474 C   0  0  0  0  0  0  0  0  0  0  0  0
  -16.8488  -39.7718  -12.9177 C   0  0  0  0  0  0  0  0  0  0  0  0
  -18.2457  -39.5855  -12.4568 C   0  0  0  0  0  0  0  0  0  0  0  0
  -18.9672  -38.7928  -13.1553 O   0  0  0  0  0  0  0  0  0  0  0  0
  -18.8425  -40.1886  -11.3420 N   0  0  0  0  0  0  0  0  0  0  0  0
  -20.2094  -40.6594  -11.4700 C   0  0  0  0  0  0  0  0  0  0  0  0
  -18.1578  -40.3679  -10.0483 C   0  0  1  0  0  0  0  0  0  0  0  0
  -16.9992  -41.2939  -10.1687 C   0  0  0  0  0  0  0  0  0  0  0  0
  -17.8829  -39.0691   -9.4160 C   0  0  0  0  0  0  0  0  0  0  0  0
  -18.8710  -38.2494   -9.4674 O   0  0  0  0  0  0  0  0  0  0  0  0
  -16.7276  -38.6146   -8.7843 N   0  0  0  0  0  0  0  0  0  0  0  0
  -21.6175  -41.1576   -5.2022 C   0  0  0  0  0  0  0  0  0  0  0  0
  -22.6742  -41.5699   -5.9823 C   0  0  0  0  0  0  0  0  0  0  0  0
  -22.8208  -41.0869   -7.2875 C   0  0  0  0  0  0  0  0  0  0  0  0
  1  2  1  0
  2  3  1  0
  2  4  1  0
  4  5  2  0
  5  6  1  0
  6  7  1  0
  7  8  1  0
  8  9  1  0
  9 10  1  0
 10 11  1  1
 10 12  1  0
 12 13  1  1
 13 14  1  0
 14 15  1  1
 14 16  1  0
 16 17  1  0
 17 18  1  0
 18 19  2  0
 19 20  1  0
 20 21  1  0
 21 22  1  0
 22 23  1  0
 23 24  1  0
 24 25  2  0
 24 26  1  0
 26 27  1  0
 26 28  1  0
 28 29  1  6
 28 30  1  0
 30 31  2  0
 30 32  1  0
  6 33  2  0
 33 34  1  0
 34 35  2  0
 32 12  1  0
 35  4  1  0
M  END
$$$$
