
     RDKit          3D

 35 36  0  0  0  0  0  0  0  0999 V2000
  -11.5193  -34.6032  -12.7101 C   0  0  0  0  0  0  0  0  0  0  0  0
  -12.8440  -34.4203  -11.9572 C   0  0  0  0  0  0  0  0  0  0  0  0
  -12.4837  -34.0280  -10.5574 C   0  0  0  0  0  0  0  0  0  0  0  0
  -13.6017  -35.6919  -12.0348 C   0  0  0  0  0  0  0  0  0  0  0  0
  -13.1757  -36.8003  -11.3182 C   0  0  0  0  0  0  0  0  0  0  0  0
  -13.8331  -38.0108  -11.3483 C   0  0  0  0  0  0  0  0  0  0  0  0
  -13.3569  -39.1929  -10.5645 C   0  0  0  0  0  0  0  0  0  0  0  0
  -14.1276  -39.2419   -9.3674 N   0  0  0  0  0  0  0  0  0  0  0  0
  -15.4985  -39.6896   -9.5402 C   0  0  0  0  0  0  0  0  0  0  0  0
  -16.1959  -39.6646   -8.2256 C   0  0  1  0  0  0  0  0  0  0  0  0
  -16.1466  -38.3554   -7.7001 O   0  0  0  0  0  0  0  0  0  0  0  0
  -17.6203  -40.1514   -8.2354 C   0  0  2  0  0  0  0  0  0  0  0  0
  -18.5916  -39.0308   -8.0011 C   0  0  0  0  0  0  0  0  0  0  0  0
  -19.9378  -39.5114   -7.4704 C   0  0  2  0  0  0  0  0  0  0  0  0
  -20.9717  -39.1950   -8.5144 C   0  0  0  0  0  0  0  0  0  0  0  0
  -20.2412  -38.9065   -6.1339 C   0  0  0  0  0  0  0  0  0  0  0  0
  -21.7689  -38.7615   -5.9131 C   0  0  0  0  0  0  0  0  0  0  0  0
  -22.2538  -40.1308   -5.5441 C   0  0  0  0  0  0  0  0  0  0  0  0
  -23.0769  -40.9843   -6.0404 C   0  0  0  0  0  0  0  0  0  0  0  0
  -23.5399  -42.3633   -5.6331 C   0  0  0  0  0  0  0  0  0  0  0  0
  -22.5375  -43.4534   -5.6513 C   0  0  0  0  0  0  0  0  0  0  0  0
  -22.4640  -44.2156   -6.9355 C   0  0  0  0  0  0  0  0  0  0  0  0
  -21.2736  -43.8198   -7.7822 C   0  0  0  0  0  0  0  0  0  0  0  0
  -20.0900  -44.6633   -7.4886 C   0  0  0  0  0  0  0  0  0  0  0  0
  -20.2071  -45.4735   -6.5054 O   0  0  0  0  0  0  0  0  0  0  0  0
  -18.8705  -44.6565   -8.1781 N   0  0  0  0  0  0  0  0  0  0  0  0
  -18.2248  -45.9303   -8.4366 C   0  0  0  0  0  0  0  0  0  0  0  0
  -18.2090  -43.4266   -8.6519 C   0  0  1  0  0  0  0  0  0  0  0  0
  -19.0201  -42.7377   -9.6920 C   0  0  0  0  0  0  0  0  0  0  0  0
  -17.7721  -42.5966   -7.5195 C   0  0  0  0  0  0  0  0  0  0  0  0
  -17.2051  -43.2626   -6.5784 O   0  0  0  0  0  0  0  0  0  0  0  0
  -17.8851  -41.2212   -7.3296 N   0  0  0  0  0  0  0  0  0  0  0  0
  -14.9646  -38.1203  -12.1271 C   0  0  0  0  0  0  0  0  0  0  0  0
  -15.4189  -37.0424  -12.8531 C   0  0  0  0  0  0  0  0  0  0  0  0
  -14.7367  -35.8215  -12.8088 C   0  0  0  0  0  0  0  0  0  0  0  0
  1  2  1  0
  2  3  1  0
  2  4  1  0
  4  5  2  0
  5  6  1  0
  6  7  1  0
  7  8  1  0
  8  9  1  0
  9 10  1  0
 10 11  1  6
 10 12  1  0
 12 13  1  1
 13 14  1  0
 14 15  1  6
 14 16  1  0
 16 17  1  0
 17 18  1  0
 18 19  2  0
 19 20  1  0
 20 21  1  0
 21 22  1  0
 22 23  1  0
 23 24  1  0
 24 25  2  0
 24 26  1  0
 26 27  1  0
 26 28  1  0
 28 29  1  6
 28 30  1  0
 30 31  2  0
 30 32  1  0
  6 33  2  0
 33 34  1  0
 34 35  2  0
 32 12  1  0
 35  4  1  0
M  END
$$$$
