
     RDKit          3D

 35 36  0  0  0  0  0  0  0  0999 V2000
  -23.2416  -39.9377   -3.8051 C   0  0  0  0  0  0  0  0  0  0  0  0
  -21.7909  -39.9136   -4.3051 C   0  0  0  0  0  0  0  0  0  0  0  0
  -20.9812  -39.2708   -3.2214 C   0  0  0  0  0  0  0  0  0  0  0  0
  -21.7536  -39.1697   -5.5867 C   0  0  0  0  0  0  0  0  0  0  0  0
  -20.5827  -39.1200   -6.3283 C   0  0  0  0  0  0  0  0  0  0  0  0
  -20.4813  -38.4450   -7.5252 C   0  0  0  0  0  0  0  0  0  0  0  0
  -19.2082  -38.4071   -8.3102 C   0  0  0  0  0  0  0  0  0  0  0  0
  -18.1354  -38.4732   -7.3753 N   0  0  0  0  0  0  0  0  0  0  0  0
  -17.0249  -39.3188   -7.7771 C   0  0  0  0  0  0  0  0  0  0  0  0
  -15.7817  -38.5033   -7.8437 C   0  0  1  0  0  0  0  0  0  0  0  0
  -15.2242  -38.4024   -6.5507 O   0  0  0  0  0  0  0  0  0  0  0  0
  -14.7343  -38.9913   -8.8084 C   0  0  2  0  0  0  0  0  0  0  0  0
  -13.6421  -37.9792   -9.0010 C   0  0  0  0  0  0  0  0  0  0  0  0
  -12.8861  -38.1620  -10.3125 C   0  0  2  0  0  0  0  0  0  0  0  0
  -11.4689  -38.5247   -9.9678 C   0  0  0  0  0  0  0  0  0  0  0  0
  -12.9921  -36.9413  -11.1744 C   0  0  0  0  0  0  0  0  0  0  0  0
  -11.7460  -36.7810  -12.0827 C   0  0  0  0  0  0  0  0  0  0  0  0
  -11.9430  -37.7484  -13.2104 C   0  0  0  0  0  0  0  0  0  0  0  0
  -11.3203  -38.7769  -13.6648 C   0  0  0  0  0  0  0  0  0  0  0  0
  -11.5550  -39.7302  -14.8129 C   0  0  0  0  0  0  0  0  0  0  0  0
  -12.7542  -40.5968  -14.7465 C   0  0  0  0  0  0  0  0  0  0  0  0
  -12.5277  -41.9326  -14.1140 C   0  0  0  0  0  0  0  0  0  0  0  0
  -13.0472  -42.0020  -12.6942 C   0  0  0  0  0  0  0  0  0  0  0  0
  -14.4493  -42.4823  -12.6486 C   0  0  0  0  0  0  0  0  0  0  0  0
  -15.0311  -42.6268  -13.7788 O   0  0  0  0  0  0  0  0  0  0  0  0
  -15.1878  -42.7889  -11.4982 N   0  0  0  0  0  0  0  0  0  0  0  0
  -16.0450  -43.9597  -11.5287 C   0  0  0  0  0  0  0  0  0  0  0  0
  -15.1419  -41.9859  -10.2622 C   0  0  1  0  0  0  0  0  0  0  0  0
  -13.7918  -42.0235   -9.6377 C   0  0  0  0  0  0  0  0  0  0  0  0
  -15.7135  -40.6493  -10.4836 C   0  0  0  0  0  0  0  0  0  0  0  0
  -16.8083  -40.6598  -11.1562 O   0  0  0  0  0  0  0  0  0  0  0  0
  -15.2443  -39.4029  -10.0755 N   0  0  0  0  0  0  0  0  0  0  0  0
  -21.5963  -37.7913   -8.0029 C   0  0  0  0  0  0  0  0  0  0  0  0
  -22.7770  -37.8174   -7.2954 C   0  0  0  0  0  0  0  0  0  0  0  0
  -22.8592  -38.5088   -6.0816 C   0  0  0  0  0  0  0  0  0  0  0  0
  1  2  1  0
  2  3  1  0
  2  4  1  0
  4  5  2  0
  5  6  1  0
  6  7  1  0
  7  8  1  0
  8  9  1  0
  9 10  1  0
 10 11  1  1
 10 12  1  0
 12 13  1  6
 13 14  1  0
 14 15  1  1
 14 16  1  0
 16 17  1  0
 17 18  1  0
 18 19  2  0
 19 20  1  0
 20 21  1  0
 21 22  1  0
 22 23  1  0
 23 24  1  0
 24 25  2  0
 24 26  1  0
 26 27  1  0
 26 28  1  0
 28 29  1  6
 28 30  1  0
 30 31  2  0
 30 32  1  0
  6 33  2  0
 33 34  1  0
 34 35  2  0
 32 12  1  0
 35  4  1  0
M  END
$$$$
