
     RDKit          3D

 35 36  0  0  0  0  0  0  0  0999 V2000
  -11.4986  -36.1134  -13.8823 C   0  0  0  0  0  0  0  0  0  0  0  0
  -12.3754  -35.3221  -12.9023 C   0  0  0  0  0  0  0  0  0  0  0  0
  -11.4586  -34.8087  -11.8350 C   0  0  0  0  0  0  0  0  0  0  0  0
  -13.4291  -36.2281  -12.3863 C   0  0  0  0  0  0  0  0  0  0  0  0
  -13.0970  -37.2591  -11.5202 C   0  0  0  0  0  0  0  0  0  0  0  0
  -14.0275  -38.1361  -11.0067 C   0  0  0  0  0  0  0  0  0  0  0  0
  -13.6469  -39.2399  -10.0711 C   0  0  0  0  0  0  0  0  0  0  0  0
  -14.3716  -39.0351   -8.8620 N   0  0  0  0  0  0  0  0  0  0  0  0
  -15.5253  -39.8999   -8.6862 C   0  0  0  0  0  0  0  0  0  0  0  0
  -16.4041  -39.3413   -7.6228 C   0  0  1  0  0  0  0  0  0  0  0  0
  -16.3536  -37.9314   -7.6735 O   0  0  0  0  0  0  0  0  0  0  0  0
  -17.8385  -39.7966   -7.6584 C   0  0  2  0  0  0  0  0  0  0  0  0
  -18.7879  -38.6610   -7.4070 C   0  0  0  0  0  0  0  0  0  0  0  0
  -20.1495  -39.1247   -6.9014 C   0  0  2  0  0  0  0  0  0  0  0  0
  -21.1655  -38.7613   -7.9477 C   0  0  0  0  0  0  0  0  0  0  0  0
  -20.4538  -38.5452   -5.5539 C   0  0  0  0  0  0  0  0  0  0  0  0
  -21.9802  -38.3723   -5.3448 C   0  0  0  0  0  0  0  0  0  0  0  0
  -22.4983  -39.7391   -5.0135 C   0  0  0  0  0  0  0  0  0  0  0  0
  -23.3343  -40.5625   -5.5382 C   0  0  0  0  0  0  0  0  0  0  0  0
  -23.8311  -41.9404   -5.1685 C   0  0  0  0  0  0  0  0  0  0  0  0
  -22.8521  -43.0513   -5.2029 C   0  0  0  0  0  0  0  0  0  0  0  0
  -22.7816  -43.7843   -6.5041 C   0  0  0  0  0  0  0  0  0  0  0  0
  -21.5742  -43.3945   -7.3293 C   0  0  0  0  0  0  0  0  0  0  0  0
  -20.4122  -44.2702   -7.0441 C   0  0  0  0  0  0  0  0  0  0  0  0
  -20.5569  -45.1008   -6.0818 O   0  0  0  0  0  0  0  0  0  0  0  0
  -19.1857  -44.2736   -7.7212 N   0  0  0  0  0  0  0  0  0  0  0  0
  -18.5649  -45.5547   -8.0037 C   0  0  0  0  0  0  0  0  0  0  0  0
  -18.4930  -43.0475   -8.1589 C   0  0  1  0  0  0  0  0  0  0  0  0
  -19.2782  -42.3167   -9.1903 C   0  0  0  0  0  0  0  0  0  0  0  0
  -18.0503  -42.2542   -7.0027 C   0  0  0  0  0  0  0  0  0  0  0  0
  -17.5075  -42.9544   -6.0722 O   0  0  0  0  0  0  0  0  0  0  0  0
  -18.1356  -40.8816   -6.7811 N   0  0  0  0  0  0  0  0  0  0  0  0
  -15.3463  -37.9777  -11.3732 C   0  0  0  0  0  0  0  0  0  0  0  0
  -15.7153  -36.9661  -12.2310 C   0  0  0  0  0  0  0  0  0  0  0  0
  -14.7549  -36.0857  -12.7415 C   0  0  0  0  0  0  0  0  0  0  0  0
  1  2  1  0
  2  3  1  0
  2  4  1  0
  4  5  2  0
  5  6  1  0
  6  7  1  0
  7  8  1  0
  8  9  1  0
  9 10  1  0
 10 11  1  6
 10 12  1  0
 12 13  1  1
 13 14  1  0
 14 15  1  6
 14 16  1  0
 16 17  1  0
 17 18  1  0
 18 19  2  0
 19 20  1  0
 20 21  1  0
 21 22  1  0
 22 23  1  0
 23 24  1  0
 24 25  2  0
 24 26  1  0
 26 27  1  0
 26 28  1  0
 28 29  1  6
 28 30  1  0
 30 31  2  0
 30 32  1  0
  6 33  2  0
 33 34  1  0
 34 35  2  0
 32 12  1  0
 35  4  1  0
M  END
$$$$
