
     RDKit          3D

 35 36  0  0  0  0  0  0  0  0999 V2000
  -11.7786  -35.4383  -11.1533 C   0  0  0  0  0  0  0  0  0  0  0  0
  -12.6292  -35.9548  -12.3216 C   0  0  0  0  0  0  0  0  0  0  0  0
  -13.8903  -35.1468  -12.3156 C   0  0  0  0  0  0  0  0  0  0  0  0
  -12.8596  -37.4055  -12.1225 C   0  0  0  0  0  0  0  0  0  0  0  0
  -12.6333  -37.9818  -10.8816 C   0  0  0  0  0  0  0  0  0  0  0  0
  -12.8262  -39.3230  -10.6312 C   0  0  0  0  0  0  0  0  0  0  0  0
  -12.5784  -39.9230   -9.2832 C   0  0  0  0  0  0  0  0  0  0  0  0
  -13.6725  -39.5515   -8.4499 N   0  0  0  0  0  0  0  0  0  0  0  0
  -14.9787  -39.9585   -8.9375 C   0  0  0  0  0  0  0  0  0  0  0  0
  -16.0187  -39.0508   -8.3812 C   0  0  1  0  0  0  0  0  0  0  0  0
  -15.9992  -37.8324   -9.0940 O   0  0  0  0  0  0  0  0  0  0  0  0
  -17.4195  -39.6014   -8.3608 C   0  0  2  0  0  0  0  0  0  0  0  0
  -18.4434  -38.5099   -8.2401 C   0  0  0  0  0  0  0  0  0  0  0  0
  -19.7741  -39.0016   -7.6813 C   0  0  2  0  0  0  0  0  0  0  0  0
  -20.8062  -38.8295   -8.7603 C   0  0  0  0  0  0  0  0  0  0  0  0
  -20.1235  -38.2920   -6.4090 C   0  0  0  0  0  0  0  0  0  0  0  0
  -21.6591  -38.1979   -6.2179 C   0  0  0  0  0  0  0  0  0  0  0  0
  -22.0874  -39.5488   -5.7299 C   0  0  0  0  0  0  0  0  0  0  0  0
  -22.8641  -40.4809   -6.1542 C   0  0  0  0  0  0  0  0  0  0  0  0
  -23.2706  -41.8369   -5.6269 C   0  0  0  0  0  0  0  0  0  0  0  0
  -22.2201  -42.8768   -5.5350 C   0  0  0  0  0  0  0  0  0  0  0  0
  -22.0941  -43.7487   -6.7431 C   0  0  0  0  0  0  0  0  0  0  0  0
  -20.9107  -43.3773   -7.6104 C   0  0  0  0  0  0  0  0  0  0  0  0
  -19.6947  -44.1353   -7.2287 C   0  0  0  0  0  0  0  0  0  0  0  0
  -19.7894  -44.8571   -6.1766 O   0  0  0  0  0  0  0  0  0  0  0  0
  -18.4670  -44.1353   -7.9036 N   0  0  0  0  0  0  0  0  0  0  0  0
  -17.7613  -45.3963   -8.0377 C   0  0  0  0  0  0  0  0  0  0  0  0
  -17.8547  -42.9245   -8.4814 C   0  0  1  0  0  0  0  0  0  0  0  0
  -18.6809  -42.3713   -9.5884 C   0  0  0  0  0  0  0  0  0  0  0  0
  -17.4718  -41.9755   -7.4254 C   0  0  0  0  0  0  0  0  0  0  0  0
  -16.8890  -42.5262   -6.4215 O   0  0  0  0  0  0  0  0  0  0  0  0
  -17.6490  -40.5952   -7.3636 N   0  0  0  0  0  0  0  0  0  0  0  0
  -13.2638  -40.1238  -11.6637 C   0  0  0  0  0  0  0  0  0  0  0  0
  -13.4995  -39.5886  -12.9101 C   0  0  0  0  0  0  0  0  0  0  0  0
  -13.2974  -38.2238  -13.1437 C   0  0  0  0  0  0  0  0  0  0  0  0
  1  2  1  0
  2  3  1  0
  2  4  1  0
  4  5  2  0
  5  6  1  0
  6  7  1  0
  7  8  1  0
  8  9  1  0
  9 10  1  0
 10 11  1  6
 10 12  1  0
 12 13  1  1
 13 14  1  0
 14 15  1  6
 14 16  1  0
 16 17  1  0
 17 18  1  0
 18 19  2  0
 19 20  1  0
 20 21  1  0
 21 22  1  0
 22 23  1  0
 23 24  1  0
 24 25  2  0
 24 26  1  0
 26 27  1  0
 26 28  1  0
 28 29  1  6
 28 30  1  0
 30 31  2  0
 30 32  1  0
  6 33  2  0
 33 34  1  0
 34 35  2  0
 32 12  1  0
 35  4  1  0
M  END
$$$$
