
     RDKit          3D

 35 36  0  0  0  0  0  0  0  0999 V2000
  -23.5504  -42.0350   -5.1369 C   0  0  0  0  0  0  0  0  0  0  0  0
  -22.0417  -41.7634   -5.2085 C   0  0  0  0  0  0  0  0  0  0  0  0
  -21.6017  -41.4520   -3.8112 C   0  0  0  0  0  0  0  0  0  0  0  0
  -21.8151  -40.6483   -6.1585 C   0  0  0  0  0  0  0  0  0  0  0  0
  -20.5514  -40.4304   -6.6867 C   0  0  0  0  0  0  0  0  0  0  0  0
  -20.2742  -39.4116   -7.5720 C   0  0  0  0  0  0  0  0  0  0  0  0
  -18.9033  -39.1968   -8.1316 C   0  0  0  0  0  0  0  0  0  0  0  0
  -18.0036  -39.9797   -7.3526 N   0  0  0  0  0  0  0  0  0  0  0  0
  -16.8875  -39.2445   -6.7839 C   0  0  0  0  0  0  0  0  0  0  0  0
  -16.4283  -38.2142   -7.7548 C   0  0  1  0  0  0  0  0  0  0  0  0
  -16.0665  -37.0445   -7.0523 O   0  0  0  0  0  0  0  0  0  0  0  0
  -15.2989  -38.6298   -8.6591 C   0  0  2  0  0  0  0  0  0  0  0  0
  -14.4427  -37.4604   -9.0512 C   0  0  0  0  0  0  0  0  0  0  0  0
  -13.6611  -37.7005  -10.3382 C   0  0  2  0  0  0  0  0  0  0  0  0
  -12.2003  -37.6985   -9.9842 C   0  0  0  0  0  0  0  0  0  0  0  0
  -14.0180  -36.6909  -11.3858 C   0  0  0  0  0  0  0  0  0  0  0  0
  -12.8303  -36.4310  -12.3478 C   0  0  0  0  0  0  0  0  0  0  0  0
  -12.8166  -37.5937  -13.2935 C   0  0  0  0  0  0  0  0  0  0  0  0
  -11.9907  -38.5323  -13.5918 C   0  0  0  0  0  0  0  0  0  0  0  0
  -12.0168  -39.6927  -14.5586 C   0  0  0  0  0  0  0  0  0  0  0  0
  -13.0079  -40.7652  -14.3114 C   0  0  0  0  0  0  0  0  0  0  0  0
  -12.5083  -41.8993  -13.4748 C   0  0  0  0  0  0  0  0  0  0  0  0
  -13.0061  -41.8350  -12.0470 C   0  0  0  0  0  0  0  0  0  0  0  0
  -14.2765  -42.5807  -11.8776 C   0  0  0  0  0  0  0  0  0  0  0  0
  -14.8115  -43.0306  -12.9491 O   0  0  0  0  0  0  0  0  0  0  0  0
  -14.9379  -42.8359  -10.6691 N   0  0  0  0  0  0  0  0  0  0  0  0
  -15.5305  -44.1469  -10.4783 C   0  0  0  0  0  0  0  0  0  0  0  0
  -15.0652  -41.8446   -9.5847 C   0  0  1  0  0  0  0  0  0  0  0  0
  -13.7391  -41.4962   -9.0065 C   0  0  0  0  0  0  0  0  0  0  0  0
  -15.9036  -40.7122  -10.0051 C   0  0  0  0  0  0  0  0  0  0  0  0
  -16.9697  -41.0622  -10.6311 O   0  0  0  0  0  0  0  0  0  0  0  0
  -15.7073  -39.3451   -9.8237 N   0  0  0  0  0  0  0  0  0  0  0  0
  -21.3022  -38.5739   -7.9465 C   0  0  0  0  0  0  0  0  0  0  0  0
  -22.5705  -38.7580   -7.4438 C   0  0  0  0  0  0  0  0  0  0  0  0
  -22.8314  -39.7989   -6.5457 C   0  0  0  0  0  0  0  0  0  0  0  0
  1  2  1  0
  2  3  1  0
  2  4  1  0
  4  5  2  0
  5  6  1  0
  6  7  1  0
  7  8  1  0
  8  9  1  0
  9 10  1  0
 10 11  1  1
 10 12  1  0
 12 13  1  6
 13 14  1  0
 14 15  1  1
 14 16  1  0
 16 17  1  0
 17 18  1  0
 18 19  2  0
 19 20  1  0
 20 21  1  0
 21 22  1  0
 22 23  1  0
 23 24  1  0
 24 25  2  0
 24 26  1  0
 26 27  1  0
 26 28  1  0
 28 29  1  6
 28 30  1  0
 30 31  2  0
 30 32  1  0
  6 33  2  0
 33 34  1  0
 34 35  2  0
 32 12  1  0
 35  4  1  0
M  END
$$$$
