
     RDKit          3D

 35 36  0  0  0  0  0  0  0  0999 V2000
  -21.8565  -42.2661   -3.4226 C   0  0  0  0  0  0  0  0  0  0  0  0
  -21.1179  -40.9493   -3.6976 C   0  0  0  0  0  0  0  0  0  0  0  0
  -21.5418  -39.9950   -2.6240 C   0  0  0  0  0  0  0  0  0  0  0  0
  -21.4733  -40.4939   -5.0628 C   0  0  0  0  0  0  0  0  0  0  0  0
  -20.4755  -40.2136   -5.9843 C   0  0  0  0  0  0  0  0  0  0  0  0
  -20.7384  -39.7852   -7.2672 C   0  0  0  0  0  0  0  0  0  0  0  0
  -19.6456  -39.4913   -8.2460 C   0  0  0  0  0  0  0  0  0  0  0  0
  -18.5017  -40.2342   -7.8349 N   0  0  0  0  0  0  0  0  0  0  0  0
  -17.5763  -39.5099   -6.9813 C   0  0  0  0  0  0  0  0  0  0  0  0
  -17.0768  -38.3074   -7.7021 C   0  0  1  0  0  0  0  0  0  0  0  0
  -16.7424  -37.3093   -6.7615 O   0  0  0  0  0  0  0  0  0  0  0  0
  -15.9121  -38.5402   -8.6269 C   0  0  2  0  0  0  0  0  0  0  0  0
  -15.3085  -37.2478   -9.0958 C   0  0  0  0  0  0  0  0  0  0  0  0
  -14.5288  -37.3933  -10.3979 C   0  0  2  0  0  0  0  0  0  0  0  0
  -13.0874  -37.0943  -10.0948 C   0  0  0  0  0  0  0  0  0  0  0  0
  -15.1012  -36.5212  -11.4732 C   0  0  0  0  0  0  0  0  0  0  0  0
  -14.0115  -36.0833  -12.4853 C   0  0  0  0  0  0  0  0  0  0  0  0
  -13.7976  -37.2648  -13.3824 C   0  0  0  0  0  0  0  0  0  0  0  0
  -12.8138  -38.0402  -13.6703 C   0  0  0  0  0  0  0  0  0  0  0  0
  -12.6400  -39.2280  -14.5874 C   0  0  0  0  0  0  0  0  0  0  0  0
  -13.3983  -40.4581  -14.2625 C   0  0  0  0  0  0  0  0  0  0  0  0
  -12.6674  -41.4347  -13.3979 C   0  0  0  0  0  0  0  0  0  0  0  0
  -13.1312  -41.4005  -11.9576 C   0  0  0  0  0  0  0  0  0  0  0  0
  -14.2286  -42.3675  -11.7142 C   0  0  0  0  0  0  0  0  0  0  0  0
  -14.6940  -42.9613  -12.7474 O   0  0  0  0  0  0  0  0  0  0  0  0
  -14.7966  -42.6880  -10.4743 N   0  0  0  0  0  0  0  0  0  0  0  0
  -15.1194  -44.0780  -10.2097 C   0  0  0  0  0  0  0  0  0  0  0  0
  -15.0851  -41.6900   -9.4276 C   0  0  1  0  0  0  0  0  0  0  0  0
  -13.8370  -41.0668   -8.9101 C   0  0  0  0  0  0  0  0  0  0  0  0
  -16.1373  -40.7606   -9.8650 C   0  0  0  0  0  0  0  0  0  0  0  0
  -17.1314  -41.3377  -10.4390 O   0  0  0  0  0  0  0  0  0  0  0  0
  -16.2045  -39.3743   -9.7465 N   0  0  0  0  0  0  0  0  0  0  0  0
  -22.0537  -39.6297   -7.6472 C   0  0  0  0  0  0  0  0  0  0  0  0
  -23.0724  -39.8979   -6.7608 C   0  0  0  0  0  0  0  0  0  0  0  0
  -22.7841  -40.3321   -5.4622 C   0  0  0  0  0  0  0  0  0  0  0  0
  1  2  1  0
  2  3  1  0
  2  4  1  0
  4  5  2  0
  5  6  1  0
  6  7  1  0
  7  8  1  0
  8  9  1  0
  9 10  1  0
 10 11  1  1
 10 12  1  0
 12 13  1  6
 13 14  1  0
 14 15  1  1
 14 16  1  0
 16 17  1  0
 17 18  1  0
 18 19  2  0
 19 20  1  0
 20 21  1  0
 21 22  1  0
 22 23  1  0
 23 24  1  0
 24 25  2  0
 24 26  1  0
 26 27  1  0
 26 28  1  0
 28 29  1  6
 28 30  1  0
 30 31  2  0
 30 32  1  0
  6 33  2  0
 33 34  1  0
 34 35  2  0
 32 12  1  0
 35  4  1  0
M  END
$$$$
