
     RDKit          3D

 35 36  0  0  0  0  0  0  0  0999 V2000
  -23.8011  -42.1828   -5.8444 C   0  0  0  0  0  0  0  0  0  0  0  0
  -23.9511  -41.1515   -6.9710 C   0  0  0  0  0  0  0  0  0  0  0  0
  -24.1729  -41.9310   -8.2305 C   0  0  0  0  0  0  0  0  0  0  0  0
  -22.7257  -40.3179   -7.0037 C   0  0  0  0  0  0  0  0  0  0  0  0
  -21.4839  -40.9129   -7.1690 C   0  0  0  0  0  0  0  0  0  0  0  0
  -20.3079  -40.1959   -7.2061 C   0  0  0  0  0  0  0  0  0  0  0  0
  -18.9790  -40.8588   -7.3884 C   0  0  0  0  0  0  0  0  0  0  0  0
  -18.2540  -40.0917   -8.3451 N   0  0  0  0  0  0  0  0  0  0  0  0
  -17.0099  -39.5228   -7.8571 C   0  0  0  0  0  0  0  0  0  0  0  0
  -16.5495  -38.4631   -8.7953 C   0  0  1  0  0  0  0  0  0  0  0  0
  -16.4404  -37.2414   -8.0964 O   0  0  0  0  0  0  0  0  0  0  0  0
  -15.2599  -38.7486   -9.5173 C   0  0  2  0  0  0  0  0  0  0  0  0
  -14.4407  -37.5043   -9.7037 C   0  0  0  0  0  0  0  0  0  0  0  0
  -13.4439  -37.6148  -10.8522 C   0  0  2  0  0  0  0  0  0  0  0  0
  -12.0647  -37.5385  -10.2596 C   0  0  0  0  0  0  0  0  0  0  0  0
  -13.6993  -36.5694  -11.8944 C   0  0  0  0  0  0  0  0  0  0  0  0
  -12.3933  -36.1749  -12.6308 C   0  0  0  0  0  0  0  0  0  0  0  0
  -12.1389  -37.2752  -13.6162 C   0  0  0  0  0  0  0  0  0  0  0  0
  -11.2077  -38.1381  -13.8176 C   0  0  0  0  0  0  0  0  0  0  0  0
  -10.9893  -39.2374  -14.8304 C   0  0  0  0  0  0  0  0  0  0  0  0
  -11.9247  -40.3854  -14.8046 C   0  0  0  0  0  0  0  0  0  0  0  0
  -11.4853  -41.5326  -13.9524 C   0  0  0  0  0  0  0  0  0  0  0  0
  -12.2128  -41.5872  -12.6263 C   0  0  0  0  0  0  0  0  0  0  0  0
  -13.4346  -42.4233  -12.7079 C   0  0  0  0  0  0  0  0  0  0  0  0
  -13.7526  -42.8418  -13.8742 O   0  0  0  0  0  0  0  0  0  0  0  0
  -14.2634  -42.7934  -11.6407 N   0  0  0  0  0  0  0  0  0  0  0  0
  -14.7799  -44.1495  -11.6154 C   0  0  0  0  0  0  0  0  0  0  0  0
  -14.6395  -41.8797  -10.5459 C   0  0  1  0  0  0  0  0  0  0  0  0
  -13.4552  -41.4807   -9.7381 C   0  0  0  0  0  0  0  0  0  0  0  0
  -15.4801  -40.7814  -11.0450 C   0  0  0  0  0  0  0  0  0  0  0  0
  -16.4007  -41.1620  -11.8564 O   0  0  0  0  0  0  0  0  0  0  0  0
  -15.4184  -39.4178  -10.7671 N   0  0  0  0  0  0  0  0  0  0  0  0
  -20.3736  -38.8260   -7.0726 C   0  0  0  0  0  0  0  0  0  0  0  0
  -21.5878  -38.1987   -6.9067 C   0  0  0  0  0  0  0  0  0  0  0  0
  -22.7709  -38.9451   -6.8717 C   0  0  0  0  0  0  0  0  0  0  0  0
  1  2  1  0
  2  3  1  0
  2  4  1  0
  4  5  2  0
  5  6  1  0
  6  7  1  0
  7  8  1  0
  8  9  1  0
  9 10  1  0
 10 11  1  1
 10 12  1  0
 12 13  1  6
 13 14  1  0
 14 15  1  1
 14 16  1  0
 16 17  1  0
 17 18  1  0
 18 19  2  0
 19 20  1  0
 20 21  1  0
 21 22  1  0
 22 23  1  0
 23 24  1  0
 24 25  2  0
 24 26  1  0
 26 27  1  0
 26 28  1  0
 28 29  1  6
 28 30  1  0
 30 31  2  0
 30 32  1  0
  6 33  2  0
 33 34  1  0
 34 35  2  0
 32 12  1  0
 35  4  1  0
M  END
$$$$
