
     RDKit          3D

 42 45  0  0  0  0  0  0  0  0999 V2000
  -24.9982  -40.3876   -7.1638 C   0  0  0  0  0  0  0  0  0  0  0  0
  -24.1043  -41.3652   -6.7688 O   0  0  0  0  0  0  0  0  0  0  0  0
  -23.8423  -42.2879   -7.7738 C   0  0  0  0  0  0  0  0  0  0  0  0
  -22.3990  -42.6883   -7.7086 C   0  0  0  0  0  0  0  0  0  0  0  0
  -22.0201  -43.9420   -7.3430 C   0  0  0  0  0  0  0  0  0  0  0  0
  -20.6573  -44.3415   -7.2677 C   0  0  0  0  0  0  0  0  0  0  0  0
  -19.6738  -43.4306   -7.5721 C   0  0  0  0  0  0  0  0  0  0  0  0
  -20.0030  -42.1418   -7.9518 C   0  0  0  0  0  0  0  0  0  0  0  0
  -21.3920  -41.8204   -8.0041 C   0  0  0  0  0  0  0  0  0  0  0  0
  -19.1337  -41.0045   -8.3523 C   0  0  0  0  0  0  0  0  0  0  0  0
  -19.6697  -40.2995   -9.3526 O   0  0  0  0  0  0  0  0  0  0  0  0
  -17.9216  -40.4788   -7.9695 N   0  0  0  0  0  0  0  0  0  0  0  0
  -16.6010  -41.1029   -7.7935 C   0  0  1  0  0  0  0  0  0  0  0  0
  -16.3155  -42.2042   -8.7037 C   0  0  0  0  0  0  0  0  0  0  0  0
  -15.7653  -43.4793   -8.1668 C   0  0  2  0  0  0  0  0  0  0  0  0
  -15.2976  -43.5412   -6.7756 C   0  0  0  0  0  0  0  0  0  0  0  0
  -14.6348  -44.0480   -9.0659 C   0  0  0  0  0  0  0  0  0  0  0  0
  -15.0594  -45.3856   -9.5928 C   0  0  0  0  0  0  0  0  0  0  0  0
  -15.6223  -46.3284   -8.5927 C   0  0  0  0  0  0  0  0  0  0  0  0
  -16.9717  -46.8706   -9.0442 C   0  0  0  0  0  0  0  0  0  0  0  0
  -17.6339  -47.6799   -7.9769 C   0  0  0  0  0  0  0  0  0  0  0  0
  -18.4239  -46.9148   -6.9684 C   0  0  0  0  0  0  0  0  0  0  0  0
  -19.8511  -46.8338   -7.4303 C   0  0  0  0  0  0  0  0  0  0  0  0
  -20.6032  -45.7234   -6.8758 N   0  0  0  0  0  0  0  0  0  0  0  0
  -15.5290  -39.9765   -8.0104 C   0  0  2  0  0  0  0  0  0  0  0  0
  -16.0797  -38.9272   -7.2257 O   0  0  0  0  0  0  0  0  0  0  0  0
  -15.3379  -39.6147   -9.4102 C   0  0  0  0  0  0  0  0  0  0  0  0
  -15.3485  -38.2714   -9.7421 N   0  0  0  0  0  0  0  0  0  0  0  0
  -15.6582  -37.6859  -10.9597 C   0  0  0  0  0  0  0  0  0  0  0  0
  -15.6692  -38.8656  -12.0184 C   0  0  0  0  0  0  0  0  0  0  0  0
  -14.2644  -38.7579  -11.9274 O   0  0  0  0  0  0  0  0  0  0  0  0
  -14.4855  -37.3646  -11.8836 C   0  0  0  0  0  0  0  0  0  0  0  0
  -16.8545  -36.8851  -11.2066 C   0  0  0  0  0  0  0  0  0  0  0  0
  -17.7995  -36.6866  -10.1886 C   0  0  0  0  0  0  0  0  0  0  0  0
  -18.9625  -35.9973  -10.3459 C   0  0  0  0  0  0  0  0  0  0  0  0
  -19.2613  -35.4466  -11.5658 C   0  0  0  0  0  0  0  0  0  0  0  0
  -18.3703  -35.6085  -12.6050 C   0  0  0  0  0  0  0  0  0  0  0  0
  -17.1985  -36.3159  -12.4095 C   0  0  0  0  0  0  0  0  0  0  0  0
  -19.9507  -35.8198   -9.2419 C   0  0  0  0  0  0  0  0  0  0  0  0
  -21.2973  -35.4062   -9.7650 C   0  0  0  0  0  0  0  0  0  0  0  0
  -19.4850  -34.7029   -8.3031 C   0  0  0  0  0  0  0  0  0  0  0  0
  -20.0491  -37.0812   -8.4159 C   0  0  0  0  0  0  0  0  0  0  0  0
  1  2  1  0
  2  3  1  0
  3  4  1  0
  4  5  2  0
  5  6  1  0
  6  7  2  0
  7  8  1  0
  8  9  2  0
  8 10  1  0
 10 11  2  0
 10 12  1  0
 12 13  1  0
 13 14  1  6
 14 15  1  0
 15 16  1  1
 15 17  1  0
 17 18  1  0
 18 19  1  0
 19 20  1  0
 20 21  1  0
 21 22  1  0
 22 23  1  0
 23 24  1  0
 13 25  1  0
 25 26  1  1
 25 27  1  0
 27 28  1  0
 28 29  1  0
 29 30  1  0
 30 31  1  0
 31 32  1  0
 29 33  1  0
 33 34  2  0
 34 35  1  0
 35 36  2  0
 36 37  1  0
 37 38  2  0
 35 39  1  0
 39 40  1  0
 39 41  1  0
 39 42  1  0
  9  4  1  0
 24  6  1  0
 32 29  1  0
 38 33  1  0
M  END
$$$$
