
     RDKit          3D

 42 45  0  0  0  0  0  0  0  0999 V2000
  -19.7606  -48.9529   -6.9821 C   0  0  0  0  0  0  0  0  0  0  0  0
  -18.9183  -47.8589   -7.0466 O   0  0  0  0  0  0  0  0  0  0  0  0
  -19.0225  -47.1740   -8.2509 C   0  0  0  0  0  0  0  0  0  0  0  0
  -19.4929  -45.7762   -7.9816 C   0  0  0  0  0  0  0  0  0  0  0  0
  -20.8142  -45.4744   -7.8728 C   0  0  0  0  0  0  0  0  0  0  0  0
  -21.2830  -44.1549   -7.6246 C   0  0  0  0  0  0  0  0  0  0  0  0
  -20.3722  -43.1340   -7.4900 C   0  0  0  0  0  0  0  0  0  0  0  0
  -19.0155  -43.3852   -7.5897 C   0  0  0  0  0  0  0  0  0  0  0  0
  -18.6267  -44.7351   -7.8384 C   0  0  0  0  0  0  0  0  0  0  0  0
  -17.8541  -42.4676   -7.4530 C   0  0  0  0  0  0  0  0  0  0  0  0
  -16.8352  -43.0498   -6.8145 O   0  0  0  0  0  0  0  0  0  0  0  0
  -17.5430  -41.1757   -7.8083 N   0  0  0  0  0  0  0  0  0  0  0  0
  -18.2546  -39.9069   -7.5891 C   0  0  1  0  0  0  0  0  0  0  0  0
  -19.0102  -39.8328   -6.3455 C   0  0  0  0  0  0  0  0  0  0  0  0
  -20.4163  -39.3435   -6.3664 C   0  0  2  0  0  0  0  0  0  0  0  0
  -20.9527  -38.7236   -7.5854 C   0  0  0  0  0  0  0  0  0  0  0  0
  -20.7146  -38.3836   -5.1835 C   0  0  0  0  0  0  0  0  0  0  0  0
  -21.7836  -38.9886   -4.3243 C   0  0  0  0  0  0  0  0  0  0  0  0
  -22.9727  -39.5149   -5.0419 C   0  0  0  0  0  0  0  0  0  0  0  0
  -23.2703  -40.9521   -4.6364 C   0  0  0  0  0  0  0  0  0  0  0  0
  -24.3504  -41.5565   -5.4733 C   0  0  0  0  0  0  0  0  0  0  0  0
  -23.9194  -42.1487   -6.7732 C   0  0  0  0  0  0  0  0  0  0  0  0
  -23.6216  -43.6067   -6.5669 C   0  0  0  0  0  0  0  0  0  0  0  0
  -22.7179  -44.1829   -7.5454 N   0  0  0  0  0  0  0  0  0  0  0  0
  -17.1734  -38.7684   -7.5925 C   0  0  2  0  0  0  0  0  0  0  0  0
  -17.5472  -38.0467   -8.7585 O   0  0  0  0  0  0  0  0  0  0  0  0
  -15.8029  -39.2654   -7.6327 C   0  0  0  0  0  0  0  0  0  0  0  0
  -15.4161  -40.0188   -8.7271 N   0  0  0  0  0  0  0  0  0  0  0  0
  -14.1743  -40.0752   -9.3403 C   0  0  0  0  0  0  0  0  0  0  0  0
  -13.8277  -41.6158   -9.4781 C   0  0  0  0  0  0  0  0  0  0  0  0
  -13.5320  -41.5174   -8.1011 O   0  0  0  0  0  0  0  0  0  0  0  0
  -12.9665  -40.2656   -8.4257 C   0  0  0  0  0  0  0  0  0  0  0  0
  -13.8629  -39.4552  -10.6256 C   0  0  0  0  0  0  0  0  0  0  0  0
  -13.5616  -38.0868  -10.7002 C   0  0  0  0  0  0  0  0  0  0  0  0
  -13.3082  -37.4197  -11.8592 C   0  0  0  0  0  0  0  0  0  0  0  0
  -13.3402  -38.0989  -13.0502 C   0  0  0  0  0  0  0  0  0  0  0  0
  -13.6306  -39.4463  -13.0399 C   0  0  0  0  0  0  0  0  0  0  0  0
  -13.8838  -40.0917  -11.8436 C   0  0  0  0  0  0  0  0  0  0  0  0
  -13.0056  -35.9590  -11.8996 C   0  0  0  0  0  0  0  0  0  0  0  0
  -11.7511  -35.6320  -11.1396 C   0  0  0  0  0  0  0  0  0  0  0  0
  -14.1386  -35.1756  -11.2303 C   0  0  0  0  0  0  0  0  0  0  0  0
  -12.9189  -35.4789  -13.3297 C   0  0  0  0  0  0  0  0  0  0  0  0
  1  2  1  0
  2  3  1  0
  3  4  1  0
  4  5  2  0
  5  6  1  0
  6  7  2  0
  7  8  1  0
  8  9  2  0
  8 10  1  0
 10 11  2  0
 10 12  1  0
 12 13  1  0
 13 14  1  1
 14 15  1  0
 15 16  1  6
 15 17  1  0
 17 18  1  0
 18 19  1  0
 19 20  1  0
 20 21  1  0
 21 22  1  0
 22 23  1  0
 23 24  1  0
 13 25  1  0
 25 26  1  6
 25 27  1  0
 27 28  1  0
 28 29  1  0
 29 30  1  0
 30 31  1  0
 31 32  1  0
 29 33  1  0
 33 34  2  0
 34 35  1  0
 35 36  2  0
 36 37  1  0
 37 38  2  0
 35 39  1  0
 39 40  1  0
 39 41  1  0
 39 42  1  0
  9  4  1  0
 24  6  1  0
 32 29  1  0
 38 33  1  0
M  END
$$$$
