
     RDKit          3D

 42 45  0  0  0  0  0  0  0  0999 V2000
  -24.0276  -38.4929  -11.6033 C   0  0  0  0  0  0  0  0  0  0  0  0
  -23.9762  -38.1894  -10.2558 O   0  0  0  0  0  0  0  0  0  0  0  0
  -22.7975  -37.5477   -9.8967 C   0  0  0  0  0  0  0  0  0  0  0  0
  -22.0011  -38.4488   -9.0015 C   0  0  0  0  0  0  0  0  0  0  0  0
  -22.5749  -39.1179   -7.9662 C   0  0  0  0  0  0  0  0  0  0  0  0
  -21.8377  -39.9720   -7.1005 C   0  0  0  0  0  0  0  0  0  0  0  0
  -20.4883  -40.1335   -7.3076 C   0  0  0  0  0  0  0  0  0  0  0  0
  -19.8537  -39.4781   -8.3474 C   0  0  0  0  0  0  0  0  0  0  0  0
  -20.6635  -38.6408   -9.1711 C   0  0  0  0  0  0  0  0  0  0  0  0
  -18.4336  -39.5158   -8.7851 C   0  0  0  0  0  0  0  0  0  0  0  0
  -18.3250  -39.4982  -10.1165 O   0  0  0  0  0  0  0  0  0  0  0  0
  -17.1957  -39.5633   -8.1874 N   0  0  0  0  0  0  0  0  0  0  0  0
  -16.6438  -40.4600   -7.1599 C   0  0  1  0  0  0  0  0  0  0  0  0
  -17.1443  -41.8276   -7.2045 C   0  0  0  0  0  0  0  0  0  0  0  0
  -17.6112  -42.4820   -5.9512 C   0  0  2  0  0  0  0  0  0  0  0  0
  -17.3503  -41.8412   -4.6553 C   0  0  0  0  0  0  0  0  0  0  0  0
  -17.1291  -43.9541   -5.8505 C   0  0  0  0  0  0  0  0  0  0  0  0
  -18.3257  -44.8563   -5.8186 C   0  0  0  0  0  0  0  0  0  0  0  0
  -19.4072  -44.4673   -4.8778 C   0  0  0  0  0  0  0  0  0  0  0  0
  -20.7557  -44.4061   -5.5823 C   0  0  0  0  0  0  0  0  0  0  0  0
  -21.8229  -43.8474   -4.6984 C   0  0  0  0  0  0  0  0  0  0  0  0
  -21.9246  -42.3595   -4.6525 C   0  0  0  0  0  0  0  0  0  0  0  0
  -22.9115  -41.9086   -5.6915 C   0  0  0  0  0  0  0  0  0  0  0  0
  -22.7387  -40.5371   -6.1336 N   0  0  0  0  0  0  0  0  0  0  0  0
  -15.0868  -40.4844   -7.3610 C   0  0  2  0  0  0  0  0  0  0  0  0
  -14.6997  -39.3497   -6.5977 O   0  0  0  0  0  0  0  0  0  0  0  0
  -14.6779  -40.4098   -8.7589 C   0  0  0  0  0  0  0  0  0  0  0  0
  -13.7712  -39.4287   -9.1199 N   0  0  0  0  0  0  0  0  0  0  0  0
  -13.6349  -38.7870  -10.3409 C   0  0  0  0  0  0  0  0  0  0  0  0
  -12.9332  -39.8320  -11.3045 C   0  0  0  0  0  0  0  0  0  0  0  0
  -11.7670  -39.4769  -10.5923 O   0  0  0  0  0  0  0  0  0  0  0  0
  -12.2743  -38.1606  -10.6376 C   0  0  0  0  0  0  0  0  0  0  0  0
  -14.7429  -38.1995  -11.0895 C   0  0  0  0  0  0  0  0  0  0  0  0
  -14.4997  -37.4662  -12.2608 C   0  0  0  0  0  0  0  0  0  0  0  0
  -15.4659  -36.8453  -12.9911 C   0  0  0  0  0  0  0  0  0  0  0  0
  -16.7735  -36.9222  -12.5850 C   0  0  0  0  0  0  0  0  0  0  0  0
  -17.0742  -37.6297  -11.4409 C   0  0  0  0  0  0  0  0  0  0  0  0
  -16.0668  -38.2472  -10.7229 C   0  0  0  0  0  0  0  0  0  0  0  0
  -15.1658  -36.0612  -14.2249 C   0  0  0  0  0  0  0  0  0  0  0  0
  -14.2643  -36.8198  -15.1577 C   0  0  0  0  0  0  0  0  0  0  0  0
  -14.4258  -34.7728  -13.8537 C   0  0  0  0  0  0  0  0  0  0  0  0
  -16.4473  -35.6539  -14.9142 C   0  0  0  0  0  0  0  0  0  0  0  0
  1  2  1  0
  2  3  1  0
  3  4  1  0
  4  5  2  0
  5  6  1  0
  6  7  2  0
  7  8  1  0
  8  9  2  0
  8 10  1  0
 10 11  2  0
 10 12  1  0
 12 13  1  0
 13 14  1  6
 14 15  1  0
 15 16  1  1
 15 17  1  0
 17 18  1  0
 18 19  1  0
 19 20  1  0
 20 21  1  0
 21 22  1  0
 22 23  1  0
 23 24  1  0
 13 25  1  0
 25 26  1  1
 25 27  1  0
 27 28  1  0
 28 29  1  0
 29 30  1  0
 30 31  1  0
 31 32  1  0
 29 33  1  0
 33 34  2  0
 34 35  1  0
 35 36  2  0
 36 37  1  0
 37 38  2  0
 35 39  1  0
 39 40  1  0
 39 41  1  0
 39 42  1  0
  9  4  1  0
 24  6  1  0
 32 29  1  0
 38 33  1  0
M  END
$$$$
