
     RDKit          3D

 42 45  0  0  0  0  0  0  0  0999 V2000
  -20.7003  -41.7532  -15.0279 C   0  0  0  0  0  0  0  0  0  0  0  0
  -20.2069  -40.8449  -14.1101 O   0  0  0  0  0  0  0  0  0  0  0  0
  -21.2085  -40.0873  -13.5161 C   0  0  0  0  0  0  0  0  0  0  0  0
  -20.9490  -39.9997  -12.0421 C   0  0  0  0  0  0  0  0  0  0  0  0
  -21.9424  -39.7231  -11.1558 C   0  0  0  0  0  0  0  0  0  0  0  0
  -21.7177  -39.6284   -9.7548 C   0  0  0  0  0  0  0  0  0  0  0  0
  -20.4477  -39.8200   -9.2650 C   0  0  0  0  0  0  0  0  0  0  0  0
  -19.4000  -40.1060  -10.1217 C   0  0  0  0  0  0  0  0  0  0  0  0
  -19.7081  -40.1850  -11.5125 C   0  0  0  0  0  0  0  0  0  0  0  0
  -17.9676  -40.3792   -9.8332 C   0  0  0  0  0  0  0  0  0  0  0  0
  -17.4774  -41.3386  -10.6232 O   0  0  0  0  0  0  0  0  0  0  0  0
  -17.0059  -39.9089   -8.9696 N   0  0  0  0  0  0  0  0  0  0  0  0
  -17.0100  -39.7339   -7.5088 C   0  0  1  0  0  0  0  0  0  0  0  0
  -17.7926  -40.7190   -6.7739 C   0  0  0  0  0  0  0  0  0  0  0  0
  -18.7465  -40.2669   -5.7239 C   0  0  2  0  0  0  0  0  0  0  0  0
  -18.7245  -38.8685   -5.2745 C   0  0  0  0  0  0  0  0  0  0  0  0
  -18.6866  -41.1653   -4.4595 C   0  0  0  0  0  0  0  0  0  0  0  0
  -20.0228  -41.8151   -4.2612 C   0  0  0  0  0  0  0  0  0  0  0  0
  -21.2020  -40.9172   -4.3577 C   0  0  0  0  0  0  0  0  0  0  0  0
  -22.2318  -41.4625   -5.3379 C   0  0  0  0  0  0  0  0  0  0  0  0
  -23.3402  -40.4906   -5.5818 C   0  0  0  0  0  0  0  0  0  0  0  0
  -23.0863  -39.4542   -6.6248 C   0  0  0  0  0  0  0  0  0  0  0  0
  -23.5899  -39.9621   -7.9459 C   0  0  0  0  0  0  0  0  0  0  0  0
  -22.9691  -39.3484   -9.1052 N   0  0  0  0  0  0  0  0  0  0  0  0
  -15.5162  -39.8174   -7.0329 C   0  0  2  0  0  0  0  0  0  0  0  0
  -15.5110  -38.8481   -5.9934 O   0  0  0  0  0  0  0  0  0  0  0  0
  -14.5507  -39.5392   -8.0899 C   0  0  0  0  0  0  0  0  0  0  0  0
  -14.8726  -39.9188   -9.3811 N   0  0  0  0  0  0  0  0  0  0  0  0
  -14.1196  -39.7744  -10.5359 C   0  0  0  0  0  0  0  0  0  0  0  0
  -14.0723  -41.2103  -11.2057 C   0  0  0  0  0  0  0  0  0  0  0  0
  -13.1192  -41.4816  -10.2001 O   0  0  0  0  0  0  0  0  0  0  0  0
  -12.6485  -40.1745  -10.4492 C   0  0  0  0  0  0  0  0  0  0  0  0
  -14.4213  -38.8210  -11.6006 C   0  0  0  0  0  0  0  0  0  0  0  0
  -13.8795  -37.5270  -11.5704 C   0  0  0  0  0  0  0  0  0  0  0  0
  -14.1464  -36.5625  -12.4928 C   0  0  0  0  0  0  0  0  0  0  0  0
  -14.9952  -36.8399  -13.5337 C   0  0  0  0  0  0  0  0  0  0  0  0
  -15.5583  -38.0953  -13.6163 C   0  0  0  0  0  0  0  0  0  0  0  0
  -15.2654  -39.0506  -12.6607 C   0  0  0  0  0  0  0  0  0  0  0  0
  -13.5617  -35.1915  -12.4187 C   0  0  0  0  0  0  0  0  0  0  0  0
  -12.8483  -34.8241  -13.6892 C   0  0  0  0  0  0  0  0  0  0  0  0
  -12.5185  -35.1321  -11.2990 C   0  0  0  0  0  0  0  0  0  0  0  0
  -14.6326  -34.1803  -12.0812 C   0  0  0  0  0  0  0  0  0  0  0  0
  1  2  1  0
  2  3  1  0
  3  4  1  0
  4  5  2  0
  5  6  1  0
  6  7  2  0
  7  8  1  0
  8  9  2  0
  8 10  1  0
 10 11  2  0
 10 12  1  0
 12 13  1  0
 13 14  1  1
 14 15  1  0
 15 16  1  1
 15 17  1  0
 17 18  1  0
 18 19  1  0
 19 20  1  0
 20 21  1  0
 21 22  1  0
 22 23  1  0
 23 24  1  0
 13 25  1  0
 25 26  1  1
 25 27  1  0
 27 28  1  0
 28 29  1  0
 29 30  1  0
 30 31  1  0
 31 32  1  0
 29 33  1  0
 33 34  2  0
 34 35  1  0
 35 36  2  0
 36 37  1  0
 37 38  2  0
 35 39  1  0
 39 40  1  0
 39 41  1  0
 39 42  1  0
  9  4  1  0
 24  6  1  0
 32 29  1  0
 38 33  1  0
M  END
$$$$
