
     RDKit          3D

 42 45  0  0  0  0  0  0  0  0999 V2000
  -19.9311  -42.1836   -0.4143 C   0  0  0  0  0  0  0  0  0  0  0  0
  -21.0032  -41.9716   -1.2607 O   0  0  0  0  0  0  0  0  0  0  0  0
  -21.0823  -40.6575   -1.7046 C   0  0  0  0  0  0  0  0  0  0  0  0
  -21.0651  -40.6439   -3.2037 C   0  0  0  0  0  0  0  0  0  0  0  0
  -22.2129  -40.6521   -3.9326 C   0  0  0  0  0  0  0  0  0  0  0  0
  -22.2200  -40.6464   -5.3547 C   0  0  0  0  0  0  0  0  0  0  0  0
  -21.0234  -40.6348   -6.0311 C   0  0  0  0  0  0  0  0  0  0  0  0
  -19.8254  -40.6240   -5.3394 C   0  0  0  0  0  0  0  0  0  0  0  0
  -19.9038  -40.6294   -3.9150 C   0  0  0  0  0  0  0  0  0  0  0  0
  -18.4260  -40.5809   -5.8387 C   0  0  0  0  0  0  0  0  0  0  0  0
  -17.6512  -39.8058   -5.0748 O   0  0  0  0  0  0  0  0  0  0  0  0
  -17.7096  -41.1263   -6.8786 N   0  0  0  0  0  0  0  0  0  0  0  0
  -17.9629  -41.1530   -8.3276 C   0  0  1  0  0  0  0  0  0  0  0  0
  -18.6441  -39.9776   -8.8543 C   0  0  0  0  0  0  0  0  0  0  0  0
  -19.8111  -40.1484   -9.7630 C   0  0  2  0  0  0  0  0  0  0  0  0
  -20.1218  -41.4776  -10.3060 C   0  0  0  0  0  0  0  0  0  0  0  0
  -19.7695  -39.1545  -10.9546 C   0  0  0  0  0  0  0  0  0  0  0  0
  -20.9724  -38.2627  -10.8859 C   0  0  0  0  0  0  0  0  0  0  0  0
  -22.2731  -38.9434  -10.6605 C   0  0  0  0  0  0  0  0  0  0  0  0
  -23.0241  -38.3241   -9.4896 C   0  0  0  0  0  0  0  0  0  0  0  0
  -24.2484  -39.1042   -9.1358 C   0  0  0  0  0  0  0  0  0  0  0  0
  -24.0445  -40.2669   -8.2230 C   0  0  0  0  0  0  0  0  0  0  0  0
  -24.2414  -39.8107   -6.8053 C   0  0  0  0  0  0  0  0  0  0  0  0
  -23.5838  -40.6356   -5.8086 N   0  0  0  0  0  0  0  0  0  0  0  0
  -16.5675  -41.2880   -9.0345 C   0  0  2  0  0  0  0  0  0  0  0  0
  -16.4078  -42.7003   -9.0457 O   0  0  0  0  0  0  0  0  0  0  0  0
  -15.4921  -40.5883   -8.3412 C   0  0  0  0  0  0  0  0  0  0  0  0
  -14.3135  -40.3618   -9.0299 N   0  0  0  0  0  0  0  0  0  0  0  0
  -13.7811  -39.1548   -9.4553 C   0  0  0  0  0  0  0  0  0  0  0  0
  -12.2789  -39.4609   -9.8584 C   0  0  0  0  0  0  0  0  0  0  0  0
  -12.0641  -39.4638   -8.4631 O   0  0  0  0  0  0  0  0  0  0  0  0
  -12.9576  -38.3716   -8.4353 C   0  0  0  0  0  0  0  0  0  0  0  0
  -14.3476  -38.3374  -10.5250 C   0  0  0  0  0  0  0  0  0  0  0  0
  -14.0778  -36.9618  -10.5873 C   0  0  0  0  0  0  0  0  0  0  0  0
  -14.6021  -36.1192  -11.5187 C   0  0  0  0  0  0  0  0  0  0  0  0
  -15.4526  -36.6136  -12.4741 C   0  0  0  0  0  0  0  0  0  0  0  0
  -15.7550  -37.9584  -12.4637 C   0  0  0  0  0  0  0  0  0  0  0  0
  -15.2047  -38.7852  -11.5018 C   0  0  0  0  0  0  0  0  0  0  0  0
  -14.3027  -34.6574  -11.5435 C   0  0  0  0  0  0  0  0  0  0  0  0
  -15.0612  -33.9184  -10.4774 C   0  0  0  0  0  0  0  0  0  0  0  0
  -14.7405  -34.0607  -12.8843 C   0  0  0  0  0  0  0  0  0  0  0  0
  -12.8153  -34.4228  -11.4182 C   0  0  0  0  0  0  0  0  0  0  0  0
  1  2  1  0
  2  3  1  0
  3  4  1  0
  4  5  2  0
  5  6  1  0
  6  7  2  0
  7  8  1  0
  8  9  2  0
  8 10  1  0
 10 11  2  0
 10 12  1  0
 12 13  1  0
 13 14  1  6
 14 15  1  0
 15 16  1  6
 15 17  1  0
 17 18  1  0
 18 19  1  0
 19 20  1  0
 20 21  1  0
 21 22  1  0
 22 23  1  0
 23 24  1  0
 13 25  1  0
 25 26  1  1
 25 27  1  0
 27 28  1  0
 28 29  1  0
 29 30  1  0
 30 31  1  0
 31 32  1  0
 29 33  1  0
 33 34  2  0
 34 35  1  0
 35 36  2  0
 36 37  1  0
 37 38  2  0
 35 39  1  0
 39 40  1  0
 39 41  1  0
 39 42  1  0
  9  4  1  0
 24  6  1  0
 32 29  1  0
 38 33  1  0
M  END
$$$$
