
     RDKit          3D

 42 45  0  0  0  0  0  0  0  0999 V2000
  -17.7824  -47.8609  -11.2787 C   0  0  0  0  0  0  0  0  0  0  0  0
  -17.6100  -46.7496  -10.4750 O   0  0  0  0  0  0  0  0  0  0  0  0
  -18.1571  -46.9154   -9.2087 C   0  0  0  0  0  0  0  0  0  0  0  0
  -18.7010  -45.6017   -8.7331 C   0  0  0  0  0  0  0  0  0  0  0  0
  -20.0335  -45.4037   -8.5484 C   0  0  0  0  0  0  0  0  0  0  0  0
  -20.5718  -44.1644   -8.1048 C   0  0  0  0  0  0  0  0  0  0  0  0
  -19.7200  -43.1156   -7.8516 C   0  0  0  0  0  0  0  0  0  0  0  0
  -18.3550  -43.2626   -8.0210 C   0  0  0  0  0  0  0  0  0  0  0  0
  -17.8946  -44.5370   -8.4674 C   0  0  0  0  0  0  0  0  0  0  0  0
  -17.2468  -42.3000   -7.7867 C   0  0  0  0  0  0  0  0  0  0  0  0
  -16.1731  -42.8984   -7.2634 O   0  0  0  0  0  0  0  0  0  0  0  0
  -17.0264  -40.9540   -7.9646 N   0  0  0  0  0  0  0  0  0  0  0  0
  -17.8050  -39.7764   -7.5503 C   0  0  1  0  0  0  0  0  0  0  0  0
  -18.5199  -39.9246   -6.2894 C   0  0  0  0  0  0  0  0  0  0  0  0
  -19.9527  -39.5287   -6.2046 C   0  0  2  0  0  0  0  0  0  0  0  0
  -20.5676  -38.7814   -7.3097 C   0  0  0  0  0  0  0  0  0  0  0  0
  -20.2668  -38.7637   -4.8909 C   0  0  0  0  0  0  0  0  0  0  0  0
  -21.2669  -39.5498   -4.0979 C   0  0  0  0  0  0  0  0  0  0  0  0
  -22.4465  -40.0468   -4.8512 C   0  0  0  0  0  0  0  0  0  0  0  0
  -22.6428  -41.5426   -4.6445 C   0  0  0  0  0  0  0  0  0  0  0  0
  -23.7132  -42.0932   -5.5297 C   0  0  0  0  0  0  0  0  0  0  0  0
  -23.2928  -42.4701   -6.9109 C   0  0  0  0  0  0  0  0  0  0  0  0
  -22.9009  -43.9203   -6.9198 C   0  0  0  0  0  0  0  0  0  0  0  0
  -21.9989  -44.2955   -7.9929 N   0  0  0  0  0  0  0  0  0  0  0  0
  -16.7950  -38.5812   -7.4216 C   0  0  2  0  0  0  0  0  0  0  0  0
  -17.6907  -37.4873   -7.2758 O   0  0  0  0  0  0  0  0  0  0  0  0
  -15.8992  -38.4487   -8.5648 C   0  0  0  0  0  0  0  0  0  0  0  0
  -14.7462  -39.2138   -8.5797 N   0  0  0  0  0  0  0  0  0  0  0  0
  -14.0170  -39.6541   -9.6731 C   0  0  0  0  0  0  0  0  0  0  0  0
  -14.5545  -41.1101   -9.9955 C   0  0  0  0  0  0  0  0  0  0  0  0
  -13.7708  -41.4820   -8.8817 O   0  0  0  0  0  0  0  0  0  0  0  0
  -12.8242  -40.5617   -9.3808 C   0  0  0  0  0  0  0  0  0  0  0  0
  -13.9331  -38.9430  -10.9462 C   0  0  0  0  0  0  0  0  0  0  0  0
  -13.5297  -37.5996  -10.9846 C   0  0  0  0  0  0  0  0  0  0  0  0
  -13.4708  -36.8490  -12.1184 C   0  0  0  0  0  0  0  0  0  0  0  0
  -13.8206  -37.4112  -13.3194 C   0  0  0  0  0  0  0  0  0  0  0  0
  -14.2254  -38.7285  -13.3444 C   0  0  0  0  0  0  0  0  0  0  0  0
  -14.2742  -39.4611  -12.1727 C   0  0  0  0  0  0  0  0  0  0  0  0
  -13.0502  -35.4172  -12.1170 C   0  0  0  0  0  0  0  0  0  0  0  0
  -11.8569  -35.1913  -11.2320 C   0  0  0  0  0  0  0  0  0  0  0  0
  -14.1790  -34.5452  -11.5594 C   0  0  0  0  0  0  0  0  0  0  0  0
  -12.7814  -34.9463  -13.5274 C   0  0  0  0  0  0  0  0  0  0  0  0
  1  2  1  0
  2  3  1  0
  3  4  1  0
  4  5  2  0
  5  6  1  0
  6  7  2  0
  7  8  1  0
  8  9  2  0
  8 10  1  0
 10 11  2  0
 10 12  1  0
 12 13  1  0
 13 14  1  1
 14 15  1  0
 15 16  1  6
 15 17  1  0
 17 18  1  0
 18 19  1  0
 19 20  1  0
 20 21  1  0
 21 22  1  0
 22 23  1  0
 23 24  1  0
 13 25  1  0
 25 26  1  6
 25 27  1  0
 27 28  1  0
 28 29  1  0
 29 30  1  0
 30 31  1  0
 31 32  1  0
 29 33  1  0
 33 34  2  0
 34 35  1  0
 35 36  2  0
 36 37  1  0
 37 38  2  0
 35 39  1  0
 39 40  1  0
 39 41  1  0
 39 42  1  0
  9  4  1  0
 24  6  1  0
 32 29  1  0
 38 33  1  0
M  END
$$$$
