
     RDKit          3D

 42 45  0  0  0  0  0  0  0  0999 V2000
  -23.4540  -38.6008   -3.8707 C   0  0  0  0  0  0  0  0  0  0  0  0
  -23.3715  -39.0809   -5.1643 O   0  0  0  0  0  0  0  0  0  0  0  0
  -23.6927  -40.4295   -5.2557 C   0  0  0  0  0  0  0  0  0  0  0  0
  -22.4978  -41.1861   -5.7532 C   0  0  0  0  0  0  0  0  0  0  0  0
  -22.4406  -42.5439   -5.7070 C   0  0  0  0  0  0  0  0  0  0  0  0
  -21.3150  -43.2815   -6.1668 C   0  0  0  0  0  0  0  0  0  0  0  0
  -20.2334  -42.6047   -6.6784 C   0  0  0  0  0  0  0  0  0  0  0  0
  -20.2390  -41.2232   -6.7507 C   0  0  0  0  0  0  0  0  0  0  0  0
  -21.4059  -40.5577   -6.2703 C   0  0  0  0  0  0  0  0  0  0  0  0
  -19.2180  -40.2830   -7.2826 C   0  0  0  0  0  0  0  0  0  0  0  0
  -19.7783  -39.2588   -7.9322 O   0  0  0  0  0  0  0  0  0  0  0  0
  -17.8463  -40.1812   -7.2861 N   0  0  0  0  0  0  0  0  0  0  0  0
  -16.7992  -41.1421   -7.6664 C   0  0  1  0  0  0  0  0  0  0  0  0
  -17.1587  -42.0457   -8.7514 C   0  0  0  0  0  0  0  0  0  0  0  0
  -16.9026  -43.5055   -8.6092 C   0  0  2  0  0  0  0  0  0  0  0  0
  -16.0856  -43.9952   -7.4909 C   0  0  0  0  0  0  0  0  0  0  0  0
  -16.3302  -44.1242   -9.9127 C   0  0  0  0  0  0  0  0  0  0  0  0
  -17.2897  -45.1567  -10.4229 C   0  0  0  0  0  0  0  0  0  0  0  0
  -17.7947  -46.1266   -9.4177 C   0  0  0  0  0  0  0  0  0  0  0  0
  -19.3158  -46.1937   -9.4316 C   0  0  0  0  0  0  0  0  0  0  0  0
  -19.8484  -47.0279   -8.3122 C   0  0  0  0  0  0  0  0  0  0  0  0
  -20.0197  -46.3352   -7.0018 C   0  0  0  0  0  0  0  0  0  0  0  0
  -21.4186  -45.7940   -6.9185 C   0  0  0  0  0  0  0  0  0  0  0  0
  -21.5828  -44.6836   -5.9985 N   0  0  0  0  0  0  0  0  0  0  0  0
  -15.5441  -40.3046   -8.1005 C   0  0  2  0  0  0  0  0  0  0  0  0
  -15.1123  -39.7975   -6.8449 O   0  0  0  0  0  0  0  0  0  0  0  0
  -15.8469  -39.2617   -9.0740 C   0  0  0  0  0  0  0  0  0  0  0  0
  -14.8539  -38.3468   -9.3770 N   0  0  0  0  0  0  0  0  0  0  0  0
  -14.1648  -38.1845  -10.5688 C   0  0  0  0  0  0  0  0  0  0  0  0
  -14.7002  -39.3190  -11.5378 C   0  0  0  0  0  0  0  0  0  0  0  0
  -13.8687  -40.1597  -10.7664 O   0  0  0  0  0  0  0  0  0  0  0  0
  -12.9522  -39.0865  -10.7875 C   0  0  0  0  0  0  0  0  0  0  0  0
  -14.1393  -36.9455  -11.3418 C   0  0  0  0  0  0  0  0  0  0  0  0
  -14.9799  -35.8759  -10.9981 C   0  0  0  0  0  0  0  0  0  0  0  0
  -15.0557  -34.7070  -11.6913 C   0  0  0  0  0  0  0  0  0  0  0  0
  -14.2723  -34.5291  -12.8028 C   0  0  0  0  0  0  0  0  0  0  0  0
  -13.4256  -35.5457  -13.1896 C   0  0  0  0  0  0  0  0  0  0  0  0
  -13.3753  -36.7204  -12.4620 C   0  0  0  0  0  0  0  0  0  0  0  0
  -15.9739  -33.5967  -11.3027 C   0  0  0  0  0  0  0  0  0  0  0  0
  -15.6544  -33.0674   -9.9330 C   0  0  0  0  0  0  0  0  0  0  0  0
  -17.4154  -34.1109  -11.2469 C   0  0  0  0  0  0  0  0  0  0  0  0
  -15.9354  -32.4957  -12.3367 C   0  0  0  0  0  0  0  0  0  0  0  0
  1  2  1  0
  2  3  1  0
  3  4  1  0
  4  5  2  0
  5  6  1  0
  6  7  2  0
  7  8  1  0
  8  9  2  0
  8 10  1  0
 10 11  2  0
 10 12  1  0
 12 13  1  0
 13 14  1  6
 14 15  1  0
 15 16  1  1
 15 17  1  0
 17 18  1  0
 18 19  1  0
 19 20  1  0
 20 21  1  0
 21 22  1  0
 22 23  1  0
 23 24  1  0
 13 25  1  0
 25 26  1  1
 25 27  1  0
 27 28  1  0
 28 29  1  0
 29 30  1  0
 30 31  1  0
 31 32  1  0
 29 33  1  0
 33 34  2  0
 34 35  1  0
 35 36  2  0
 36 37  1  0
 37 38  2  0
 35 39  1  0
 39 40  1  0
 39 41  1  0
 39 42  1  0
  9  4  1  0
 24  6  1  0
 32 29  1  0
 38 33  1  0
M  END
$$$$
