
     RDKit          3D

 42 45  0  0  0  0  0  0  0  0999 V2000
  -20.4683  -48.8603   -7.5553 C   0  0  0  0  0  0  0  0  0  0  0  0
  -19.4486  -47.9804   -7.2447 O   0  0  0  0  0  0  0  0  0  0  0  0
  -19.6726  -47.3010   -6.0537 C   0  0  0  0  0  0  0  0  0  0  0  0
  -19.9094  -45.8511   -6.3525 C   0  0  0  0  0  0  0  0  0  0  0  0
  -21.0601  -45.2243   -5.9894 C   0  0  0  0  0  0  0  0  0  0  0  0
  -21.3086  -43.8522   -6.2686 C   0  0  0  0  0  0  0  0  0  0  0  0
  -20.3547  -43.1200   -6.9348 C   0  0  0  0  0  0  0  0  0  0  0  0
  -19.1647  -43.7071   -7.3258 C   0  0  0  0  0  0  0  0  0  0  0  0
  -18.9917  -45.0869   -7.0072 C   0  0  0  0  0  0  0  0  0  0  0  0
  -17.9865  -43.1246   -8.0202 C   0  0  0  0  0  0  0  0  0  0  0  0
  -16.8384  -43.6118   -7.5413 O   0  0  0  0  0  0  0  0  0  0  0  0
  -17.7576  -42.2164   -9.0275 N   0  0  0  0  0  0  0  0  0  0  0  0
  -18.2436  -40.8425   -9.2293 C   0  0  1  0  0  0  0  0  0  0  0  0
  -18.4449  -40.0759   -8.0067 C   0  0  0  0  0  0  0  0  0  0  0  0
  -19.7122  -39.3188   -7.8127 C   0  0  2  0  0  0  0  0  0  0  0  0
  -20.6427  -39.1574   -8.9379 C   0  0  0  0  0  0  0  0  0  0  0  0
  -19.4609  -37.9113   -7.2081 C   0  0  0  0  0  0  0  0  0  0  0  0
  -20.1439  -37.8253   -5.8766 C   0  0  0  0  0  0  0  0  0  0  0  0
  -21.5502  -38.3015   -5.8363 C   0  0  0  0  0  0  0  0  0  0  0  0
  -21.7563  -39.3193   -4.7227 C   0  0  0  0  0  0  0  0  0  0  0  0
  -23.1143  -39.9400   -4.7775 C   0  0  0  0  0  0  0  0  0  0  0  0
  -23.2661  -41.1063   -5.6957 C   0  0  0  0  0  0  0  0  0  0  0  0
  -23.0052  -42.3684   -4.9239 C   0  0  0  0  0  0  0  0  0  0  0  0
  -22.5962  -43.4994   -5.7361 N   0  0  0  0  0  0  0  0  0  0  0  0
  -17.1798  -40.1059  -10.1187 C   0  0  2  0  0  0  0  0  0  0  0  0
  -18.0109  -39.5595  -11.1340 O   0  0  0  0  0  0  0  0  0  0  0  0
  -16.1387  -40.9878  -10.6338 C   0  0  0  0  0  0  0  0  0  0  0  0
  -15.1453  -40.4313  -11.4201 N   0  0  0  0  0  0  0  0  0  0  0  0
  -13.7988  -40.2784  -11.1291 C   0  0  0  0  0  0  0  0  0  0  0  0
  -13.1694  -41.7311  -11.2100 C   0  0  0  0  0  0  0  0  0  0  0  0
  -13.7811  -41.9018   -9.9490 O   0  0  0  0  0  0  0  0  0  0  0  0
  -13.3698  -40.5760   -9.6940 C   0  0  0  0  0  0  0  0  0  0  0  0
  -12.8970  -39.3861  -11.8529 C   0  0  0  0  0  0  0  0  0  0  0  0
  -13.1974  -38.0213  -11.9788 C   0  0  0  0  0  0  0  0  0  0  0  0
  -12.4400  -37.1307  -12.6757 C   0  0  0  0  0  0  0  0  0  0  0  0
  -11.3015  -37.5613  -13.3075 C   0  0  0  0  0  0  0  0  0  0  0  0
  -10.9546  -38.8924  -13.2190 C   0  0  0  0  0  0  0  0  0  0  0  0
  -11.7483  -39.7695  -12.5031 C   0  0  0  0  0  0  0  0  0  0  0  0
  -12.8005  -35.6879  -12.7992 C   0  0  0  0  0  0  0  0  0  0  0  0
  -11.7596  -34.8015  -12.1756 C   0  0  0  0  0  0  0  0  0  0  0  0
  -14.1103  -35.4146  -12.0541 C   0  0  0  0  0  0  0  0  0  0  0  0
  -13.0304  -35.3251  -14.2479 C   0  0  0  0  0  0  0  0  0  0  0  0
  1  2  1  0
  2  3  1  0
  3  4  1  0
  4  5  2  0
  5  6  1  0
  6  7  2  0
  7  8  1  0
  8  9  2  0
  8 10  1  0
 10 11  2  0
 10 12  1  0
 12 13  1  0
 13 14  1  1
 14 15  1  0
 15 16  1  6
 15 17  1  0
 17 18  1  0
 18 19  1  0
 19 20  1  0
 20 21  1  0
 21 22  1  0
 22 23  1  0
 23 24  1  0
 13 25  1  0
 25 26  1  6
 25 27  1  0
 27 28  1  0
 28 29  1  0
 29 30  1  0
 30 31  1  0
 31 32  1  0
 29 33  1  0
 33 34  2  0
 34 35  1  0
 35 36  2  0
 36 37  1  0
 37 38  2  0
 35 39  1  0
 39 40  1  0
 39 41  1  0
 39 42  1  0
  9  4  1  0
 24  6  1  0
 32 29  1  0
 38 33  1  0
M  END
$$$$
