
     RDKit          3D

 42 45  0  0  0  0  0  0  0  0999 V2000
  -20.9852  -39.6664  -15.1155 C   0  0  0  0  0  0  0  0  0  0  0  0
  -20.3384  -39.1124  -14.0267 O   0  0  0  0  0  0  0  0  0  0  0  0
  -21.2146  -38.5021  -13.1379 C   0  0  0  0  0  0  0  0  0  0  0  0
  -21.0566  -39.1282  -11.7849 C   0  0  0  0  0  0  0  0  0  0  0  0
  -22.1311  -39.4817  -11.0302 C   0  0  0  0  0  0  0  0  0  0  0  0
  -22.0047  -40.0704   -9.7418 C   0  0  0  0  0  0  0  0  0  0  0  0
  -20.7499  -40.2937   -9.2268 C   0  0  0  0  0  0  0  0  0  0  0  0
  -19.6221  -39.9550   -9.9527 C   0  0  0  0  0  0  0  0  0  0  0  0
  -19.8337  -39.3704  -11.2366 C   0  0  0  0  0  0  0  0  0  0  0  0
  -18.1814  -40.1233   -9.6273 C   0  0  0  0  0  0  0  0  0  0  0  0
  -17.4687  -40.4739  -10.7014 O   0  0  0  0  0  0  0  0  0  0  0  0
  -17.3801  -40.0145   -8.5147 N   0  0  0  0  0  0  0  0  0  0  0  0
  -17.4968  -40.5980   -7.1692 C   0  0  1  0  0  0  0  0  0  0  0  0
  -18.1057  -41.9210   -7.1237 C   0  0  0  0  0  0  0  0  0  0  0  0
  -19.1851  -42.2011   -6.1371 C   0  0  2  0  0  0  0  0  0  0  0  0
  -19.4658  -41.2305   -5.0709 C   0  0  0  0  0  0  0  0  0  0  0  0
  -19.0151  -43.5924   -5.4701 C   0  0  0  0  0  0  0  0  0  0  0  0
  -20.2039  -44.4412   -5.8066 C   0  0  0  0  0  0  0  0  0  0  0  0
  -21.5313  -43.7994   -5.6277 C   0  0  0  0  0  0  0  0  0  0  0  0
  -22.3783  -43.9237   -6.8871 C   0  0  0  0  0  0  0  0  0  0  0  0
  -23.6433  -43.1346   -6.7896 C   0  0  0  0  0  0  0  0  0  0  0  0
  -23.5455  -41.6908   -7.1533 C   0  0  0  0  0  0  0  0  0  0  0  0
  -23.8668  -41.5354   -8.6125 C   0  0  0  0  0  0  0  0  0  0  0  0
  -23.3196  -40.3401   -9.2274 N   0  0  0  0  0  0  0  0  0  0  0  0
  -16.0438  -40.6895   -6.5815 C   0  0  2  0  0  0  0  0  0  0  0  0
  -16.2369  -40.1126   -5.2970 O   0  0  0  0  0  0  0  0  0  0  0  0
  -15.0446  -39.9945   -7.3850 C   0  0  0  0  0  0  0  0  0  0  0  0
  -15.3927  -38.7787   -7.9467 N   0  0  0  0  0  0  0  0  0  0  0  0
  -15.3302  -38.3933   -9.2767 C   0  0  0  0  0  0  0  0  0  0  0  0
  -15.2372  -39.7361  -10.1139 C   0  0  0  0  0  0  0  0  0  0  0  0
  -13.8916  -39.7315   -9.6864 O   0  0  0  0  0  0  0  0  0  0  0  0
  -13.9417  -38.3388   -9.9098 C   0  0  0  0  0  0  0  0  0  0  0  0
  -16.3249  -37.5517   -9.9367 C   0  0  0  0  0  0  0  0  0  0  0  0
  -16.1213  -37.1096  -11.2527 C   0  0  0  0  0  0  0  0  0  0  0  0
  -16.9707  -36.2852  -11.9246 C   0  0  0  0  0  0  0  0  0  0  0  0
  -18.1101  -35.8394  -11.3051 C   0  0  0  0  0  0  0  0  0  0  0  0
  -18.3642  -36.2406  -10.0111 C   0  0  0  0  0  0  0  0  0  0  0  0
  -17.4785  -37.0782   -9.3585 C   0  0  0  0  0  0  0  0  0  0  0  0
  -16.7121  -35.8244  -13.3202 C   0  0  0  0  0  0  0  0  0  0  0  0
  -17.9889  -35.6656  -14.0966 C   0  0  0  0  0  0  0  0  0  0  0  0
  -15.8750  -36.8685  -14.0648 C   0  0  0  0  0  0  0  0  0  0  0  0
  -15.9148  -34.5409  -13.3113 C   0  0  0  0  0  0  0  0  0  0  0  0
  1  2  1  0
  2  3  1  0
  3  4  1  0
  4  5  2  0
  5  6  1  0
  6  7  2  0
  7  8  1  0
  8  9  2  0
  8 10  1  0
 10 11  2  0
 10 12  1  0
 12 13  1  0
 13 14  1  6
 14 15  1  0
 15 16  1  1
 15 17  1  0
 17 18  1  0
 18 19  1  0
 19 20  1  0
 20 21  1  0
 21 22  1  0
 22 23  1  0
 23 24  1  0
 13 25  1  0
 25 26  1  1
 25 27  1  0
 27 28  1  0
 28 29  1  0
 29 30  1  0
 30 31  1  0
 31 32  1  0
 29 33  1  0
 33 34  2  0
 34 35  1  0
 35 36  2  0
 36 37  1  0
 37 38  2  0
 35 39  1  0
 39 40  1  0
 39 41  1  0
 39 42  1  0
  9  4  1  0
 24  6  1  0
 32 29  1  0
 38 33  1  0
M  END
$$$$
