
     RDKit          3D

 42 45  0  0  0  0  0  0  0  0999 V2000
  -18.1799  -49.0105   -6.9769 C   0  0  0  0  0  0  0  0  0  0  0  0
  -18.5380  -47.7165   -7.3053 O   0  0  0  0  0  0  0  0  0  0  0  0
  -19.9148  -47.5322   -7.3285 C   0  0  0  0  0  0  0  0  0  0  0  0
  -20.2161  -46.0677   -7.2178 C   0  0  0  0  0  0  0  0  0  0  0  0
  -21.4903  -45.6054   -7.1102 C   0  0  0  0  0  0  0  0  0  0  0  0
  -21.7994  -44.2209   -7.0110 C   0  0  0  0  0  0  0  0  0  0  0  0
  -20.7765  -43.3027   -7.0261 C   0  0  0  0  0  0  0  0  0  0  0  0
  -19.4612  -43.7180   -7.1317 C   0  0  0  0  0  0  0  0  0  0  0  0
  -19.2348  -45.1234   -7.2256 C   0  0  0  0  0  0  0  0  0  0  0  0
  -18.2006  -42.9302   -7.1391 C   0  0  0  0  0  0  0  0  0  0  0  0
  -17.2273  -43.5467   -6.4629 O   0  0  0  0  0  0  0  0  0  0  0  0
  -17.7631  -41.7333   -7.6567 N   0  0  0  0  0  0  0  0  0  0  0  0
  -18.3202  -40.3742   -7.5734 C   0  0  1  0  0  0  0  0  0  0  0  0
  -19.0115  -40.0685   -6.3277 C   0  0  0  0  0  0  0  0  0  0  0  0
  -20.3543  -39.4267   -6.3693 C   0  0  2  0  0  0  0  0  0  0  0  0
  -20.8683  -38.8966   -7.6393 C   0  0  0  0  0  0  0  0  0  0  0  0
  -20.4958  -38.3068   -5.3037 C   0  0  0  0  0  0  0  0  0  0  0  0
  -21.5891  -38.6800   -4.3486 C   0  0  0  0  0  0  0  0  0  0  0  0
  -22.8577  -39.1468   -4.9642 C   0  0  0  0  0  0  0  0  0  0  0  0
  -23.2957  -40.4828   -4.3796 C   0  0  0  0  0  0  0  0  0  0  0  0
  -24.4695  -41.0530   -5.1072 C   0  0  0  0  0  0  0  0  0  0  0  0
  -24.1603  -41.8392   -6.3371 C   0  0  0  0  0  0  0  0  0  0  0  0
  -24.0177  -43.2874   -5.9639 C   0  0  0  0  0  0  0  0  0  0  0  0
  -23.2242  -44.0743   -6.8897 N   0  0  0  0  0  0  0  0  0  0  0  0
  -17.1206  -39.3757   -7.7444 C   0  0  2  0  0  0  0  0  0  0  0  0
  -17.8132  -38.1760   -8.0622 O   0  0  0  0  0  0  0  0  0  0  0  0
  -16.1648  -39.7821   -8.7682 C   0  0  0  0  0  0  0  0  0  0  0  0
  -14.8555  -40.0096   -8.3820 N   0  0  0  0  0  0  0  0  0  0  0  0
  -13.7149  -40.0296   -9.1693 C   0  0  0  0  0  0  0  0  0  0  0  0
  -13.2722  -41.5494   -9.2535 C   0  0  0  0  0  0  0  0  0  0  0  0
  -12.7892  -41.3239   -7.9462 O   0  0  0  0  0  0  0  0  0  0  0  0
  -12.3763  -40.0660   -8.4353 C   0  0  0  0  0  0  0  0  0  0  0  0
  -13.6420  -39.4923  -10.5255 C   0  0  0  0  0  0  0  0  0  0  0  0
  -13.4140  -38.1240  -10.7365 C   0  0  0  0  0  0  0  0  0  0  0  0
  -13.3800  -37.5326  -11.9620 C   0  0  0  0  0  0  0  0  0  0  0  0
  -13.5763  -38.2944  -13.0852 C   0  0  0  0  0  0  0  0  0  0  0  0
  -13.8049  -39.6460  -12.9406 C   0  0  0  0  0  0  0  0  0  0  0  0
  -13.8337  -40.2132  -11.6800 C   0  0  0  0  0  0  0  0  0  0  0  0
  -13.1490  -36.0697  -12.1455 C   0  0  0  0  0  0  0  0  0  0  0  0
  -12.9970  -35.7107  -13.5967 C   0  0  0  0  0  0  0  0  0  0  0  0
  -11.8448  -35.6596  -11.4552 C   0  0  0  0  0  0  0  0  0  0  0  0
  -14.2611  -35.2763  -11.4998 C   0  0  0  0  0  0  0  0  0  0  0  0
  1  2  1  0
  2  3  1  0
  3  4  1  0
  4  5  2  0
  5  6  1  0
  6  7  2  0
  7  8  1  0
  8  9  2  0
  8 10  1  0
 10 11  2  0
 10 12  1  0
 12 13  1  0
 13 14  1  1
 14 15  1  0
 15 16  1  6
 15 17  1  0
 17 18  1  0
 18 19  1  0
 19 20  1  0
 20 21  1  0
 21 22  1  0
 22 23  1  0
 23 24  1  0
 13 25  1  0
 25 26  1  6
 25 27  1  0
 27 28  1  0
 28 29  1  0
 29 30  1  0
 30 31  1  0
 31 32  1  0
 29 33  1  0
 33 34  2  0
 34 35  1  0
 35 36  2  0
 36 37  1  0
 37 38  2  0
 35 39  1  0
 39 40  1  0
 39 41  1  0
 39 42  1  0
  9  4  1  0
 24  6  1  0
 32 29  1  0
 38 33  1  0
M  END
$$$$
