
     RDKit          3D

 42 45  0  0  0  0  0  0  0  0999 V2000
  -23.1744  -38.1164   -4.2008 C   0  0  0  0  0  0  0  0  0  0  0  0
  -23.9289  -39.1899   -4.6355 O   0  0  0  0  0  0  0  0  0  0  0  0
  -23.8588  -39.3707   -6.0112 C   0  0  0  0  0  0  0  0  0  0  0  0
  -22.7611  -40.3431   -6.3232 C   0  0  0  0  0  0  0  0  0  0  0  0
  -22.9277  -41.6838   -6.1693 C   0  0  0  0  0  0  0  0  0  0  0  0
  -21.8984  -42.6233   -6.4526 C   0  0  0  0  0  0  0  0  0  0  0  0
  -20.6800  -42.1690   -6.8983 C   0  0  0  0  0  0  0  0  0  0  0  0
  -20.4566  -40.8153   -7.0746 C   0  0  0  0  0  0  0  0  0  0  0  0
  -21.5398  -39.9384   -6.7697 C   0  0  0  0  0  0  0  0  0  0  0  0
  -19.2534  -40.0942   -7.5665 C   0  0  0  0  0  0  0  0  0  0  0  0
  -19.5801  -39.0597   -8.3462 O   0  0  0  0  0  0  0  0  0  0  0  0
  -17.8886  -40.2040   -7.4350 N   0  0  0  0  0  0  0  0  0  0  0  0
  -16.9797  -41.3442   -7.6307 C   0  0  1  0  0  0  0  0  0  0  0  0
  -17.3799  -42.2769   -8.6762 C   0  0  0  0  0  0  0  0  0  0  0  0
  -17.3762  -43.7397   -8.3986 C   0  0  2  0  0  0  0  0  0  0  0  0
  -16.7537  -44.2450   -7.1678 C   0  0  0  0  0  0  0  0  0  0  0  0
  -16.7947  -44.5542   -9.5852 C   0  0  0  0  0  0  0  0  0  0  0  0
  -17.8575  -45.4699  -10.1133 C   0  0  0  0  0  0  0  0  0  0  0  0
  -18.6013  -46.2560   -9.0961 C   0  0  0  0  0  0  0  0  0  0  0  0
  -20.1058  -46.0909   -9.2631 C   0  0  0  0  0  0  0  0  0  0  0  0
  -20.8653  -46.7288   -8.1457 C   0  0  0  0  0  0  0  0  0  0  0  0
  -21.0412  -45.9021   -6.9160 C   0  0  0  0  0  0  0  0  0  0  0  0
  -22.3364  -45.1482   -7.0198 C   0  0  0  0  0  0  0  0  0  0  0  0
  -22.4027  -43.9470   -6.2081 N   0  0  0  0  0  0  0  0  0  0  0  0
  -15.5719  -40.7512   -7.9937 C   0  0  2  0  0  0  0  0  0  0  0  0
  -15.5036  -39.6524   -7.0948 O   0  0  0  0  0  0  0  0  0  0  0  0
  -15.4455  -40.3636   -9.3939 C   0  0  0  0  0  0  0  0  0  0  0  0
  -14.6413  -39.2795   -9.6986 N   0  0  0  0  0  0  0  0  0  0  0  0
  -13.7048  -39.1581  -10.7132 C   0  0  0  0  0  0  0  0  0  0  0  0
  -13.9540  -40.3867  -11.6834 C   0  0  0  0  0  0  0  0  0  0  0  0
  -13.2864  -41.1207  -10.6791 O   0  0  0  0  0  0  0  0  0  0  0  0
  -12.4367  -39.9982  -10.5792 C   0  0  0  0  0  0  0  0  0  0  0  0
  -13.5558  -37.9758  -11.5579 C   0  0  0  0  0  0  0  0  0  0  0  0
  -13.6233  -36.6903  -10.9995 C   0  0  0  0  0  0  0  0  0  0  0  0
  -13.5438  -35.5372  -11.7182 C   0  0  0  0  0  0  0  0  0  0  0  0
  -13.3864  -35.5992  -13.0791 C   0  0  0  0  0  0  0  0  0  0  0  0
  -13.3133  -36.8353  -13.6847 C   0  0  0  0  0  0  0  0  0  0  0  0
  -13.3987  -37.9863  -12.9233 C   0  0  0  0  0  0  0  0  0  0  0  0
  -13.6345  -34.1869  -11.0894 C   0  0  0  0  0  0  0  0  0  0  0  0
  -14.9209  -34.0139  -10.3320 C   0  0  0  0  0  0  0  0  0  0  0  0
  -13.6180  -33.1067  -12.1749 C   0  0  0  0  0  0  0  0  0  0  0  0
  -12.4388  -33.9395  -10.1993 C   0  0  0  0  0  0  0  0  0  0  0  0
  1  2  1  0
  2  3  1  0
  3  4  1  0
  4  5  2  0
  5  6  1  0
  6  7  2  0
  7  8  1  0
  8  9  2  0
  8 10  1  0
 10 11  2  0
 10 12  1  0
 12 13  1  0
 13 14  1  6
 14 15  1  0
 15 16  1  1
 15 17  1  0
 17 18  1  0
 18 19  1  0
 19 20  1  0
 20 21  1  0
 21 22  1  0
 22 23  1  0
 23 24  1  0
 13 25  1  0
 25 26  1  1
 25 27  1  0
 27 28  1  0
 28 29  1  0
 29 30  1  0
 30 31  1  0
 31 32  1  0
 29 33  1  0
 33 34  2  0
 34 35  1  0
 35 36  2  0
 36 37  1  0
 37 38  2  0
 35 39  1  0
 39 40  1  0
 39 41  1  0
 39 42  1  0
  9  4  1  0
 24  6  1  0
 32 29  1  0
 38 33  1  0
M  END
$$$$
