
     RDKit          3D

 42 45  0  0  0  0  0  0  0  0999 V2000
  -17.7877  -48.4284   -4.7372 C   0  0  0  0  0  0  0  0  0  0  0  0
  -17.7554  -47.0469   -4.7048 O   0  0  0  0  0  0  0  0  0  0  0  0
  -18.8718  -46.5002   -4.0844 C   0  0  0  0  0  0  0  0  0  0  0  0
  -19.3707  -45.3457   -4.9004 C   0  0  0  0  0  0  0  0  0  0  0  0
  -20.6984  -45.0837   -5.0326 C   0  0  0  0  0  0  0  0  0  0  0  0
  -21.1940  -43.9986   -5.8068 C   0  0  0  0  0  0  0  0  0  0  0  0
  -20.3039  -43.1756   -6.4548 C   0  0  0  0  0  0  0  0  0  0  0  0
  -18.9419  -43.3951   -6.3530 C   0  0  0  0  0  0  0  0  0  0  0  0
  -18.5256  -44.5032   -5.5567 C   0  0  0  0  0  0  0  0  0  0  0  0
  -17.7991  -42.6373   -6.9269 C   0  0  0  0  0  0  0  0  0  0  0  0
  -16.7754  -42.5618   -6.0720 O   0  0  0  0  0  0  0  0  0  0  0  0
  -17.5091  -41.9906   -8.1058 N   0  0  0  0  0  0  0  0  0  0  0  0
  -18.2463  -40.9662   -8.8618 C   0  0  1  0  0  0  0  0  0  0  0  0
  -19.0145  -40.0345   -8.0465 C   0  0  0  0  0  0  0  0  0  0  0  0
  -20.4292  -39.7375   -8.4032 C   0  0  2  0  0  0  0  0  0  0  0  0
  -20.9661  -40.1953   -9.6916 C   0  0  0  0  0  0  0  0  0  0  0  0
  -20.7562  -38.2258   -8.2710 C   0  0  0  0  0  0  0  0  0  0  0  0
  -21.8214  -38.0480   -7.2314 C   0  0  0  0  0  0  0  0  0  0  0  0
  -22.9939  -38.9530   -7.3420 C   0  0  0  0  0  0  0  0  0  0  0  0
  -23.2681  -39.6642   -6.0238 C   0  0  0  0  0  0  0  0  0  0  0  0
  -24.3291  -40.7071   -6.1619 C   0  0  0  0  0  0  0  0  0  0  0  0
  -23.8752  -42.0453   -6.6410 C   0  0  0  0  0  0  0  0  0  0  0  0
  -23.5521  -42.9026   -5.4504 C   0  0  0  0  0  0  0  0  0  0  0  0
  -22.6289  -43.9891   -5.7214 N   0  0  0  0  0  0  0  0  0  0  0  0
  -17.1867  -40.1576   -9.6916 C   0  0  2  0  0  0  0  0  0  0  0  0
  -16.9684  -41.0419  -10.7827 O   0  0  0  0  0  0  0  0  0  0  0  0
  -15.9732  -39.8482   -8.9442 C   0  0  0  0  0  0  0  0  0  0  0  0
  -14.7580  -39.9838   -9.5921 N   0  0  0  0  0  0  0  0  0  0  0  0
  -13.8107  -39.0086   -9.8625 C   0  0  0  0  0  0  0  0  0  0  0  0
  -12.4301  -39.7734  -10.0096 C   0  0  0  0  0  0  0  0  0  0  0  0
  -12.4825  -39.8268   -8.5997 O   0  0  0  0  0  0  0  0  0  0  0  0
  -12.9839  -38.5099   -8.6795 C   0  0  0  0  0  0  0  0  0  0  0  0
  -13.8937  -38.0679  -10.9767 C   0  0  0  0  0  0  0  0  0  0  0  0
  -13.6002  -36.7095  -10.7833 C   0  0  0  0  0  0  0  0  0  0  0  0
  -13.6988  -35.7584  -11.7519 C   0  0  0  0  0  0  0  0  0  0  0  0
  -14.1079  -36.1166  -13.0109 C   0  0  0  0  0  0  0  0  0  0  0  0
  -14.4103  -37.4379  -13.2612 C   0  0  0  0  0  0  0  0  0  0  0  0
  -14.2996  -38.3774  -12.2528 C   0  0  0  0  0  0  0  0  0  0  0  0
  -13.3916  -34.3193  -11.5036 C   0  0  0  0  0  0  0  0  0  0  0  0
  -12.2073  -33.8593  -12.3061 C   0  0  0  0  0  0  0  0  0  0  0  0
  -13.0278  -34.1129  -10.0304 C   0  0  0  0  0  0  0  0  0  0  0  0
  -14.6065  -33.4659  -11.7842 C   0  0  0  0  0  0  0  0  0  0  0  0
  1  2  1  0
  2  3  1  0
  3  4  1  0
  4  5  2  0
  5  6  1  0
  6  7  2  0
  7  8  1  0
  8  9  2  0
  8 10  1  0
 10 11  2  0
 10 12  1  0
 12 13  1  0
 13 14  1  1
 14 15  1  0
 15 16  1  6
 15 17  1  0
 17 18  1  0
 18 19  1  0
 19 20  1  0
 20 21  1  0
 21 22  1  0
 22 23  1  0
 23 24  1  0
 13 25  1  0
 25 26  1  6
 25 27  1  0
 27 28  1  0
 28 29  1  0
 29 30  1  0
 30 31  1  0
 31 32  1  0
 29 33  1  0
 33 34  2  0
 34 35  1  0
 35 36  2  0
 36 37  1  0
 37 38  2  0
 35 39  1  0
 39 40  1  0
 39 41  1  0
 39 42  1  0
  9  4  1  0
 24  6  1  0
 32 29  1  0
 38 33  1  0
M  END
$$$$
