
     RDKit          3D

 42 45  0  0  0  0  0  0  0  0999 V2000
  -21.9389  -37.3421  -14.9979 C   0  0  0  0  0  0  0  0  0  0  0  0
  -20.8413  -37.6993  -14.2374 O   0  0  0  0  0  0  0  0  0  0  0  0
  -20.8566  -39.0398  -13.8729 C   0  0  0  0  0  0  0  0  0  0  0  0
  -20.7189  -39.1452  -12.3837 C   0  0  0  0  0  0  0  0  0  0  0  0
  -21.7824  -38.9781  -11.5531 C   0  0  0  0  0  0  0  0  0  0  0  0
  -21.6734  -39.0668  -10.1380 C   0  0  0  0  0  0  0  0  0  0  0  0
  -20.4470  -39.3293   -9.5751 C   0  0  0  0  0  0  0  0  0  0  0  0
  -19.3318  -39.5099  -10.3733 C   0  0  0  0  0  0  0  0  0  0  0  0
  -19.5248  -39.4064  -11.7830 C   0  0  0  0  0  0  0  0  0  0  0  0
  -17.9270  -39.8286  -10.0067 C   0  0  0  0  0  0  0  0  0  0  0  0
  -17.3705  -40.6814  -10.8714 O   0  0  0  0  0  0  0  0  0  0  0  0
  -17.0407  -39.4807   -9.0139 N   0  0  0  0  0  0  0  0  0  0  0  0
  -17.1649  -39.4958   -7.5480 C   0  0  1  0  0  0  0  0  0  0  0  0
  -18.0017  -40.5619   -7.0130 C   0  0  0  0  0  0  0  0  0  0  0  0
  -19.0398  -40.2422   -5.9947 C   0  0  2  0  0  0  0  0  0  0  0  0
  -19.0593  -38.9138   -5.3680 C   0  0  0  0  0  0  0  0  0  0  0  0
  -19.0807  -41.2969   -4.8564 C   0  0  0  0  0  0  0  0  0  0  0  0
  -20.4265  -41.9570   -4.8535 C   0  0  0  0  0  0  0  0  0  0  0  0
  -21.5968  -41.0456   -4.9289 C   0  0  0  0  0  0  0  0  0  0  0  0
  -22.5411  -41.4521   -6.0521 C   0  0  0  0  0  0  0  0  0  0  0  0
  -23.6290  -40.4489   -6.2579 C   0  0  0  0  0  0  0  0  0  0  0  0
  -23.2941  -39.2883   -7.1339 C   0  0  0  0  0  0  0  0  0  0  0  0
  -23.6862  -39.6177   -8.5462 C   0  0  0  0  0  0  0  0  0  0  0  0
  -22.9746  -38.8639   -9.5619 N   0  0  0  0  0  0  0  0  0  0  0  0
  -15.7148  -39.6510   -6.9666 C   0  0  2  0  0  0  0  0  0  0  0  0
  -15.7571  -38.7253   -5.8890 O   0  0  0  0  0  0  0  0  0  0  0  0
  -14.6637  -39.3645   -7.9362 C   0  0  0  0  0  0  0  0  0  0  0  0
  -14.1242  -40.4249   -8.6430 N   0  0  0  0  0  0  0  0  0  0  0  0
  -13.2172  -40.3911   -9.6906 C   0  0  0  0  0  0  0  0  0  0  0  0
  -12.9025  -41.9046  -10.0414 C   0  0  0  0  0  0  0  0  0  0  0  0
  -12.0982  -41.8481   -8.8825 O   0  0  0  0  0  0  0  0  0  0  0  0
  -11.7434  -40.5562   -9.3266 C   0  0  0  0  0  0  0  0  0  0  0  0
  -13.4497  -39.7029  -10.9578 C   0  0  0  0  0  0  0  0  0  0  0  0
  -13.2440  -38.3190  -11.0632 C   0  0  0  0  0  0  0  0  0  0  0  0
  -13.4824  -37.5921  -12.1890 C   0  0  0  0  0  0  0  0  0  0  0  0
  -13.9538  -38.2219  -13.3123 C   0  0  0  0  0  0  0  0  0  0  0  0
  -14.1751  -39.5817  -13.2691 C   0  0  0  0  0  0  0  0  0  0  0  0
  -13.9228  -40.2885  -12.1078 C   0  0  0  0  0  0  0  0  0  0  0  0
  -13.2651  -36.1173  -12.2580 C   0  0  0  0  0  0  0  0  0  0  0  0
  -12.0141  -35.7072  -11.5333 C   0  0  0  0  0  0  0  0  0  0  0  0
  -14.4253  -35.3891  -11.5731 C   0  0  0  0  0  0  0  0  0  0  0  0
  -13.2394  -35.6559  -13.6966 C   0  0  0  0  0  0  0  0  0  0  0  0
  1  2  1  0
  2  3  1  0
  3  4  1  0
  4  5  2  0
  5  6  1  0
  6  7  2  0
  7  8  1  0
  8  9  2  0
  8 10  1  0
 10 11  2  0
 10 12  1  0
 12 13  1  0
 13 14  1  6
 14 15  1  0
 15 16  1  1
 15 17  1  0
 17 18  1  0
 18 19  1  0
 19 20  1  0
 20 21  1  0
 21 22  1  0
 22 23  1  0
 23 24  1  0
 13 25  1  0
 25 26  1  1
 25 27  1  0
 27 28  1  0
 28 29  1  0
 29 30  1  0
 30 31  1  0
 31 32  1  0
 29 33  1  0
 33 34  2  0
 34 35  1  0
 35 36  2  0
 36 37  1  0
 37 38  2  0
 35 39  1  0
 39 40  1  0
 39 41  1  0
 39 42  1  0
  9  4  1  0
 24  6  1  0
 32 29  1  0
 38 33  1  0
M  END
$$$$
