
     RDKit          3D

 42 45  0  0  0  0  0  0  0  0999 V2000
  -23.7356  -43.6063   -4.2645 C   0  0  0  0  0  0  0  0  0  0  0  0
  -23.3398  -42.4395   -4.8910 O   0  0  0  0  0  0  0  0  0  0  0  0
  -23.2417  -42.5795   -6.2697 C   0  0  0  0  0  0  0  0  0  0  0  0
  -21.8032  -42.7792   -6.6418 C   0  0  0  0  0  0  0  0  0  0  0  0
  -21.2121  -44.0024   -6.5833 C   0  0  0  0  0  0  0  0  0  0  0  0
  -19.8479  -44.2136   -6.9248 C   0  0  0  0  0  0  0  0  0  0  0  0
  -19.0847  -43.1442   -7.3296 C   0  0  0  0  0  0  0  0  0  0  0  0
  -19.6358  -41.8779   -7.4091 C   0  0  0  0  0  0  0  0  0  0  0  0
  -21.0107  -41.7498   -7.0507 C   0  0  0  0  0  0  0  0  0  0  0  0
  -19.0314  -40.5905   -7.8413 C   0  0  0  0  0  0  0  0  0  0  0  0
  -19.8913  -39.8523   -8.5486 O   0  0  0  0  0  0  0  0  0  0  0  0
  -17.8211  -39.9504   -7.7086 N   0  0  0  0  0  0  0  0  0  0  0  0
  -16.4465  -40.4004   -7.9777 C   0  0  1  0  0  0  0  0  0  0  0  0
  -16.3116  -41.3335   -9.0886 C   0  0  0  0  0  0  0  0  0  0  0  0
  -15.5074  -42.5744   -8.9142 C   0  0  2  0  0  0  0  0  0  0  0  0
  -14.6709  -42.7370   -7.7177 C   0  0  0  0  0  0  0  0  0  0  0  0
  -14.6163  -42.8673  -10.1510 C   0  0  0  0  0  0  0  0  0  0  0  0
  -15.0305  -44.1779  -10.7491 C   0  0  0  0  0  0  0  0  0  0  0  0
  -15.1967  -45.3035   -9.7944 C   0  0  0  0  0  0  0  0  0  0  0  0
  -16.5555  -45.9708   -9.9595 C   0  0  0  0  0  0  0  0  0  0  0  0
  -16.8118  -46.9870   -8.8946 C   0  0  0  0  0  0  0  0  0  0  0  0
  -17.3674  -46.4666   -7.6112 C   0  0  0  0  0  0  0  0  0  0  0  0
  -18.8671  -46.5310   -7.6705 C   0  0  0  0  0  0  0  0  0  0  0  0
  -19.5469  -45.6113   -6.7771 N   0  0  0  0  0  0  0  0  0  0  0  0
  -15.5967  -39.1174   -8.2888 C   0  0  2  0  0  0  0  0  0  0  0  0
  -14.6704  -39.1410   -7.2112 O   0  0  0  0  0  0  0  0  0  0  0  0
  -16.3878  -37.8935   -8.3467 C   0  0  0  0  0  0  0  0  0  0  0  0
  -16.4148  -37.1923   -9.5394 N   0  0  0  0  0  0  0  0  0  0  0  0
  -17.5162  -36.7648  -10.2642 C   0  0  0  0  0  0  0  0  0  0  0  0
  -17.0622  -36.7621  -11.7829 C   0  0  0  0  0  0  0  0  0  0  0  0
  -16.3967  -35.5696  -11.4246 O   0  0  0  0  0  0  0  0  0  0  0  0
  -17.5474  -35.2894  -10.6568 C   0  0  0  0  0  0  0  0  0  0  0  0
  -18.8297  -37.4018  -10.2167 C   0  0  0  0  0  0  0  0  0  0  0  0
  -19.7014  -37.1542   -9.1454 C   0  0  0  0  0  0  0  0  0  0  0  0
  -20.9203  -37.7416   -8.9974 C   0  0  0  0  0  0  0  0  0  0  0  0
  -21.3567  -38.6381   -9.9389 C   0  0  0  0  0  0  0  0  0  0  0  0
  -20.5432  -38.9216  -11.0150 C   0  0  0  0  0  0  0  0  0  0  0  0
  -19.3104  -38.3067  -11.1328 C   0  0  0  0  0  0  0  0  0  0  0  0
  -21.8139  -37.4635   -7.8350 C   0  0  0  0  0  0  0  0  0  0  0  0
  -21.0399  -36.9607   -6.6492 C   0  0  0  0  0  0  0  0  0  0  0  0
  -22.5040  -38.7562   -7.3900 C   0  0  0  0  0  0  0  0  0  0  0  0
  -22.9025  -36.4924   -8.2288 C   0  0  0  0  0  0  0  0  0  0  0  0
  1  2  1  0
  2  3  1  0
  3  4  1  0
  4  5  2  0
  5  6  1  0
  6  7  2  0
  7  8  1  0
  8  9  2  0
  8 10  1  0
 10 11  2  0
 10 12  1  0
 12 13  1  0
 13 14  1  6
 14 15  1  0
 15 16  1  1
 15 17  1  0
 17 18  1  0
 18 19  1  0
 19 20  1  0
 20 21  1  0
 21 22  1  0
 22 23  1  0
 23 24  1  0
 13 25  1  0
 25 26  1  1
 25 27  1  0
 27 28  1  0
 28 29  1  0
 29 30  1  0
 30 31  1  0
 31 32  1  0
 29 33  1  0
 33 34  2  0
 34 35  1  0
 35 36  2  0
 36 37  1  0
 37 38  2  0
 35 39  1  0
 39 40  1  0
 39 41  1  0
 39 42  1  0
  9  4  1  0
 24  6  1  0
 32 29  1  0
 38 33  1  0
M  END
$$$$
