
     RDKit          3D

 42 45  0  0  0  0  0  0  0  0999 V2000
  -21.1941  -37.0545  -14.6336 C   0  0  0  0  0  0  0  0  0  0  0  0
  -20.2027  -38.0168  -14.5925 O   0  0  0  0  0  0  0  0  0  0  0  0
  -20.6614  -39.2371  -14.1125 C   0  0  0  0  0  0  0  0  0  0  0  0
  -20.5253  -39.2600  -12.6196 C   0  0  0  0  0  0  0  0  0  0  0  0
  -21.5953  -39.0777  -11.8006 C   0  0  0  0  0  0  0  0  0  0  0  0
  -21.4881  -39.0886  -10.3826 C   0  0  0  0  0  0  0  0  0  0  0  0
  -20.2568  -39.2882   -9.8048 C   0  0  0  0  0  0  0  0  0  0  0  0
  -19.1349  -39.4810  -10.5907 C   0  0  0  0  0  0  0  0  0  0  0  0
  -19.3265  -39.4572  -12.0042 C   0  0  0  0  0  0  0  0  0  0  0  0
  -17.7232  -39.7424  -10.2056 C   0  0  0  0  0  0  0  0  0  0  0  0
  -17.1418  -40.6246  -11.0232 O   0  0  0  0  0  0  0  0  0  0  0  0
  -16.8493  -39.3191   -9.2313 N   0  0  0  0  0  0  0  0  0  0  0  0
  -16.9774  -39.2601   -7.7669 C   0  0  1  0  0  0  0  0  0  0  0  0
  -17.7872  -40.3183   -7.1775 C   0  0  0  0  0  0  0  0  0  0  0  0
  -18.8363  -39.9731   -6.1790 C   0  0  2  0  0  0  0  0  0  0  0  0
  -18.8929  -38.6144   -5.6235 C   0  0  0  0  0  0  0  0  0  0  0  0
  -18.8525  -40.9669   -4.9867 C   0  0  0  0  0  0  0  0  0  0  0  0
  -20.1803  -41.6615   -4.9509 C   0  0  0  0  0  0  0  0  0  0  0  0
  -21.3742  -40.7868   -5.0762 C   0  0  0  0  0  0  0  0  0  0  0  0
  -22.3041  -41.2771   -6.1777 C   0  0  0  0  0  0  0  0  0  0  0  0
  -23.4177  -40.3155   -6.4379 C   0  0  0  0  0  0  0  0  0  0  0  0
  -23.1111  -39.1943   -7.3735 C   0  0  0  0  0  0  0  0  0  0  0  0
  -23.4902  -39.6081   -8.7670 C   0  0  0  0  0  0  0  0  0  0  0  0
  -22.7959  -38.8903   -9.8201 N   0  0  0  0  0  0  0  0  0  0  0  0
  -15.5253  -39.3457   -7.1759 C   0  0  2  0  0  0  0  0  0  0  0  0
  -15.1666  -37.9707   -7.1448 O   0  0  0  0  0  0  0  0  0  0  0  0
  -14.6183  -40.1637   -7.9729 C   0  0  0  0  0  0  0  0  0  0  0  0
  -14.7208  -40.0941   -9.3511 N   0  0  0  0  0  0  0  0  0  0  0  0
  -13.7456  -40.3483  -10.3028 C   0  0  0  0  0  0  0  0  0  0  0  0
  -14.1951  -41.6774  -11.0406 C   0  0  0  0  0  0  0  0  0  0  0  0
  -13.7149  -42.3085   -9.8726 O   0  0  0  0  0  0  0  0  0  0  0  0
  -12.6684  -41.3629   -9.9258 C   0  0  0  0  0  0  0  0  0  0  0  0
  -13.3438  -39.4033  -11.3414 C   0  0  0  0  0  0  0  0  0  0  0  0
  -13.7132  -38.0525  -11.2547 C   0  0  0  0  0  0  0  0  0  0  0  0
  -13.4239  -37.1164  -12.1995 C   0  0  0  0  0  0  0  0  0  0  0  0
  -12.7261  -37.4829  -13.3218 C   0  0  0  0  0  0  0  0  0  0  0  0
  -12.3357  -38.7974  -13.4626 C   0  0  0  0  0  0  0  0  0  0  0  0
  -12.6478  -39.7219  -12.4830 C   0  0  0  0  0  0  0  0  0  0  0  0
  -13.8472  -35.6905  -12.0785 C   0  0  0  0  0  0  0  0  0  0  0  0
  -13.6908  -35.1837  -10.6725 C   0  0  0  0  0  0  0  0  0  0  0  0
  -15.3325  -35.5587  -12.4278 C   0  0  0  0  0  0  0  0  0  0  0  0
  -13.0832  -34.8300  -13.0578 C   0  0  0  0  0  0  0  0  0  0  0  0
  1  2  1  0
  2  3  1  0
  3  4  1  0
  4  5  2  0
  5  6  1  0
  6  7  2  0
  7  8  1  0
  8  9  2  0
  8 10  1  0
 10 11  2  0
 10 12  1  0
 12 13  1  0
 13 14  1  1
 14 15  1  0
 15 16  1  1
 15 17  1  0
 17 18  1  0
 18 19  1  0
 19 20  1  0
 20 21  1  0
 21 22  1  0
 22 23  1  0
 23 24  1  0
 13 25  1  0
 25 26  1  6
 25 27  1  0
 27 28  1  0
 28 29  1  0
 29 30  1  0
 30 31  1  0
 31 32  1  0
 29 33  1  0
 33 34  2  0
 34 35  1  0
 35 36  2  0
 36 37  1  0
 37 38  2  0
 35 39  1  0
 39 40  1  0
 39 41  1  0
 39 42  1  0
  9  4  1  0
 24  6  1  0
 32 29  1  0
 38 33  1  0
M  END
$$$$
