
     RDKit          3D

 42 45  0  0  0  0  0  0  0  0999 V2000
  -24.0779  -39.4999   -3.9551 C   0  0  0  0  0  0  0  0  0  0  0  0
  -23.2569  -40.4988   -4.4437 O   0  0  0  0  0  0  0  0  0  0  0  0
  -23.2432  -40.5485   -5.8320 C   0  0  0  0  0  0  0  0  0  0  0  0
  -22.0133  -41.2764   -6.2850 C   0  0  0  0  0  0  0  0  0  0  0  0
  -21.9676  -42.6339   -6.3480 C   0  0  0  0  0  0  0  0  0  0  0  0
  -20.8099  -43.3450   -6.7680 C   0  0  0  0  0  0  0  0  0  0  0  0
  -19.6839  -42.6419   -7.1249 C   0  0  0  0  0  0  0  0  0  0  0  0
  -19.6758  -41.2593   -7.0815 C   0  0  0  0  0  0  0  0  0  0  0  0
  -20.8767  -40.6211   -6.6505 C   0  0  0  0  0  0  0  0  0  0  0  0
  -18.6069  -40.2911   -7.4416 C   0  0  0  0  0  0  0  0  0  0  0  0
  -19.1024  -39.2096   -8.0495 O   0  0  0  0  0  0  0  0  0  0  0  0
  -17.2396  -40.2068   -7.3171 N   0  0  0  0  0  0  0  0  0  0  0  0
  -16.1683  -41.1461   -7.6837 C   0  0  1  0  0  0  0  0  0  0  0  0
  -16.4359  -41.9519   -8.8678 C   0  0  0  0  0  0  0  0  0  0  0  0
  -16.2012  -43.4216   -8.8267 C   0  0  2  0  0  0  0  0  0  0  0  0
  -15.4882  -44.0127   -7.6864 C   0  0  0  0  0  0  0  0  0  0  0  0
  -15.5197  -43.9372  -10.1225 C   0  0  0  0  0  0  0  0  0  0  0  0
  -16.4361  -44.9115  -10.7991 C   0  0  0  0  0  0  0  0  0  0  0  0
  -17.0327  -45.9549   -9.9266 C   0  0  0  0  0  0  0  0  0  0  0  0
  -18.5471  -46.0014  -10.0786 C   0  0  0  0  0  0  0  0  0  0  0  0
  -19.1806  -46.9188   -9.0838 C   0  0  0  0  0  0  0  0  0  0  0  0
  -19.4627  -46.3351   -7.7399 C   0  0  0  0  0  0  0  0  0  0  0  0
  -20.8605  -45.7849   -7.7338 C   0  0  0  0  0  0  0  0  0  0  0  0
  -21.0990  -44.7528   -6.7419 N   0  0  0  0  0  0  0  0  0  0  0  0
  -14.8754  -40.2915   -7.9351 C   0  0  2  0  0  0  0  0  0  0  0  0
  -13.9387  -40.9731   -7.1116 O   0  0  0  0  0  0  0  0  0  0  0  0
  -15.0316  -38.8826   -7.5921 C   0  0  0  0  0  0  0  0  0  0  0  0
  -15.8020  -38.0917   -8.4262 N   0  0  0  0  0  0  0  0  0  0  0  0
  -15.5514  -37.7217   -9.7383 C   0  0  0  0  0  0  0  0  0  0  0  0
  -15.9366  -38.9782  -10.6248 C   0  0  0  0  0  0  0  0  0  0  0  0
  -14.7035  -39.4900  -10.1656 O   0  0  0  0  0  0  0  0  0  0  0  0
  -14.2210  -38.1746  -10.3357 C   0  0  0  0  0  0  0  0  0  0  0  0
  -16.1344  -36.5509  -10.3884 C   0  0  0  0  0  0  0  0  0  0  0  0
  -17.4990  -36.2607  -10.2387 C   0  0  0  0  0  0  0  0  0  0  0  0
  -18.1328  -35.2211  -10.8469 C   0  0  0  0  0  0  0  0  0  0  0  0
  -17.4211  -34.3819  -11.6654 C   0  0  0  0  0  0  0  0  0  0  0  0
  -16.0757  -34.6169  -11.8509 C   0  0  0  0  0  0  0  0  0  0  0  0
  -15.4645  -35.6834  -11.2178 C   0  0  0  0  0  0  0  0  0  0  0  0
  -19.5907  -34.9530  -10.6746 C   0  0  0  0  0  0  0  0  0  0  0  0
  -20.4214  -36.1493  -11.0448 C   0  0  0  0  0  0  0  0  0  0  0  0
  -20.0230  -33.8161  -11.6052 C   0  0  0  0  0  0  0  0  0  0  0  0
  -19.8796  -34.5034   -9.2612 C   0  0  0  0  0  0  0  0  0  0  0  0
  1  2  1  0
  2  3  1  0
  3  4  1  0
  4  5  2  0
  5  6  1  0
  6  7  2  0
  7  8  1  0
  8  9  2  0
  8 10  1  0
 10 11  2  0
 10 12  1  0
 12 13  1  0
 13 14  1  6
 14 15  1  0
 15 16  1  1
 15 17  1  0
 17 18  1  0
 18 19  1  0
 19 20  1  0
 20 21  1  0
 21 22  1  0
 22 23  1  0
 23 24  1  0
 13 25  1  0
 25 26  1  1
 25 27  1  0
 27 28  1  0
 28 29  1  0
 29 30  1  0
 30 31  1  0
 31 32  1  0
 29 33  1  0
 33 34  2  0
 34 35  1  0
 35 36  2  0
 36 37  1  0
 37 38  2  0
 35 39  1  0
 39 40  1  0
 39 41  1  0
 39 42  1  0
  9  4  1  0
 24  6  1  0
 32 29  1  0
 38 33  1  0
M  END
$$$$
