
     RDKit          3D

 42 45  0  0  0  0  0  0  0  0999 V2000
  -20.9962  -39.9731  -15.9711 C   0  0  0  0  0  0  0  0  0  0  0  0
  -20.6755  -39.9059  -14.6283 O   0  0  0  0  0  0  0  0  0  0  0  0
  -21.0220  -41.0603  -13.9373 C   0  0  0  0  0  0  0  0  0  0  0  0
  -20.9305  -40.7969  -12.4642 C   0  0  0  0  0  0  0  0  0  0  0  0
  -22.0408  -40.6491  -11.6934 C   0  0  0  0  0  0  0  0  0  0  0  0
  -21.9774  -40.3921  -10.2961 C   0  0  0  0  0  0  0  0  0  0  0  0
  -20.7486  -40.2839   -9.6894 C   0  0  0  0  0  0  0  0  0  0  0  0
  -19.5864  -40.4276  -10.4257 C   0  0  0  0  0  0  0  0  0  0  0  0
  -19.7353  -40.6851  -11.8210 C   0  0  0  0  0  0  0  0  0  0  0  0
  -18.1637  -40.3840   -9.9971 C   0  0  0  0  0  0  0  0  0  0  0  0
  -17.4240  -41.2904  -10.6422 O   0  0  0  0  0  0  0  0  0  0  0  0
  -17.3993  -39.6592   -9.1126 N   0  0  0  0  0  0  0  0  0  0  0  0
  -17.5806  -39.3643   -7.6827 C   0  0  1  0  0  0  0  0  0  0  0  0
  -18.2292  -40.4191   -6.9149 C   0  0  0  0  0  0  0  0  0  0  0  0
  -19.3506  -40.0781   -5.9967 C   0  0  2  0  0  0  0  0  0  0  0  0
  -19.6402  -38.6702   -5.6937 C   0  0  0  0  0  0  0  0  0  0  0  0
  -19.2452  -40.8351   -4.6456 C   0  0  0  0  0  0  0  0  0  0  0  0
  -20.4458  -41.7188   -4.4886 C   0  0  0  0  0  0  0  0  0  0  0  0
  -21.7593  -41.0856   -4.7710 C   0  0  0  0  0  0  0  0  0  0  0  0
  -22.5645  -41.9071   -5.7688 C   0  0  0  0  0  0  0  0  0  0  0  0
  -23.8084  -41.2003   -6.1994 C   0  0  0  0  0  0  0  0  0  0  0  0
  -23.6556  -40.2271   -7.3201 C   0  0  0  0  0  0  0  0  0  0  0  0
  -23.9204  -40.9364   -8.6177 C   0  0  0  0  0  0  0  0  0  0  0  0
  -23.3169  -40.3127   -9.7809 N   0  0  0  0  0  0  0  0  0  0  0  0
  -16.1525  -39.1072   -7.0830 C   0  0  2  0  0  0  0  0  0  0  0  0
  -16.4414  -38.0981   -6.1247 O   0  0  0  0  0  0  0  0  0  0  0  0
  -15.1673  -38.6977   -8.0772 C   0  0  0  0  0  0  0  0  0  0  0  0
  -14.3739  -39.6771   -8.6484 N   0  0  0  0  0  0  0  0  0  0  0  0
  -13.7106  -39.6492   -9.8652 C   0  0  0  0  0  0  0  0  0  0  0  0
  -13.7748  -41.1295  -10.4287 C   0  0  0  0  0  0  0  0  0  0  0  0
  -12.7559  -41.3726   -9.4821 O   0  0  0  0  0  0  0  0  0  0  0  0
  -12.2545  -40.1092   -9.8626 C   0  0  0  0  0  0  0  0  0  0  0  0
  -14.0580  -38.7605  -10.9710 C   0  0  0  0  0  0  0  0  0  0  0  0
  -14.1335  -37.3737  -10.7715 C   0  0  0  0  0  0  0  0  0  0  0  0
  -14.4965  -36.4797  -11.7315 C   0  0  0  0  0  0  0  0  0  0  0  0
  -14.8147  -36.9293  -12.9873 C   0  0  0  0  0  0  0  0  0  0  0  0
  -14.7584  -38.2826  -13.2435 C   0  0  0  0  0  0  0  0  0  0  0  0
  -14.3864  -39.1623  -12.2438 C   0  0  0  0  0  0  0  0  0  0  0  0
  -14.5795  -35.0116  -11.4766 C   0  0  0  0  0  0  0  0  0  0  0  0
  -14.3170  -34.6842  -10.0337 C   0  0  0  0  0  0  0  0  0  0  0  0
  -15.9925  -34.5099  -11.7884 C   0  0  0  0  0  0  0  0  0  0  0  0
  -13.6328  -34.2651  -12.3874 C   0  0  0  0  0  0  0  0  0  0  0  0
  1  2  1  0
  2  3  1  0
  3  4  1  0
  4  5  2  0
  5  6  1  0
  6  7  2  0
  7  8  1  0
  8  9  2  0
  8 10  1  0
 10 11  2  0
 10 12  1  0
 12 13  1  0
 13 14  1  1
 14 15  1  0
 15 16  1  1
 15 17  1  0
 17 18  1  0
 18 19  1  0
 19 20  1  0
 20 21  1  0
 21 22  1  0
 22 23  1  0
 23 24  1  0
 13 25  1  0
 25 26  1  1
 25 27  1  0
 27 28  1  0
 28 29  1  0
 29 30  1  0
 30 31  1  0
 31 32  1  0
 29 33  1  0
 33 34  2  0
 34 35  1  0
 35 36  2  0
 36 37  1  0
 37 38  2  0
 35 39  1  0
 39 40  1  0
 39 41  1  0
 39 42  1  0
  9  4  1  0
 24  6  1  0
 32 29  1  0
 38 33  1  0
M  END
$$$$
