
     RDKit          3D

 41 44  0  0  0  0  0  0  0  0999 V2000
  -21.1731  -40.6929   -2.5227 C   0  0  0  0  0  0  0  0  0  0  0  0
  -22.2200  -40.7130   -3.4067 O   0  0  0  0  0  0  0  0  0  0  0  0
  -22.5939  -41.9767   -3.7766 C   0  0  0  0  0  0  0  0  0  0  0  0
  -22.0969  -42.3981   -5.1149 C   0  0  0  0  0  0  0  0  0  0  0  0
  -20.9587  -41.8693   -5.6445 C   0  0  0  0  0  0  0  0  0  0  0  0
  -20.4053  -42.2324   -6.9129 C   0  0  0  0  0  0  0  0  0  0  0  0
  -21.0885  -43.1882   -7.6356 C   0  0  0  0  0  0  0  0  0  0  0  0
  -22.2269  -43.7209   -7.1097 C   0  0  0  0  0  0  0  0  0  0  0  0
  -23.1637  -44.7069   -7.5733 N   0  0  0  0  0  0  0  0  0  0  0  0
  -22.9494  -46.0512   -8.0481 C   0  0  0  0  0  0  0  0  0  0  0  0
  -22.9770  -47.0641   -6.9234 C   0  0  0  0  0  0  0  0  0  0  0  0
  -21.9315  -48.1514   -7.1124 C   0  0  0  0  0  0  0  0  0  0  0  0
  -20.5501  -47.5603   -7.0638 C   0  0  0  0  0  0  0  0  0  0  0  0
  -20.0291  -47.4516   -8.3517 O   0  0  0  0  0  0  0  0  0  0  0  0
  -18.7356  -46.9453   -8.2997 C   0  0  0  0  0  0  0  0  0  0  0  0
  -18.6804  -45.7602   -9.2224 C   0  0  0  0  0  0  0  0  0  0  0  0
  -17.9822  -44.5609   -8.5812 C   0  0  1  0  0  0  0  0  0  0  0  0
  -16.5206  -44.9783   -8.4441 C   0  0  0  0  0  0  0  0  0  0  0  0
  -18.0259  -43.4457   -9.5752 C   0  0  0  0  0  0  0  0  0  0  0  0
  -17.4698  -42.1682   -9.0371 C   0  0  2  0  0  0  0  0  0  0  0  0
  -17.9158  -41.7425   -7.7434 N   0  0  0  0  0  0  0  0  0  0  0  0
  -19.1649  -41.4869   -7.1973 C   0  0  0  0  0  0  0  0  0  0  0  0
  -19.2370  -40.1910   -6.8313 O   0  0  0  0  0  0  0  0  0  0  0  0
  -17.5093  -41.0897  -10.1146 C   0  0  2  0  0  0  0  0  0  0  0  0
  -16.8171  -41.5985  -11.1817 O   0  0  0  0  0  0  0  0  0  0  0  0
  -16.8703  -39.8642   -9.5369 C   0  0  0  0  0  0  0  0  0  0  0  0
  -17.4940  -38.9881   -8.7206 N   0  0  0  0  0  0  0  0  0  0  0  0
  -17.8260  -37.6529   -8.8436 C   0  0  0  0  0  0  0  0  0  0  0  0
  -16.8867  -36.5485   -8.3653 C   0  0  0  0  0  0  0  0  0  0  0  0
  -18.1340  -36.7795   -7.6400 C   0  0  0  0  0  0  0  0  0  0  0  0
  -18.7102  -37.2823  -10.0308 C   0  0  0  0  0  0  0  0  0  0  0  0
  -18.6346  -36.1201  -10.7161 C   0  0  0  0  0  0  0  0  0  0  0  0
  -19.4701  -35.8509  -11.8103 C   0  0  0  0  0  0  0  0  0  0  0  0
  -20.3898  -36.7952  -12.1964 C   0  0  0  0  0  0  0  0  0  0  0  0
  -20.4840  -37.9858  -11.5129 C   0  0  0  0  0  0  0  0  0  0  0  0
  -19.6397  -38.2152  -10.4351 C   0  0  0  0  0  0  0  0  0  0  0  0
  -19.3452  -34.5572  -12.5221 C   0  0  0  0  0  0  0  0  0  0  0  0
  -20.6872  -33.9837  -12.9246 C   0  0  0  0  0  0  0  0  0  0  0  0
  -18.3967  -34.6626  -13.7006 C   0  0  0  0  0  0  0  0  0  0  0  0
  -18.7112  -33.5280  -11.5745 C   0  0  0  0  0  0  0  0  0  0  0  0
  -22.6880  -43.3004   -5.8603 N   0  0  0  0  0  0  0  0  0  0  0  0
  1  2  1  0
  2  3  1  0
  3  4  1  0
  4  5  2  0
  5  6  1  0
  6  7  2  0
  7  8  1  0
  8  9  1  0
  9 10  1  0
 10 11  1  0
 11 12  1  0
 12 13  1  0
 13 14  1  0
 14 15  1  0
 15 16  1  0
 16 17  1  0
 17 18  1  6
 17 19  1  0
 20 19  1  6
 20 21  1  0
 21 22  1  0
 22 23  2  0
 20 24  1  0
 24 25  1  6
 24 26  1  0
 26 27  1  0
 27 28  1  0
 28 29  1  0
 29 30  1  0
 28 31  1  0
 31 32  2  0
 32 33  1  0
 33 34  2  0
 34 35  1  0
 35 36  2  0
 33 37  1  0
 37 38  1  0
 37 39  1  0
 37 40  1  0
  8 41  2  0
 22  6  1  0
 30 28  1  0
 36 31  1  0
 41  4  1  0
M  END
$$$$
