
     RDKit          3D

 41 44  0  0  0  0  0  0  0  0999 V2000
  -20.4347  -45.4339  -10.8878 C   0  0  0  0  0  0  0  0  0  0  0  0
  -19.3592  -45.9729  -10.2314 O   0  0  0  0  0  0  0  0  0  0  0  0
  -18.2232  -46.0147  -10.9939 C   0  0  0  0  0  0  0  0  0  0  0  0
  -17.4692  -44.7324  -11.0445 C   0  0  0  0  0  0  0  0  0  0  0  0
  -17.4806  -43.8641   -9.9948 C   0  0  0  0  0  0  0  0  0  0  0  0
  -16.7703  -42.6228   -9.9568 C   0  0  0  0  0  0  0  0  0  0  0  0
  -16.0266  -42.3006  -11.0728 C   0  0  0  0  0  0  0  0  0  0  0  0
  -16.0111  -43.1662  -12.1249 C   0  0  0  0  0  0  0  0  0  0  0  0
  -15.3658  -43.1516  -13.4087 N   0  0  0  0  0  0  0  0  0  0  0  0
  -13.9801  -42.9599  -13.7575 C   0  0  0  0  0  0  0  0  0  0  0  0
  -13.2118  -44.2641  -13.7781 C   0  0  0  0  0  0  0  0  0  0  0  0
  -11.8099  -44.1064  -13.2119 C   0  0  0  0  0  0  0  0  0  0  0  0
  -11.8742  -43.7209  -11.7603 C   0  0  0  0  0  0  0  0  0  0  0  0
  -11.6088  -42.3608  -11.6128 O   0  0  0  0  0  0  0  0  0  0  0  0
  -11.6264  -42.0167  -10.2662 C   0  0  0  0  0  0  0  0  0  0  0  0
  -12.5726  -40.8593  -10.1114 C   0  0  0  0  0  0  0  0  0  0  0  0
  -13.5246  -41.0454   -8.9299 C   0  0  1  0  0  0  0  0  0  0  0  0
  -12.6406  -40.9558   -7.6890 C   0  0  0  0  0  0  0  0  0  0  0  0
  -14.4312  -39.8575   -8.9063 C   0  0  0  0  0  0  0  0  0  0  0  0
  -15.4913  -39.9587   -7.8591 C   0  0  2  0  0  0  0  0  0  0  0  0
  -16.2250  -41.1867   -7.7733 N   0  0  0  0  0  0  0  0  0  0  0  0
  -16.9803  -41.9162   -8.6793 C   0  0  0  0  0  0  0  0  0  0  0  0
  -18.2556  -41.9850   -8.2462 O   0  0  0  0  0  0  0  0  0  0  0  0
  -16.3506  -38.6988   -7.8663 C   0  0  2  0  0  0  0  0  0  0  0  0
  -15.5059  -37.6655   -7.5577 O   0  0  0  0  0  0  0  0  0  0  0  0
  -17.4293  -38.8938   -6.8455 C   0  0  0  0  0  0  0  0  0  0  0  0
  -18.6713  -39.3460   -7.1210 N   0  0  0  0  0  0  0  0  0  0  0  0
  -19.9168  -39.0710   -6.5907 C   0  0  0  0  0  0  0  0  0  0  0  0
  -20.0991  -38.7297   -5.1140 C   0  0  0  0  0  0  0  0  0  0  0  0
  -20.6066  -40.0060   -5.6128 C   0  0  0  0  0  0  0  0  0  0  0  0
  -20.9258  -38.4232   -7.5347 C   0  0  0  0  0  0  0  0  0  0  0  0
  -21.9476  -37.6294   -7.1451 C   0  0  0  0  0  0  0  0  0  0  0  0
  -22.8305  -37.0526   -8.0702 C   0  0  0  0  0  0  0  0  0  0  0  0
  -22.6508  -37.3009   -9.4091 C   0  0  0  0  0  0  0  0  0  0  0  0
  -21.6167  -38.1063   -9.8281 C   0  0  0  0  0  0  0  0  0  0  0  0
  -20.7641  -38.6589   -8.8823 C   0  0  0  0  0  0  0  0  0  0  0  0
  -23.9359  -36.1932   -7.5850 C   0  0  0  0  0  0  0  0  0  0  0  0
  -23.4399  -34.9907   -6.8106 C   0  0  0  0  0  0  0  0  0  0  0  0
  -24.9556  -36.9936   -6.7983 C   0  0  0  0  0  0  0  0  0  0  0  0
  -24.6977  -35.6332   -8.7955 C   0  0  0  0  0  0  0  0  0  0  0  0
  -16.7391  -44.3566  -12.0668 N   0  0  0  0  0  0  0  0  0  0  0  0
  1  2  1  0
  2  3  1  0
  3  4  1  0
  4  5  2  0
  5  6  1  0
  6  7  2  0
  7  8  1  0
  8  9  1  0
  9 10  1  0
 10 11  1  0
 11 12  1  0
 12 13  1  0
 13 14  1  0
 14 15  1  0
 15 16  1  0
 16 17  1  0
 17 18  1  1
 17 19  1  0
 20 19  1  6
 20 21  1  0
 21 22  1  0
 22 23  2  0
 20 24  1  0
 24 25  1  1
 24 26  1  0
 26 27  1  0
 27 28  1  0
 28 29  1  0
 29 30  1  0
 28 31  1  0
 31 32  2  0
 32 33  1  0
 33 34  2  0
 34 35  1  0
 35 36  2  0
 33 37  1  0
 37 38  1  0
 37 39  1  0
 37 40  1  0
  8 41  2  0
 22  6  1  0
 30 28  1  0
 36 31  1  0
 41  4  1  0
M  END
$$$$
