
     RDKit          3D

 41 44  0  0  0  0  0  0  0  0999 V2000
  -21.2607  -37.0811  -14.3090 C   0  0  0  0  0  0  0  0  0  0  0  0
  -20.3369  -36.7873  -13.3404 O   0  0  0  0  0  0  0  0  0  0  0  0
  -19.0585  -36.6926  -13.8204 C   0  0  0  0  0  0  0  0  0  0  0  0
  -18.0027  -36.7473  -12.7728 C   0  0  0  0  0  0  0  0  0  0  0  0
  -18.0140  -37.7088  -11.8077 C   0  0  0  0  0  0  0  0  0  0  0  0
  -17.0293  -37.8414  -10.7784 C   0  0  0  0  0  0  0  0  0  0  0  0
  -16.0032  -36.9197  -10.7809 C   0  0  0  0  0  0  0  0  0  0  0  0
  -15.9867  -35.9567  -11.7446 C   0  0  0  0  0  0  0  0  0  0  0  0
  -15.0972  -34.8675  -12.0398 N   0  0  0  0  0  0  0  0  0  0  0  0
  -13.6682  -34.8515  -12.2303 C   0  0  0  0  0  0  0  0  0  0  0  0
  -13.2829  -35.0954  -13.6738 C   0  0  0  0  0  0  0  0  0  0  0  0
  -12.0463  -35.9718  -13.7912 C   0  0  0  0  0  0  0  0  0  0  0  0
  -12.3212  -37.3391  -13.2302 C   0  0  0  0  0  0  0  0  0  0  0  0
  -11.7474  -37.4634  -11.9663 O   0  0  0  0  0  0  0  0  0  0  0  0
  -11.9664  -38.7429  -11.4690 C   0  0  0  0  0  0  0  0  0  0  0  0
  -12.5866  -38.5949  -10.1080 C   0  0  0  0  0  0  0  0  0  0  0  0
  -13.7872  -39.5217   -9.9166 C   0  0  1  0  0  0  0  0  0  0  0  0
  -13.2022  -40.9311   -9.8939 C   0  0  0  0  0  0  0  0  0  0  0  0
  -14.3337  -39.2543   -8.5515 C   0  0  0  0  0  0  0  0  0  0  0  0
  -15.5846  -40.0198   -8.2682 C   0  0  2  0  0  0  0  0  0  0  0  0
  -16.6147  -40.0008   -9.2643 N   0  0  0  0  0  0  0  0  0  0  0  0
  -17.3193  -38.9855   -9.8940 C   0  0  0  0  0  0  0  0  0  0  0  0
  -18.6306  -39.1023   -9.6016 O   0  0  0  0  0  0  0  0  0  0  0  0
  -16.0611  -39.7296   -6.8489 C   0  0  2  0  0  0  0  0  0  0  0  0
  -15.3876  -40.6058   -6.0394 O   0  0  0  0  0  0  0  0  0  0  0  0
  -17.5440  -39.9405   -6.8288 C   0  0  0  0  0  0  0  0  0  0  0  0
  -18.4590  -38.9557   -6.9541 N   0  0  0  0  0  0  0  0  0  0  0  0
  -19.7662  -38.8200   -6.5287 C   0  0  0  0  0  0  0  0  0  0  0  0
  -20.2745  -37.5203   -5.9099 C   0  0  0  0  0  0  0  0  0  0  0  0
  -20.1329  -38.7004   -5.0598 C   0  0  0  0  0  0  0  0  0  0  0  0
  -20.8130  -39.6273   -7.2912 C   0  0  0  0  0  0  0  0  0  0  0  0
  -21.6177  -40.5626   -6.7403 C   0  0  0  0  0  0  0  0  0  0  0  0
  -22.5714  -41.2575   -7.4990 C   0  0  0  0  0  0  0  0  0  0  0  0
  -22.6910  -40.9788   -8.8386 C   0  0  0  0  0  0  0  0  0  0  0  0
  -21.8818  -40.0300   -9.4203 C   0  0  0  0  0  0  0  0  0  0  0  0
  -20.9499  -39.3636   -8.6364 C   0  0  0  0  0  0  0  0  0  0  0  0
  -23.4244  -42.2758   -6.8422 C   0  0  0  0  0  0  0  0  0  0  0  0
  -22.7961  -43.6531   -6.8508 C   0  0  0  0  0  0  0  0  0  0  0  0
  -24.8237  -42.2868   -7.4265 C   0  0  0  0  0  0  0  0  0  0  0  0
  -23.5991  -41.8987   -5.3635 C   0  0  0  0  0  0  0  0  0  0  0  0
  -16.9957  -35.9099  -12.7091 N   0  0  0  0  0  0  0  0  0  0  0  0
  1  2  1  0
  2  3  1  0
  3  4  1  0
  4  5  2  0
  5  6  1  0
  6  7  2  0
  7  8  1  0
  8  9  1  0
  9 10  1  0
 10 11  1  0
 11 12  1  0
 12 13  1  0
 13 14  1  0
 14 15  1  0
 15 16  1  0
 16 17  1  0
 17 18  1  1
 17 19  1  0
 20 19  1  6
 20 21  1  0
 21 22  1  0
 22 23  2  0
 20 24  1  0
 24 25  1  1
 24 26  1  0
 26 27  1  0
 27 28  1  0
 28 29  1  0
 29 30  1  0
 28 31  1  0
 31 32  2  0
 32 33  1  0
 33 34  2  0
 34 35  1  0
 35 36  2  0
 33 37  1  0
 37 38  1  0
 37 39  1  0
 37 40  1  0
  8 41  2  0
 22  6  1  0
 30 28  1  0
 36 31  1  0
 41  4  1  0
M  END
$$$$
