
     RDKit          3D

 41 44  0  0  0  0  0  0  0  0999 V2000
  -21.2045  -48.3819   -7.2607 C   0  0  0  0  0  0  0  0  0  0  0  0
  -20.5743  -47.3800   -7.9513 O   0  0  0  0  0  0  0  0  0  0  0  0
  -19.4180  -46.9541   -7.3552 C   0  0  0  0  0  0  0  0  0  0  0  0
  -19.4549  -45.5444   -6.8789 C   0  0  0  0  0  0  0  0  0  0  0  0
  -18.8104  -44.5530   -7.5554 C   0  0  0  0  0  0  0  0  0  0  0  0
  -18.8114  -43.1737   -7.1752 C   0  0  0  0  0  0  0  0  0  0  0  0
  -19.5216  -42.8451   -6.0394 C   0  0  0  0  0  0  0  0  0  0  0  0
  -20.1688  -43.8329   -5.3599 C   0  0  0  0  0  0  0  0  0  0  0  0
  -20.9777  -43.8507   -4.1725 N   0  0  0  0  0  0  0  0  0  0  0  0
  -22.1388  -43.0723   -3.8192 C   0  0  0  0  0  0  0  0  0  0  0  0
  -23.4244  -43.7245   -4.2811 C   0  0  0  0  0  0  0  0  0  0  0  0
  -24.4260  -42.7037   -4.7965 C   0  0  0  0  0  0  0  0  0  0  0  0
  -23.8850  -42.0130   -6.0172 C   0  0  0  0  0  0  0  0  0  0  0  0
  -23.4271  -40.7395   -5.6847 O   0  0  0  0  0  0  0  0  0  0  0  0
  -22.9676  -40.0876   -6.8231 C   0  0  0  0  0  0  0  0  0  0  0  0
  -21.5731  -39.6079   -6.5332 C   0  0  0  0  0  0  0  0  0  0  0  0
  -20.6064  -39.9174   -7.6763 C   0  0  1  0  0  0  0  0  0  0  0  0
  -21.0594  -39.0291   -8.8317 C   0  0  0  0  0  0  0  0  0  0  0  0
  -19.2582  -39.4299   -7.2540 C   0  0  0  0  0  0  0  0  0  0  0  0
  -18.1864  -39.7660   -8.2385 C   0  0  2  0  0  0  0  0  0  0  0  0
  -18.1335  -41.1114   -8.7292 N   0  0  0  0  0  0  0  0  0  0  0  0
  -18.0281  -42.3510   -8.1158 C   0  0  0  0  0  0  0  0  0  0  0  0
  -16.8846  -42.9489   -8.5080 O   0  0  0  0  0  0  0  0  0  0  0  0
  -16.8503  -39.2049   -7.7635 C   0  0  2  0  0  0  0  0  0  0  0  0
  -16.9765  -37.8417   -7.8107 O   0  0  0  0  0  0  0  0  0  0  0  0
  -15.7970  -39.7247   -8.6931 C   0  0  0  0  0  0  0  0  0  0  0  0
  -16.0487  -40.4147   -9.8260 N   0  0  0  0  0  0  0  0  0  0  0  0
  -16.0797  -40.0614  -11.1610 C   0  0  0  0  0  0  0  0  0  0  0  0
  -16.6154  -41.0134  -12.2275 C   0  0  0  0  0  0  0  0  0  0  0  0
  -15.1841  -40.7204  -12.1955 C   0  0  0  0  0  0  0  0  0  0  0  0
  -16.2675  -38.5776  -11.4639 C   0  0  0  0  0  0  0  0  0  0  0  0
  -15.5677  -37.5773  -10.8845 C   0  0  0  0  0  0  0  0  0  0  0  0
  -15.7816  -36.2327  -11.2225 C   0  0  0  0  0  0  0  0  0  0  0  0
  -16.7278  -35.9245  -12.1692 C   0  0  0  0  0  0  0  0  0  0  0  0
  -17.4520  -36.9273  -12.7720 C   0  0  0  0  0  0  0  0  0  0  0  0
  -17.2116  -38.2459  -12.4107 C   0  0  0  0  0  0  0  0  0  0  0  0
  -14.9871  -35.1769  -10.5516 C   0  0  0  0  0  0  0  0  0  0  0  0
  -13.4956  -35.3969  -10.6886 C   0  0  0  0  0  0  0  0  0  0  0  0
  -15.4047  -35.0049   -9.1040 C   0  0  0  0  0  0  0  0  0  0  0  0
  -15.2807  -33.8292  -11.2273 C   0  0  0  0  0  0  0  0  0  0  0  0
  -20.1083  -45.1530   -5.8116 N   0  0  0  0  0  0  0  0  0  0  0  0
  1  2  1  0
  2  3  1  0
  3  4  1  0
  4  5  2  0
  5  6  1  0
  6  7  2  0
  7  8  1  0
  8  9  1  0
  9 10  1  0
 10 11  1  0
 11 12  1  0
 12 13  1  0
 13 14  1  0
 14 15  1  0
 15 16  1  0
 16 17  1  0
 17 18  1  6
 17 19  1  0
 20 19  1  1
 20 21  1  0
 21 22  1  0
 22 23  2  0
 20 24  1  0
 24 25  1  6
 24 26  1  0
 26 27  1  0
 27 28  1  0
 28 29  1  0
 29 30  1  0
 28 31  1  0
 31 32  2  0
 32 33  1  0
 33 34  2  0
 34 35  1  0
 35 36  2  0
 33 37  1  0
 37 38  1  0
 37 39  1  0
 37 40  1  0
  8 41  2  0
 22  6  1  0
 30 28  1  0
 36 31  1  0
 41  4  1  0
M  END
$$$$
