
     RDKit          3D

 41 44  0  0  0  0  0  0  0  0999 V2000
  -18.4806  -48.4832   -9.2169 C   0  0  0  0  0  0  0  0  0  0  0  0
  -18.5929  -47.1255   -9.3651 O   0  0  0  0  0  0  0  0  0  0  0  0
  -19.7533  -46.6171   -8.8467 C   0  0  0  0  0  0  0  0  0  0  0  0
  -19.5610  -45.4720   -7.9155 C   0  0  0  0  0  0  0  0  0  0  0  0
  -18.8554  -44.3683   -8.2891 C   0  0  0  0  0  0  0  0  0  0  0  0
  -18.6403  -43.2206   -7.4625 C   0  0  0  0  0  0  0  0  0  0  0  0
  -19.1955  -43.2540   -6.2003 C   0  0  0  0  0  0  0  0  0  0  0  0
  -19.9030  -44.3552   -5.8221 C   0  0  0  0  0  0  0  0  0  0  0  0
  -20.5966  -44.7201   -4.6178 N   0  0  0  0  0  0  0  0  0  0  0  0
  -21.6083  -44.0156   -3.8703 C   0  0  0  0  0  0  0  0  0  0  0  0
  -23.0050  -44.3402   -4.3553 C   0  0  0  0  0  0  0  0  0  0  0  0
  -23.9059  -43.1157   -4.3535 C   0  0  0  0  0  0  0  0  0  0  0  0
  -23.3912  -42.0886   -5.3230 C   0  0  0  0  0  0  0  0  0  0  0  0
  -22.7414  -41.0643   -4.6369 O   0  0  0  0  0  0  0  0  0  0  0  0
  -22.3049  -40.0950   -5.5325 C   0  0  0  0  0  0  0  0  0  0  0  0
  -20.8388  -39.8796   -5.2809 C   0  0  0  0  0  0  0  0  0  0  0  0
  -20.0286  -39.8493   -6.5769 C   0  0  1  0  0  0  0  0  0  0  0  0
  -20.4632  -38.5707   -7.2878 C   0  0  0  0  0  0  0  0  0  0  0  0
  -18.5954  -39.6696   -6.1935 C   0  0  0  0  0  0  0  0  0  0  0  0
  -17.6705  -39.7301   -7.3648 C   0  0  2  0  0  0  0  0  0  0  0  0
  -17.8399  -40.8117   -8.2895 N   0  0  0  0  0  0  0  0  0  0  0  0
  -17.8437  -42.1924   -8.1578 C   0  0  0  0  0  0  0  0  0  0  0  0
  -16.8291  -42.7137   -8.8773 O   0  0  0  0  0  0  0  0  0  0  0  0
  -16.2347  -39.4994   -6.9054 C   0  0  2  0  0  0  0  0  0  0  0  0
  -16.3239  -38.8290   -5.7142 O   0  0  0  0  0  0  0  0  0  0  0  0
  -15.5520  -38.7011   -7.9732 C   0  0  0  0  0  0  0  0  0  0  0  0
  -14.8437  -39.2332   -8.9921 N   0  0  0  0  0  0  0  0  0  0  0  0
  -14.0137  -38.6882   -9.9525 C   0  0  0  0  0  0  0  0  0  0  0  0
  -12.7472  -39.4048  -10.4141 C   0  0  0  0  0  0  0  0  0  0  0  0
  -12.6200  -38.1805   -9.6266 C   0  0  0  0  0  0  0  0  0  0  0  0
  -14.6836  -37.8125  -11.0075 C   0  0  0  0  0  0  0  0  0  0  0  0
  -15.9669  -37.3917  -10.9593 C   0  0  0  0  0  0  0  0  0  0  0  0
  -16.5149  -36.5733  -11.9581 C   0  0  0  0  0  0  0  0  0  0  0  0
  -15.7250  -36.1881  -13.0137 C   0  0  0  0  0  0  0  0  0  0  0  0
  -14.4154  -36.6048  -13.0828 C   0  0  0  0  0  0  0  0  0  0  0  0
  -13.9094  -37.4143  -12.0750 C   0  0  0  0  0  0  0  0  0  0  0  0
  -17.9299  -36.1453  -11.8551 C   0  0  0  0  0  0  0  0  0  0  0  0
  -18.0711  -34.6555  -11.6264 C   0  0  0  0  0  0  0  0  0  0  0  0
  -18.6785  -36.9530  -10.8126 C   0  0  0  0  0  0  0  0  0  0  0  0
  -18.6358  -36.4385  -13.1874 C   0  0  0  0  0  0  0  0  0  0  0  0
  -20.0580  -45.4279   -6.7030 N   0  0  0  0  0  0  0  0  0  0  0  0
  1  2  1  0
  2  3  1  0
  3  4  1  0
  4  5  2  0
  5  6  1  0
  6  7  2  0
  7  8  1  0
  8  9  1  0
  9 10  1  0
 10 11  1  0
 11 12  1  0
 12 13  1  0
 13 14  1  0
 14 15  1  0
 15 16  1  0
 16 17  1  0
 17 18  1  6
 17 19  1  0
 20 19  1  1
 20 21  1  0
 21 22  1  0
 22 23  2  0
 20 24  1  0
 24 25  1  1
 24 26  1  0
 26 27  1  0
 27 28  1  0
 28 29  1  0
 29 30  1  0
 28 31  1  0
 31 32  2  0
 32 33  1  0
 33 34  2  0
 34 35  1  0
 35 36  2  0
 33 37  1  0
 37 38  1  0
 37 39  1  0
 37 40  1  0
  8 41  2  0
 22  6  1  0
 30 28  1  0
 36 31  1  0
 41  4  1  0
M  END
$$$$
