
     RDKit          3D

 41 44  0  0  0  0  0  0  0  0999 V2000
  -19.4211  -39.4776  -14.7581 C   0  0  0  0  0  0  0  0  0  0  0  0
  -20.0165  -38.7294  -13.7765 O   0  0  0  0  0  0  0  0  0  0  0  0
  -19.4425  -37.4980  -13.6093 C   0  0  0  0  0  0  0  0  0  0  0  0
  -18.4686  -37.4209  -12.4863 C   0  0  0  0  0  0  0  0  0  0  0  0
  -18.2210  -38.4986  -11.6906 C   0  0  0  0  0  0  0  0  0  0  0  0
  -17.2895  -38.5124  -10.6048 C   0  0  0  0  0  0  0  0  0  0  0  0
  -16.6032  -37.3407  -10.3629 C   0  0  0  0  0  0  0  0  0  0  0  0
  -16.8466  -36.2603  -11.1565 C   0  0  0  0  0  0  0  0  0  0  0  0
  -16.3297  -34.9200  -11.1891 N   0  0  0  0  0  0  0  0  0  0  0  0
  -14.9703  -34.4421  -11.2358 C   0  0  0  0  0  0  0  0  0  0  0  0
  -14.4660  -34.2956  -12.6556 C   0  0  0  0  0  0  0  0  0  0  0  0
  -13.0138  -34.7245  -12.7897 C   0  0  0  0  0  0  0  0  0  0  0  0
  -12.8721  -36.1888  -12.4805 C   0  0  0  0  0  0  0  0  0  0  0  0
  -12.3434  -36.3604  -11.2026 O   0  0  0  0  0  0  0  0  0  0  0  0
  -12.1733  -37.7141  -10.9367 C   0  0  0  0  0  0  0  0  0  0  0  0
  -12.8669  -38.0063   -9.6357 C   0  0  0  0  0  0  0  0  0  0  0  0
  -13.7253  -39.2691   -9.7096 C   0  0  1  0  0  0  0  0  0  0  0  0
  -12.7311  -40.4180   -9.8531 C   0  0  0  0  0  0  0  0  0  0  0  0
  -14.3864  -39.4279   -8.3787 C   0  0  0  0  0  0  0  0  0  0  0  0
  -15.3468  -40.5711   -8.3418 C   0  0  2  0  0  0  0  0  0  0  0  0
  -16.2874  -40.6833   -9.4172 N   0  0  0  0  0  0  0  0  0  0  0  0
  -17.2457  -39.8302   -9.9440 C   0  0  0  0  0  0  0  0  0  0  0  0
  -18.4664  -40.3856   -9.8017 O   0  0  0  0  0  0  0  0  0  0  0  0
  -15.9509  -40.6974   -6.9472 C   0  0  2  0  0  0  0  0  0  0  0  0
  -14.9064  -40.9874   -6.1096 O   0  0  0  0  0  0  0  0  0  0  0  0
  -16.9720  -41.7918   -7.0053 C   0  0  0  0  0  0  0  0  0  0  0  0
  -18.1281  -41.7979   -6.3081 N   0  0  0  0  0  0  0  0  0  0  0  0
  -19.4525  -41.9388   -6.6748 C   0  0  0  0  0  0  0  0  0  0  0  0
  -20.1105  -43.3123   -6.7813 C   0  0  0  0  0  0  0  0  0  0  0  0
  -19.8660  -42.5484   -8.0028 C   0  0  0  0  0  0  0  0  0  0  0  0
  -20.3888  -40.8009   -6.2785 C   0  0  0  0  0  0  0  0  0  0  0  0
  -20.9811  -39.9513   -7.1464 C   0  0  0  0  0  0  0  0  0  0  0  0
  -21.8453  -38.9347   -6.7133 C   0  0  0  0  0  0  0  0  0  0  0  0
  -22.0971  -38.7998   -5.3697 C   0  0  0  0  0  0  0  0  0  0  0  0
  -21.5048  -39.6541   -4.4682 C   0  0  0  0  0  0  0  0  0  0  0  0
  -20.6554  -40.6476   -4.9356 C   0  0  0  0  0  0  0  0  0  0  0  0
  -22.4638  -38.0294   -7.7103 C   0  0  0  0  0  0  0  0  0  0  0  0
  -23.9626  -37.9091   -7.5346 C   0  0  0  0  0  0  0  0  0  0  0  0
  -22.0881  -38.4243   -9.1253 C   0  0  0  0  0  0  0  0  0  0  0  0
  -21.8989  -36.6146   -7.5143 C   0  0  0  0  0  0  0  0  0  0  0  0
  -17.7771  -36.3458  -12.1945 N   0  0  0  0  0  0  0  0  0  0  0  0
  1  2  1  0
  2  3  1  0
  3  4  1  0
  4  5  2  0
  5  6  1  0
  6  7  2  0
  7  8  1  0
  8  9  1  0
  9 10  1  0
 10 11  1  0
 11 12  1  0
 12 13  1  0
 13 14  1  0
 14 15  1  0
 15 16  1  0
 16 17  1  0
 17 18  1  1
 17 19  1  0
 20 19  1  1
 20 21  1  0
 21 22  1  0
 22 23  2  0
 20 24  1  0
 24 25  1  1
 24 26  1  0
 26 27  1  0
 27 28  1  0
 28 29  1  0
 29 30  1  0
 28 31  1  0
 31 32  2  0
 32 33  1  0
 33 34  2  0
 34 35  1  0
 35 36  2  0
 33 37  1  0
 37 38  1  0
 37 39  1  0
 37 40  1  0
  8 41  2  0
 22  6  1  0
 30 28  1  0
 36 31  1  0
 41  4  1  0
M  END
$$$$
