
     RDKit          3D

 41 44  0  0  0  0  0  0  0  0999 V2000
  -17.6919  -48.5318   -9.8893 C   0  0  0  0  0  0  0  0  0  0  0  0
  -17.2956  -47.2204   -9.9228 O   0  0  0  0  0  0  0  0  0  0  0  0
  -16.5862  -46.8963  -11.0477 C   0  0  0  0  0  0  0  0  0  0  0  0
  -16.1534  -45.4736  -11.1131 C   0  0  0  0  0  0  0  0  0  0  0  0
  -16.4574  -44.5961  -10.1164 C   0  0  0  0  0  0  0  0  0  0  0  0
  -16.0648  -43.2206  -10.0944 C   0  0  0  0  0  0  0  0  0  0  0  0
  -15.3261  -42.7704  -11.1688 C   0  0  0  0  0  0  0  0  0  0  0  0
  -15.0186  -43.6444  -12.1677 C   0  0  0  0  0  0  0  0  0  0  0  0
  -14.2887  -43.5222  -13.3994 N   0  0  0  0  0  0  0  0  0  0  0  0
  -12.9626  -43.0177  -13.6553 C   0  0  0  0  0  0  0  0  0  0  0  0
  -11.9102  -44.1005  -13.5476 C   0  0  0  0  0  0  0  0  0  0  0  0
  -10.6377  -43.5924  -12.8893 C   0  0  0  0  0  0  0  0  0  0  0  0
  -10.9134  -43.1815  -11.4698 C   0  0  0  0  0  0  0  0  0  0  0  0
  -10.9887  -41.7930  -11.3781 O   0  0  0  0  0  0  0  0  0  0  0  0
  -11.2005  -41.4149  -10.0574 C   0  0  0  0  0  0  0  0  0  0  0  0
  -12.4020  -40.5122  -10.0365 C   0  0  0  0  0  0  0  0  0  0  0  0
  -13.3799  -40.8778   -8.9197 C   0  0  1  0  0  0  0  0  0  0  0  0
  -12.6500  -40.5352   -7.6240 C   0  0  0  0  0  0  0  0  0  0  0  0
  -14.5391  -39.9407   -9.0283 C   0  0  0  0  0  0  0  0  0  0  0  0
  -15.6303  -40.2545   -8.0579 C   0  0  2  0  0  0  0  0  0  0  0  0
  -16.0591  -41.6184   -7.9590 N   0  0  0  0  0  0  0  0  0  0  0  0
  -16.5423  -42.5392   -8.8767 C   0  0  0  0  0  0  0  0  0  0  0  0
  -17.7976  -42.8951   -8.5355 O   0  0  0  0  0  0  0  0  0  0  0  0
  -16.7580  -39.2374   -8.1976 C   0  0  2  0  0  0  0  0  0  0  0  0
  -16.2058  -38.0200   -7.8987 O   0  0  0  0  0  0  0  0  0  0  0  0
  -17.8365  -39.6389   -7.2387 C   0  0  0  0  0  0  0  0  0  0  0  0
  -18.6452  -40.7079   -7.4000 N   0  0  0  0  0  0  0  0  0  0  0  0
  -19.9999  -40.9051   -7.2148 C   0  0  0  0  0  0  0  0  0  0  0  0
  -20.5343  -42.1111   -6.4465 C   0  0  0  0  0  0  0  0  0  0  0  0
  -20.7544  -42.0374   -7.8893 C   0  0  0  0  0  0  0  0  0  0  0  0
  -20.8606  -39.6480   -7.1275 C   0  0  0  0  0  0  0  0  0  0  0  0
  -21.6009  -39.2927   -6.0543 C   0  0  0  0  0  0  0  0  0  0  0  0
  -22.3583  -38.1121   -6.0362 C   0  0  0  0  0  0  0  0  0  0  0  0
  -22.3464  -37.2941   -7.1395 C   0  0  0  0  0  0  0  0  0  0  0  0
  -21.5996  -37.6364   -8.2434 C   0  0  0  0  0  0  0  0  0  0  0  0
  -20.8632  -38.8130   -8.2232 C   0  0  0  0  0  0  0  0  0  0  0  0
  -23.1545  -37.7750   -4.8326 C   0  0  0  0  0  0  0  0  0  0  0  0
  -22.2878  -37.4143   -3.6451 C   0  0  0  0  0  0  0  0  0  0  0  0
  -24.1459  -38.8728   -4.4989 C   0  0  0  0  0  0  0  0  0  0  0  0
  -24.0038  -36.5306   -5.1314 C   0  0  0  0  0  0  0  0  0  0  0  0
  -15.4485  -44.9713  -12.0980 N   0  0  0  0  0  0  0  0  0  0  0  0
  1  2  1  0
  2  3  1  0
  3  4  1  0
  4  5  2  0
  5  6  1  0
  6  7  2  0
  7  8  1  0
  8  9  1  0
  9 10  1  0
 10 11  1  0
 11 12  1  0
 12 13  1  0
 13 14  1  0
 14 15  1  0
 15 16  1  0
 16 17  1  0
 17 18  1  1
 17 19  1  0
 20 19  1  6
 20 21  1  0
 21 22  1  0
 22 23  2  0
 20 24  1  0
 24 25  1  1
 24 26  1  0
 26 27  1  0
 27 28  1  0
 28 29  1  0
 29 30  1  0
 28 31  1  0
 31 32  2  0
 32 33  1  0
 33 34  2  0
 34 35  1  0
 35 36  2  0
 33 37  1  0
 37 38  1  0
 37 39  1  0
 37 40  1  0
  8 41  2  0
 22  6  1  0
 30 28  1  0
 36 31  1  0
 41  4  1  0
M  END
$$$$
