
     RDKit          3D

 41 44  0  0  0  0  0  0  0  0999 V2000
  -18.2169  -48.1358   -9.0276 C   0  0  0  0  0  0  0  0  0  0  0  0
  -18.3118  -46.7716   -8.9383 O   0  0  0  0  0  0  0  0  0  0  0  0
  -19.4816  -46.3450   -8.3697 C   0  0  0  0  0  0  0  0  0  0  0  0
  -19.3663  -45.0717   -7.6075 C   0  0  0  0  0  0  0  0  0  0  0  0
  -18.5894  -44.0470   -8.0573 C   0  0  0  0  0  0  0  0  0  0  0  0
  -18.4391  -42.7876   -7.3953 C   0  0  0  0  0  0  0  0  0  0  0  0
  -19.1394  -42.6190   -6.2191 C   0  0  0  0  0  0  0  0  0  0  0  0
  -19.9186  -43.6405   -5.7656 C   0  0  0  0  0  0  0  0  0  0  0  0
  -20.7592  -43.8069   -4.6122 N   0  0  0  0  0  0  0  0  0  0  0  0
  -21.8304  -42.9839   -4.1083 C   0  0  0  0  0  0  0  0  0  0  0  0
  -23.1696  -43.3644   -4.7030 C   0  0  0  0  0  0  0  0  0  0  0  0
  -24.0279  -42.1445   -4.9964 C   0  0  0  0  0  0  0  0  0  0  0  0
  -23.3729  -41.2856   -6.0420 C   0  0  0  0  0  0  0  0  0  0  0  0
  -22.7782  -40.1747   -5.4468 O   0  0  0  0  0  0  0  0  0  0  0  0
  -22.2112  -39.3607   -6.4205 C   0  0  0  0  0  0  0  0  0  0  0  0
  -20.7791  -39.1251   -6.0297 C   0  0  0  0  0  0  0  0  0  0  0  0
  -19.8218  -39.3048   -7.2080 C   0  0  1  0  0  0  0  0  0  0  0  0
  -20.1321  -38.1469   -8.1526 C   0  0  0  0  0  0  0  0  0  0  0  0
  -18.4388  -39.0837   -6.6865 C   0  0  0  0  0  0  0  0  0  0  0  0
  -17.3850  -39.3350   -7.7147 C   0  0  2  0  0  0  0  0  0  0  0  0
  -17.4764  -40.5448   -8.4773 N   0  0  0  0  0  0  0  0  0  0  0  0
  -17.5364  -41.8884   -8.1382 C   0  0  0  0  0  0  0  0  0  0  0  0
  -16.4602  -42.5259   -8.6421 O   0  0  0  0  0  0  0  0  0  0  0  0
  -16.0069  -39.0518   -7.1262 C   0  0  2  0  0  0  0  0  0  0  0  0
  -16.0935  -37.8151   -6.5434 O   0  0  0  0  0  0  0  0  0  0  0  0
  -15.0259  -39.0951   -8.2573 C   0  0  0  0  0  0  0  0  0  0  0  0
  -14.4634  -40.2236   -8.7400 N   0  0  0  0  0  0  0  0  0  0  0  0
  -13.3795  -40.4626   -9.5624 C   0  0  0  0  0  0  0  0  0  0  0  0
  -12.7679  -41.8551   -9.6940 C   0  0  0  0  0  0  0  0  0  0  0  0
  -12.0063  -40.8094   -9.0143 C   0  0  0  0  0  0  0  0  0  0  0  0
  -13.2680  -39.5858  -10.8065 C   0  0  0  0  0  0  0  0  0  0  0  0
  -13.5679  -38.2690  -10.8517 C   0  0  0  0  0  0  0  0  0  0  0  0
  -13.4269  -37.5183  -12.0283 C   0  0  0  0  0  0  0  0  0  0  0  0
  -12.9704  -38.1387  -13.1656 C   0  0  0  0  0  0  0  0  0  0  0  0
  -12.6590  -39.4788  -13.1421 C   0  0  0  0  0  0  0  0  0  0  0  0
  -12.8120  -40.1878  -11.9585 C   0  0  0  0  0  0  0  0  0  0  0  0
  -13.7747  -36.0778  -12.0202 C   0  0  0  0  0  0  0  0  0  0  0  0
  -12.5534  -35.1850  -12.0774 C   0  0  0  0  0  0  0  0  0  0  0  0
  -14.6761  -35.7321  -10.8510 C   0  0  0  0  0  0  0  0  0  0  0  0
  -14.5934  -35.7574  -13.2797 C   0  0  0  0  0  0  0  0  0  0  0  0
  -20.0007  -44.8349   -6.4848 N   0  0  0  0  0  0  0  0  0  0  0  0
  1  2  1  0
  2  3  1  0
  3  4  1  0
  4  5  2  0
  5  6  1  0
  6  7  2  0
  7  8  1  0
  8  9  1  0
  9 10  1  0
 10 11  1  0
 11 12  1  0
 12 13  1  0
 13 14  1  0
 14 15  1  0
 15 16  1  0
 16 17  1  0
 17 18  1  6
 17 19  1  0
 20 19  1  1
 20 21  1  0
 21 22  1  0
 22 23  2  0
 20 24  1  0
 24 25  1  6
 24 26  1  0
 26 27  1  0
 27 28  1  0
 28 29  1  0
 29 30  1  0
 28 31  1  0
 31 32  2  0
 32 33  1  0
 33 34  2  0
 34 35  1  0
 35 36  2  0
 33 37  1  0
 37 38  1  0
 37 39  1  0
 37 40  1  0
  8 41  2  0
 22  6  1  0
 30 28  1  0
 36 31  1  0
 41  4  1  0
M  END
$$$$
