
     RDKit          3D

 41 44  0  0  0  0  0  0  0  0999 V2000
  -24.4130  -43.3228   -4.5669 C   0  0  0  0  0  0  0  0  0  0  0  0
  -23.4697  -42.6891   -5.3328 O   0  0  0  0  0  0  0  0  0  0  0  0
  -22.2150  -43.2191   -5.1972 C   0  0  0  0  0  0  0  0  0  0  0  0
  -21.1115  -42.2293   -5.3327 C   0  0  0  0  0  0  0  0  0  0  0  0
  -20.5165  -41.9948   -6.5355 C   0  0  0  0  0  0  0  0  0  0  0  0
  -19.4646  -41.0499   -6.7533 C   0  0  0  0  0  0  0  0  0  0  0  0
  -19.0367  -40.3354   -5.6538 C   0  0  0  0  0  0  0  0  0  0  0  0
  -19.6293  -40.5656   -4.4488 C   0  0  0  0  0  0  0  0  0  0  0  0
  -19.4401  -40.0204   -3.1329 N   0  0  0  0  0  0  0  0  0  0  0  0
  -19.4265  -38.6516   -2.6801 C   0  0  0  0  0  0  0  0  0  0  0  0
  -20.8082  -38.1627   -2.3016 C   0  0  0  0  0  0  0  0  0  0  0  0
  -21.0377  -36.7220   -2.7287 C   0  0  0  0  0  0  0  0  0  0  0  0
  -20.9864  -36.6080   -4.2268 C   0  0  0  0  0  0  0  0  0  0  0  0
  -19.7657  -36.0666   -4.6253 O   0  0  0  0  0  0  0  0  0  0  0  0
  -19.7386  -35.9224   -6.0076 C   0  0  0  0  0  0  0  0  0  0  0  0
  -18.4957  -36.6053   -6.5055 C   0  0  0  0  0  0  0  0  0  0  0  0
  -18.7709  -37.4917   -7.7202 C   0  0  1  0  0  0  0  0  0  0  0  0
  -19.1254  -36.5244   -8.8462 C   0  0  0  0  0  0  0  0  0  0  0  0
  -17.4762  -38.1388   -8.0926 C   0  0  0  0  0  0  0  0  0  0  0  0
  -17.6201  -39.1231   -9.2067 C   0  0  2  0  0  0  0  0  0  0  0  0
  -18.6832  -40.0797   -9.1146 N   0  0  0  0  0  0  0  0  0  0  0  0
  -19.0403  -41.0261   -8.1656 C   0  0  0  0  0  0  0  0  0  0  0  0
  -18.9752  -42.2566   -8.7138 O   0  0  0  0  0  0  0  0  0  0  0  0
  -16.2581  -39.7118   -9.5590 C   0  0  2  0  0  0  0  0  0  0  0  0
  -15.4151  -38.6432   -9.7139 O   0  0  0  0  0  0  0  0  0  0  0  0
  -16.4315  -40.5042  -10.8183 C   0  0  0  0  0  0  0  0  0  0  0  0
  -16.7768  -41.8087  -10.8605 N   0  0  0  0  0  0  0  0  0  0  0  0
  -16.2270  -42.9125  -11.4831 C   0  0  0  0  0  0  0  0  0  0  0  0
  -14.7356  -43.2240  -11.3869 C   0  0  0  0  0  0  0  0  0  0  0  0
  -15.2864  -42.7903  -12.6691 C   0  0  0  0  0  0  0  0  0  0  0  0
  -17.1353  -44.1303  -11.6267 C   0  0  0  0  0  0  0  0  0  0  0  0
  -18.3533  -44.2562  -11.0551 C   0  0  0  0  0  0  0  0  0  0  0  0
  -19.1437  -45.3998  -11.2425 C   0  0  0  0  0  0  0  0  0  0  0  0
  -18.6669  -46.4194  -12.0297 C   0  0  0  0  0  0  0  0  0  0  0  0
  -17.4293  -46.3124  -12.6216 C   0  0  0  0  0  0  0  0  0  0  0  0
  -16.6767  -45.1649  -12.4122 C   0  0  0  0  0  0  0  0  0  0  0  0
  -20.4703  -45.4846  -10.5875 C   0  0  0  0  0  0  0  0  0  0  0  0
  -20.6463  -46.7625   -9.7952 C   0  0  0  0  0  0  0  0  0  0  0  0
  -21.5943  -45.2752  -11.5835 C   0  0  0  0  0  0  0  0  0  0  0  0
  -20.5987  -44.3368   -9.5750 C   0  0  0  0  0  0  0  0  0  0  0  0
  -20.6511  -41.5111   -4.3370 N   0  0  0  0  0  0  0  0  0  0  0  0
  1  2  1  0
  2  3  1  0
  3  4  1  0
  4  5  2  0
  5  6  1  0
  6  7  2  0
  7  8  1  0
  8  9  1  0
  9 10  1  0
 10 11  1  0
 11 12  1  0
 12 13  1  0
 13 14  1  0
 14 15  1  0
 15 16  1  0
 16 17  1  0
 17 18  1  6
 17 19  1  0
 20 19  1  1
 20 21  1  0
 21 22  1  0
 22 23  2  0
 20 24  1  0
 24 25  1  6
 24 26  1  0
 26 27  1  0
 27 28  1  0
 28 29  1  0
 29 30  1  0
 28 31  1  0
 31 32  2  0
 32 33  1  0
 33 34  2  0
 34 35  1  0
 35 36  2  0
 33 37  1  0
 37 38  1  0
 37 39  1  0
 37 40  1  0
  8 41  2  0
 22  6  1  0
 30 28  1  0
 36 31  1  0
 41  4  1  0
M  END
$$$$
