
     RDKit          3D

 41 44  0  0  0  0  0  0  0  0999 V2000
  -20.1640  -45.9965  -12.3932 C   0  0  0  0  0  0  0  0  0  0  0  0
  -19.3577  -44.9826  -11.9461 O   0  0  0  0  0  0  0  0  0  0  0  0
  -18.4799  -44.5293  -12.8936 C   0  0  0  0  0  0  0  0  0  0  0  0
  -17.6169  -43.4032  -12.4435 C   0  0  0  0  0  0  0  0  0  0  0  0
  -17.6540  -42.9547  -11.1577 C   0  0  0  0  0  0  0  0  0  0  0  0
  -16.8465  -41.8923  -10.6420 C   0  0  0  0  0  0  0  0  0  0  0  0
  -15.9743  -41.2924  -11.5262 C   0  0  0  0  0  0  0  0  0  0  0  0
  -15.9326  -41.7380  -12.8130 C   0  0  0  0  0  0  0  0  0  0  0  0
  -15.1684  -41.3555  -13.9682 N   0  0  0  0  0  0  0  0  0  0  0  0
  -13.7443  -41.2149  -14.1437 C   0  0  0  0  0  0  0  0  0  0  0  0
  -13.0927  -42.5107  -14.5772 C   0  0  0  0  0  0  0  0  0  0  0  0
  -11.7432  -42.7191  -13.9093 C   0  0  0  0  0  0  0  0  0  0  0  0
  -11.9129  -42.8529  -12.4216 C   0  0  0  0  0  0  0  0  0  0  0  0
  -11.5467  -41.6668  -11.7883 O   0  0  0  0  0  0  0  0  0  0  0  0
  -11.6636  -41.8083  -10.4104 C   0  0  0  0  0  0  0  0  0  0  0  0
  -12.5171  -40.6751   -9.9140 C   0  0  0  0  0  0  0  0  0  0  0  0
  -13.5904  -41.1472   -8.9331 C   0  0  1  0  0  0  0  0  0  0  0  0
  -12.8251  -41.5923   -7.6900 C   0  0  0  0  0  0  0  0  0  0  0  0
  -14.3895  -39.9449   -8.5461 C   0  0  0  0  0  0  0  0  0  0  0  0
  -15.5498  -40.2791   -7.6671 C   0  0  2  0  0  0  0  0  0  0  0  0
  -16.3913  -41.3691   -8.0639 N   0  0  0  0  0  0  0  0  0  0  0  0
  -17.1164  -41.6503   -9.2124 C   0  0  0  0  0  0  0  0  0  0  0  0
  -18.4285  -41.7181   -8.9082 O   0  0  0  0  0  0  0  0  0  0  0  0
  -16.2928  -39.0046   -7.2807 C   0  0  2  0  0  0  0  0  0  0  0  0
  -16.0101  -38.7908   -5.9574 O   0  0  0  0  0  0  0  0  0  0  0  0
  -17.7491  -39.2482   -7.5330 C   0  0  0  0  0  0  0  0  0  0  0  0
  -18.7467  -38.4567   -7.0846 N   0  0  0  0  0  0  0  0  0  0  0  0
  -20.0853  -38.3479   -7.4081 C   0  0  0  0  0  0  0  0  0  0  0  0
  -20.6032  -37.2213   -8.2986 C   0  0  0  0  0  0  0  0  0  0  0  0
  -20.9582  -37.2225   -6.8811 C   0  0  0  0  0  0  0  0  0  0  0  0
  -20.8685  -39.6547   -7.4952 C   0  0  0  0  0  0  0  0  0  0  0  0
  -21.5216  -40.2330   -6.4633 C   0  0  0  0  0  0  0  0  0  0  0  0
  -22.2369  -41.4298   -6.6181 C   0  0  0  0  0  0  0  0  0  0  0  0
  -22.2751  -42.0299   -7.8530 C   0  0  0  0  0  0  0  0  0  0  0  0
  -21.6171  -41.4584   -8.9179 C   0  0  0  0  0  0  0  0  0  0  0  0
  -20.9200  -40.2736   -8.7249 C   0  0  0  0  0  0  0  0  0  0  0  0
  -22.9312  -42.0207   -5.4498 C   0  0  0  0  0  0  0  0  0  0  0  0
  -24.0561  -41.1458   -4.9390 C   0  0  0  0  0  0  0  0  0  0  0  0
  -21.9527  -42.3863   -4.3505 C   0  0  0  0  0  0  0  0  0  0  0  0
  -23.5836  -43.3441   -5.8767 C   0  0  0  0  0  0  0  0  0  0  0  0
  -16.7627  -42.7840  -13.2221 N   0  0  0  0  0  0  0  0  0  0  0  0
  1  2  1  0
  2  3  1  0
  3  4  1  0
  4  5  2  0
  5  6  1  0
  6  7  2  0
  7  8  1  0
  8  9  1  0
  9 10  1  0
 10 11  1  0
 11 12  1  0
 12 13  1  0
 13 14  1  0
 14 15  1  0
 15 16  1  0
 16 17  1  0
 17 18  1  1
 17 19  1  0
 20 19  1  6
 20 21  1  0
 21 22  1  0
 22 23  2  0
 20 24  1  0
 24 25  1  1
 24 26  1  0
 26 27  1  0
 27 28  1  0
 28 29  1  0
 29 30  1  0
 28 31  1  0
 31 32  2  0
 32 33  1  0
 33 34  2  0
 34 35  1  0
 35 36  2  0
 33 37  1  0
 37 38  1  0
 37 39  1  0
 37 40  1  0
  8 41  2  0
 22  6  1  0
 30 28  1  0
 36 31  1  0
 41  4  1  0
M  END
$$$$
