
     RDKit          3D

 41 44  0  0  0  0  0  0  0  0999 V2000
  -18.9532  -45.7109  -12.8295 C   0  0  0  0  0  0  0  0  0  0  0  0
  -19.6144  -44.5197  -12.6821 O   0  0  0  0  0  0  0  0  0  0  0  0
  -19.0821  -43.5069  -13.4335 C   0  0  0  0  0  0  0  0  0  0  0  0
  -18.7659  -42.2719  -12.6651 C   0  0  0  0  0  0  0  0  0  0  0  0
  -18.1903  -42.3350  -11.4320 C   0  0  0  0  0  0  0  0  0  0  0  0
  -17.8393  -41.1979  -10.6379 C   0  0  0  0  0  0  0  0  0  0  0  0
  -18.1114  -39.9581  -11.1776 C   0  0  0  0  0  0  0  0  0  0  0  0
  -18.6861  -39.8897  -12.4110 C   0  0  0  0  0  0  0  0  0  0  0  0
  -19.0970  -38.7994  -13.2519 N   0  0  0  0  0  0  0  0  0  0  0  0
  -18.3671  -37.6429  -13.7083 C   0  0  0  0  0  0  0  0  0  0  0  0
  -17.6348  -37.9068  -15.0066 C   0  0  0  0  0  0  0  0  0  0  0  0
  -16.2664  -37.2451  -15.0316 C   0  0  0  0  0  0  0  0  0  0  0  0
  -15.3838  -37.8326  -13.9659 C   0  0  0  0  0  0  0  0  0  0  0  0
  -15.2956  -36.9615  -12.8817 O   0  0  0  0  0  0  0  0  0  0  0  0
  -14.4445  -37.4881  -11.9171 C   0  0  0  0  0  0  0  0  0  0  0  0
  -15.1916  -37.4906  -10.6130 C   0  0  0  0  0  0  0  0  0  0  0  0
  -15.0450  -38.8161   -9.8657 C   0  0  1  0  0  0  0  0  0  0  0  0
  -13.5801  -38.8734   -9.4412 C   0  0  0  0  0  0  0  0  0  0  0  0
  -15.8573  -38.7067   -8.6160 C   0  0  0  0  0  0  0  0  0  0  0  0
  -15.8922  -39.9792   -7.8348 C   0  0  2  0  0  0  0  0  0  0  0  0
  -16.1779  -41.1889   -8.5481 N   0  0  0  0  0  0  0  0  0  0  0  0
  -17.2275  -41.5984   -9.3571 C   0  0  0  0  0  0  0  0  0  0  0  0
  -17.8391  -42.6602   -8.7938 O   0  0  0  0  0  0  0  0  0  0  0  0
  -16.7023  -39.7826   -6.5577 C   0  0  2  0  0  0  0  0  0  0  0  0
  -15.8477  -39.2070   -5.6549 O   0  0  0  0  0  0  0  0  0  0  0  0
  -17.1813  -41.1346   -6.1257 C   0  0  0  0  0  0  0  0  0  0  0  0
  -18.4091  -41.3875   -5.6243 N   0  0  0  0  0  0  0  0  0  0  0  0
  -19.5575  -41.9322   -6.1654 C   0  0  0  0  0  0  0  0  0  0  0  0
  -19.8483  -43.4286   -6.0822 C   0  0  0  0  0  0  0  0  0  0  0  0
  -19.5290  -42.8412   -7.3816 C   0  0  0  0  0  0  0  0  0  0  0  0
  -20.7901  -41.0326   -6.1818 C   0  0  0  0  0  0  0  0  0  0  0  0
  -21.4851  -40.6561   -5.0858 C   0  0  0  0  0  0  0  0  0  0  0  0
  -22.6024  -39.8122   -5.1722 C   0  0  0  0  0  0  0  0  0  0  0  0
  -23.0003  -39.3553   -6.4049 C   0  0  0  0  0  0  0  0  0  0  0  0
  -22.3070  -39.7261   -7.5343 C   0  0  0  0  0  0  0  0  0  0  0  0
  -21.2066  -40.5627   -7.4079 C   0  0  0  0  0  0  0  0  0  0  0  0
  -23.3287  -39.4352   -3.9368 C   0  0  0  0  0  0  0  0  0  0  0  0
  -24.8015  -39.7795   -4.0008 C   0  0  0  0  0  0  0  0  0  0  0  0
  -23.1014  -37.9783   -3.5832 C   0  0  0  0  0  0  0  0  0  0  0  0
  -22.7563  -40.2384   -2.7593 C   0  0  0  0  0  0  0  0  0  0  0  0
  -18.9922  -41.0595  -13.1099 N   0  0  0  0  0  0  0  0  0  0  0  0
  1  2  1  0
  2  3  1  0
  3  4  1  0
  4  5  2  0
  5  6  1  0
  6  7  2  0
  7  8  1  0
  8  9  1  0
  9 10  1  0
 10 11  1  0
 11 12  1  0
 12 13  1  0
 13 14  1  0
 14 15  1  0
 15 16  1  0
 16 17  1  0
 17 18  1  1
 17 19  1  0
 20 19  1  6
 20 21  1  0
 21 22  1  0
 22 23  2  0
 20 24  1  0
 24 25  1  1
 24 26  1  0
 26 27  1  0
 27 28  1  0
 28 29  1  0
 29 30  1  0
 28 31  1  0
 31 32  2  0
 32 33  1  0
 33 34  2  0
 34 35  1  0
 35 36  2  0
 33 37  1  0
 37 38  1  0
 37 39  1  0
 37 40  1  0
  8 41  2  0
 22  6  1  0
 30 28  1  0
 36 31  1  0
 41  4  1  0
M  END
$$$$
