
     RDKit          3D

 41 44  0  0  0  0  0  0  0  0999 V2000
  -19.1607  -47.3674  -11.6141 C   0  0  0  0  0  0  0  0  0  0  0  0
  -18.8195  -46.4175  -10.6872 O   0  0  0  0  0  0  0  0  0  0  0  0
  -19.3925  -46.6247   -9.4614 C   0  0  0  0  0  0  0  0  0  0  0  0
  -19.3383  -45.4487   -8.5506 C   0  0  0  0  0  0  0  0  0  0  0  0
  -18.7606  -44.2785   -8.9414 C   0  0  0  0  0  0  0  0  0  0  0  0
  -18.6834  -43.0992   -8.1351 C   0  0  0  0  0  0  0  0  0  0  0  0
  -19.2396  -43.1732   -6.8751 C   0  0  0  0  0  0  0  0  0  0  0  0
  -19.8195  -44.3411   -6.4799 C   0  0  0  0  0  0  0  0  0  0  0  0
  -20.4750  -44.7612   -5.2723 N   0  0  0  0  0  0  0  0  0  0  0  0
  -21.5654  -44.1635   -4.5427 C   0  0  0  0  0  0  0  0  0  0  0  0
  -22.9128  -44.6542   -5.0280 C   0  0  0  0  0  0  0  0  0  0  0  0
  -23.9473  -43.5407   -5.0531 C   0  0  0  0  0  0  0  0  0  0  0  0
  -23.5467  -42.4789   -6.0390 C   0  0  0  0  0  0  0  0  0  0  0  0
  -23.0226  -41.3751   -5.3690 O   0  0  0  0  0  0  0  0  0  0  0  0
  -22.6934  -40.3785   -6.2803 C   0  0  0  0  0  0  0  0  0  0  0  0
  -21.2633  -39.9926   -6.0259 C   0  0  0  0  0  0  0  0  0  0  0  0
  -20.4531  -39.8932   -7.3185 C   0  0  1  0  0  0  0  0  0  0  0  0
  -21.0259  -38.6854   -8.0550 C   0  0  0  0  0  0  0  0  0  0  0  0
  -19.0523  -39.5442   -6.9318 C   0  0  0  0  0  0  0  0  0  0  0  0
  -18.1188  -39.5196   -8.0975 C   0  0  2  0  0  0  0  0  0  0  0  0
  -18.1574  -40.6298   -9.0028 N   0  0  0  0  0  0  0  0  0  0  0  0
  -18.0046  -41.9994   -8.8456 C   0  0  0  0  0  0  0  0  0  0  0  0
  -16.9324  -42.4142   -9.5506 O   0  0  0  0  0  0  0  0  0  0  0  0
  -16.7218  -39.1184   -7.6358 C   0  0  2  0  0  0  0  0  0  0  0  0
  -16.8905  -38.4848   -6.4331 O   0  0  0  0  0  0  0  0  0  0  0  0
  -16.1481  -38.2226   -8.6904 C   0  0  0  0  0  0  0  0  0  0  0  0
  -15.0339  -38.4947   -9.4028 N   0  0  0  0  0  0  0  0  0  0  0  0
  -14.7933  -38.6680  -10.7520 C   0  0  0  0  0  0  0  0  0  0  0  0
  -15.9254  -38.6406  -11.7757 C   0  0  0  0  0  0  0  0  0  0  0  0
  -15.2475  -39.9064  -11.5045 C   0  0  0  0  0  0  0  0  0  0  0  0
  -13.4426  -38.1783  -11.2665 C   0  0  0  0  0  0  0  0  0  0  0  0
  -12.9608  -36.9270  -11.0991 C   0  0  0  0  0  0  0  0  0  0  0  0
  -11.7008  -36.5483  -11.5858 C   0  0  0  0  0  0  0  0  0  0  0  0
  -10.9352  -37.4754  -12.2499 C   0  0  0  0  0  0  0  0  0  0  0  0
  -11.4061  -38.7555  -12.4315 C   0  0  0  0  0  0  0  0  0  0  0  0
  -12.6581  -39.0921  -11.9354 C   0  0  0  0  0  0  0  0  0  0  0  0
  -11.2252  -35.1605  -11.3764 C   0  0  0  0  0  0  0  0  0  0  0  0
  -10.0084  -35.0926  -10.4783 C   0  0  0  0  0  0  0  0  0  0  0  0
  -12.3427  -34.2598  -10.8870 C   0  0  0  0  0  0  0  0  0  0  0  0
  -10.7878  -34.5760  -12.7278 C   0  0  0  0  0  0  0  0  0  0  0  0
  -19.8452  -45.4400   -7.3415 N   0  0  0  0  0  0  0  0  0  0  0  0
  1  2  1  0
  2  3  1  0
  3  4  1  0
  4  5  2  0
  5  6  1  0
  6  7  2  0
  7  8  1  0
  8  9  1  0
  9 10  1  0
 10 11  1  0
 11 12  1  0
 12 13  1  0
 13 14  1  0
 14 15  1  0
 15 16  1  0
 16 17  1  0
 17 18  1  6
 17 19  1  0
 20 19  1  1
 20 21  1  0
 21 22  1  0
 22 23  2  0
 20 24  1  0
 24 25  1  1
 24 26  1  0
 26 27  1  0
 27 28  1  0
 28 29  1  0
 29 30  1  0
 28 31  1  0
 31 32  2  0
 32 33  1  0
 33 34  2  0
 34 35  1  0
 35 36  2  0
 33 37  1  0
 37 38  1  0
 37 39  1  0
 37 40  1  0
  8 41  2  0
 22  6  1  0
 30 28  1  0
 36 31  1  0
 41  4  1  0
M  END
$$$$
