
     RDKit          3D

 41 44  0  0  0  0  0  0  0  0999 V2000
  -21.8276  -48.1824   -8.6264 C   0  0  0  0  0  0  0  0  0  0  0  0
  -21.3729  -47.1021   -9.3364 O   0  0  0  0  0  0  0  0  0  0  0  0
  -20.0798  -46.7638   -9.0412 C   0  0  0  0  0  0  0  0  0  0  0  0
  -19.9371  -45.5096   -8.2524 C   0  0  0  0  0  0  0  0  0  0  0  0
  -19.0418  -44.5475   -8.6110 C   0  0  0  0  0  0  0  0  0  0  0  0
  -18.8559  -43.3093   -7.9188 C   0  0  0  0  0  0  0  0  0  0  0  0
  -19.6500  -43.0935   -6.8118 C   0  0  0  0  0  0  0  0  0  0  0  0
  -20.5477  -44.0523   -6.4497 C   0  0  0  0  0  0  0  0  0  0  0  0
  -21.5054  -44.1590   -5.3839 N   0  0  0  0  0  0  0  0  0  0  0  0
  -22.5511  -43.2562   -4.9714 C   0  0  0  0  0  0  0  0  0  0  0  0
  -23.8532  -43.5231   -5.6960 C   0  0  0  0  0  0  0  0  0  0  0  0
  -24.5798  -42.2359   -6.0511 C   0  0  0  0  0  0  0  0  0  0  0  0
  -23.7615  -41.4248   -7.0168 C   0  0  0  0  0  0  0  0  0  0  0  0
  -23.1401  -40.3698   -6.3512 O   0  0  0  0  0  0  0  0  0  0  0  0
  -22.4196  -39.5969   -7.2543 C   0  0  0  0  0  0  0  0  0  0  0  0
  -21.0174  -39.4804   -6.7261 C   0  0  0  0  0  0  0  0  0  0  0  0
  -19.9690  -39.7279   -7.8109 C   0  0  1  0  0  0  0  0  0  0  0  0
  -20.0944  -38.5418   -8.7631 C   0  0  0  0  0  0  0  0  0  0  0  0
  -18.6291  -39.6227   -7.1573 C   0  0  0  0  0  0  0  0  0  0  0  0
  -17.5051  -39.9505   -8.0847 C   0  0  2  0  0  0  0  0  0  0  0  0
  -17.6189  -41.1433   -8.8707 N   0  0  0  0  0  0  0  0  0  0  0  0
  -17.8177  -42.4802   -8.5591 C   0  0  0  0  0  0  0  0  0  0  0  0
  -16.7523  -43.1986   -8.9683 O   0  0  0  0  0  0  0  0  0  0  0  0
  -16.1715  -39.7837   -7.3640 C   0  0  2  0  0  0  0  0  0  0  0  0
  -16.1917  -38.5259   -6.8217 O   0  0  0  0  0  0  0  0  0  0  0  0
  -15.0914  -39.9596   -8.3868 C   0  0  0  0  0  0  0  0  0  0  0  0
  -14.8980  -39.1428   -9.4442 N   0  0  0  0  0  0  0  0  0  0  0  0
  -13.8041  -38.8747  -10.2442 C   0  0  0  0  0  0  0  0  0  0  0  0
  -13.1105  -39.9744  -11.0442 C   0  0  0  0  0  0  0  0  0  0  0  0
  -12.4110  -39.3775   -9.9085 C   0  0  0  0  0  0  0  0  0  0  0  0
  -13.7492  -37.4845  -10.8712 C   0  0  0  0  0  0  0  0  0  0  0  0
  -12.8768  -37.1049  -11.8308 C   0  0  0  0  0  0  0  0  0  0  0  0
  -12.8925  -35.8121  -12.3752 C   0  0  0  0  0  0  0  0  0  0  0  0
  -13.8210  -34.9075  -11.9210 C   0  0  0  0  0  0  0  0  0  0  0  0
  -14.7190  -35.2728  -10.9444 C   0  0  0  0  0  0  0  0  0  0  0  0
  -14.6717  -36.5614  -10.4303 C   0  0  0  0  0  0  0  0  0  0  0  0
  -11.9090  -35.4502  -13.4229 C   0  0  0  0  0  0  0  0  0  0  0  0
  -10.6910  -34.7498  -12.8593 C   0  0  0  0  0  0  0  0  0  0  0  0
  -12.5562  -34.6531  -14.5388 C   0  0  0  0  0  0  0  0  0  0  0  0
  -11.3907  -36.7364  -14.0833 C   0  0  0  0  0  0  0  0  0  0  0  0
  -20.6552  -45.2308   -7.1914 N   0  0  0  0  0  0  0  0  0  0  0  0
  1  2  1  0
  2  3  1  0
  3  4  1  0
  4  5  2  0
  5  6  1  0
  6  7  2  0
  7  8  1  0
  8  9  1  0
  9 10  1  0
 10 11  1  0
 11 12  1  0
 12 13  1  0
 13 14  1  0
 14 15  1  0
 15 16  1  0
 16 17  1  0
 17 18  1  6
 17 19  1  0
 20 19  1  1
 20 21  1  0
 21 22  1  0
 22 23  2  0
 20 24  1  0
 24 25  1  6
 24 26  1  0
 26 27  1  0
 27 28  1  0
 28 29  1  0
 29 30  1  0
 28 31  1  0
 31 32  2  0
 32 33  1  0
 33 34  2  0
 34 35  1  0
 35 36  2  0
 33 37  1  0
 37 38  1  0
 37 39  1  0
 37 40  1  0
  8 41  2  0
 22  6  1  0
 30 28  1  0
 36 31  1  0
 41  4  1  0
M  END
$$$$
