
     RDKit          3D

 41 44  0  0  0  0  0  0  0  0999 V2000
  -18.8289  -46.7792   -4.3633 C   0  0  0  0  0  0  0  0  0  0  0  0
  -18.4148  -46.4110   -5.6167 O   0  0  0  0  0  0  0  0  0  0  0  0
  -19.4127  -45.8678   -6.3802 C   0  0  0  0  0  0  0  0  0  0  0  0
  -19.5244  -44.3867   -6.2829 C   0  0  0  0  0  0  0  0  0  0  0  0
  -18.7353  -43.5679   -7.0329 C   0  0  0  0  0  0  0  0  0  0  0  0
  -18.7922  -42.1385   -7.0116 C   0  0  0  0  0  0  0  0  0  0  0  0
  -19.7193  -41.5684   -6.1643 C   0  0  0  0  0  0  0  0  0  0  0  0
  -20.5116  -42.3831   -5.4128 C   0  0  0  0  0  0  0  0  0  0  0  0
  -21.5520  -42.1396   -4.4521 N   0  0  0  0  0  0  0  0  0  0  0  0
  -22.7477  -41.3400   -4.5498 C   0  0  0  0  0  0  0  0  0  0  0  0
  -23.9188  -42.1299   -5.0941 C   0  0  0  0  0  0  0  0  0  0  0  0
  -24.7721  -41.3012   -6.0407 C   0  0  0  0  0  0  0  0  0  0  0  0
  -23.9750  -40.9100   -7.2538 C   0  0  0  0  0  0  0  0  0  0  0  0
  -23.5753  -39.5785   -7.1563 O   0  0  0  0  0  0  0  0  0  0  0  0
  -22.8758  -39.2077   -8.2989 C   0  0  0  0  0  0  0  0  0  0  0  0
  -21.5652  -38.6231   -7.8525 C   0  0  0  0  0  0  0  0  0  0  0  0
  -20.3855  -39.1674   -8.6581 C   0  0  1  0  0  0  0  0  0  0  0  0
  -20.5704  -38.6038  -10.0643 C   0  0  0  0  0  0  0  0  0  0  0  0
  -19.1478  -38.5447   -8.0979 C   0  0  0  0  0  0  0  0  0  0  0  0
  -17.8991  -39.0724   -8.7249 C   0  0  2  0  0  0  0  0  0  0  0  0
  -17.7676  -40.4941   -8.8484 N   0  0  0  0  0  0  0  0  0  0  0  0
  -17.8148  -41.5425   -7.9415 C   0  0  0  0  0  0  0  0  0  0  0  0
  -16.6250  -42.1773   -7.9286 O   0  0  0  0  0  0  0  0  0  0  0  0
  -16.6831  -38.3659   -8.1354 C   0  0  2  0  0  0  0  0  0  0  0  0
  -16.8425  -37.0367   -8.4261 O   0  0  0  0  0  0  0  0  0  0  0  0
  -15.4697  -38.9617   -8.7809 C   0  0  0  0  0  0  0  0  0  0  0  0
  -14.3644  -38.2656   -9.1222 N   0  0  0  0  0  0  0  0  0  0  0  0
  -13.2624  -38.5632   -9.9002 C   0  0  0  0  0  0  0  0  0  0  0  0
  -12.6649  -39.9676   -9.9356 C   0  0  0  0  0  0  0  0  0  0  0  0
  -11.9085  -38.8930   -9.2966 C   0  0  0  0  0  0  0  0  0  0  0  0
  -13.1076  -37.7606  -11.1889 C   0  0  0  0  0  0  0  0  0  0  0  0
  -12.1232  -37.9413  -12.0968 C   0  0  0  0  0  0  0  0  0  0  0  0
  -12.0500  -37.1765  -13.2705 C   0  0  0  0  0  0  0  0  0  0  0  0
  -13.0060  -36.2181  -13.5037 C   0  0  0  0  0  0  0  0  0  0  0  0
  -14.0174  -36.0173  -12.5927 C   0  0  0  0  0  0  0  0  0  0  0  0
  -14.0557  -36.7940  -11.4429 C   0  0  0  0  0  0  0  0  0  0  0  0
  -10.9455  -37.4159  -14.2291 C   0  0  0  0  0  0  0  0  0  0  0  0
   -9.7048  -37.9676  -13.5598 C   0  0  0  0  0  0  0  0  0  0  0  0
  -10.6446  -36.1759  -15.0484 C   0  0  0  0  0  0  0  0  0  0  0  0
  -11.3896  -38.4810  -15.2428 C   0  0  0  0  0  0  0  0  0  0  0  0
  -20.3805  -43.7705   -5.5040 N   0  0  0  0  0  0  0  0  0  0  0  0
  1  2  1  0
  2  3  1  0
  3  4  1  0
  4  5  2  0
  5  6  1  0
  6  7  2  0
  7  8  1  0
  8  9  1  0
  9 10  1  0
 10 11  1  0
 11 12  1  0
 12 13  1  0
 13 14  1  0
 14 15  1  0
 15 16  1  0
 16 17  1  0
 17 18  1  6
 17 19  1  0
 20 19  1  1
 20 21  1  0
 21 22  1  0
 22 23  2  0
 20 24  1  0
 24 25  1  6
 24 26  1  0
 26 27  1  0
 27 28  1  0
 28 29  1  0
 29 30  1  0
 28 31  1  0
 31 32  2  0
 32 33  1  0
 33 34  2  0
 34 35  1  0
 35 36  2  0
 33 37  1  0
 37 38  1  0
 37 39  1  0
 37 40  1  0
  8 41  2  0
 22  6  1  0
 30 28  1  0
 36 31  1  0
 41  4  1  0
M  END
$$$$
