
     RDKit          3D

 32 32  0  0  0  0  0  0  0  0999 V2000
  -10.6026  -36.7040  -14.2188 C   0  0  0  0  0  0  0  0  0  0  0  0
  -10.8922  -36.0071  -12.8852 C   0  0  0  0  0  0  0  0  0  0  0  0
  -11.2441  -36.9173  -11.7884 C   0  0  0  0  0  0  0  0  0  0  0  0
  -12.5724  -37.5332  -11.7111 C   0  0  0  0  0  0  0  0  0  0  0  0
  -12.8425  -38.3906  -10.6135 N   0  0  0  0  0  0  0  0  0  0  0  0
  -14.0320  -39.0303  -10.2386 C   0  0  0  0  0  0  0  0  0  0  0  0
  -15.1082  -38.7593  -10.8023 O   0  0  0  0  0  0  0  0  0  0  0  0
  -14.0263  -40.0594   -9.1429 C   0  0  2  0  0  0  0  0  0  0  0  0
  -14.3168  -41.4318   -9.6751 C   0  0  0  0  0  0  0  0  0  0  0  0
  -15.1277  -39.6724   -8.1621 C   0  0  0  0  0  0  0  0  0  0  0  0
  -16.4212  -39.5013   -8.8741 C   0  0  2  0  0  0  0  0  0  0  0  0
  -16.7340  -38.1225   -9.0181 O   0  0  0  0  0  0  0  0  0  0  0  0
  -17.5661  -40.1756   -8.1019 C   0  0  2  0  0  0  0  0  0  0  0  0
  -17.9556  -39.3592   -6.9265 C   0  0  0  0  0  0  0  0  0  0  0  0
  -19.2204  -38.5640   -7.1084 C   0  0  2  0  0  0  0  0  0  0  0  0
  -19.2727  -37.4348   -6.1007 C   0  0  0  0  0  0  0  0  0  0  0  0
  -20.4587  -39.4208   -6.9632 C   0  0  0  0  0  0  0  0  0  0  0  0
  -21.7017  -38.6680   -7.2929 C   0  0  0  0  0  0  0  0  0  0  0  0
  -22.9243  -39.5434   -6.9828 C   0  0  0  0  0  0  0  0  0  0  0  0
  -22.5751  -41.0040   -7.2200 C   0  0  0  0  0  0  0  0  0  0  0  0
  -23.7066  -41.9430   -7.0151 C   0  0  2  0  0  0  0  0  0  0  0  0
  -24.7267  -41.2316   -6.1212 C   0  0  0  0  0  0  0  0  0  0  0  0
  -23.3541  -43.2254   -6.3523 C   0  0  0  0  0  0  0  0  0  0  0  0
  -21.8741  -43.4802   -6.1919 C   0  0  0  0  0  0  0  0  0  0  0  0
  -21.1354  -43.4810   -7.4558 C   0  0  0  0  0  0  0  0  0  0  0  0
  -21.7431  -43.7216   -8.5607 O   0  0  0  0  0  0  0  0  0  0  0  0
  -19.7454  -43.2171   -7.4756 N   0  0  0  0  0  0  0  0  0  0  0  0
  -18.9889  -42.7287   -6.3322 C   0  0  1  0  0  0  0  0  0  0  0  0
  -18.9596  -43.8767   -5.3372 C   0  0  0  0  0  0  0  0  0  0  0  0
  -17.6121  -42.3442   -6.7150 C   0  0  0  0  0  0  0  0  0  0  0  0
  -16.7201  -42.8435   -5.9301 O   0  0  0  0  0  0  0  0  0  0  0  0
  -17.1924  -41.5401   -7.7804 N   0  0  0  0  0  0  0  0  0  0  0  0
  1  2  1  0
  2  3  1  0
  3  4  1  0
  4  5  1  0
  5  6  1  0
  6  7  2  0
  6  8  1  0
  8  9  1  6
  8 10  1  0
 10 11  1  0
 11 12  1  1
 11 13  1  0
 13 14  1  1
 14 15  1  0
 15 16  1  1
 15 17  1  0
 17 18  1  0
 18 19  1  0
 19 20  1  0
 20 21  1  0
 21 22  1  1
 21 23  1  0
 23 24  1  0
 24 25  1  0
 25 26  2  0
 25 27  1  0
 27 28  1  0
 28 29  1  1
 28 30  1  0
 30 31  2  0
 30 32  1  0
 32 13  1  0
M  END
$$$$
