
     RDKit          3D

 32 32  0  0  0  0  0  0  0  0999 V2000
  -11.6444  -37.5737  -15.5901 C   0  0  0  0  0  0  0  0  0  0  0  0
  -12.6259  -36.5646  -14.9849 C   0  0  0  0  0  0  0  0  0  0  0  0
  -12.8525  -36.7276  -13.5436 C   0  0  0  0  0  0  0  0  0  0  0  0
  -13.7623  -37.7568  -13.0309 C   0  0  0  0  0  0  0  0  0  0  0  0
  -13.9772  -37.8130  -11.6296 N   0  0  0  0  0  0  0  0  0  0  0  0
  -14.3670  -38.8873  -10.8181 C   0  0  0  0  0  0  0  0  0  0  0  0
  -14.9340  -39.8827  -11.3049 O   0  0  0  0  0  0  0  0  0  0  0  0
  -14.1050  -38.8533   -9.3383 C   0  0  2  0  0  0  0  0  0  0  0  0
  -12.7476  -39.3999   -9.0069 C   0  0  0  0  0  0  0  0  0  0  0  0
  -15.1606  -39.7335   -8.6784 C   0  0  0  0  0  0  0  0  0  0  0  0
  -16.4980  -39.0896   -8.7578 C   0  0  2  0  0  0  0  0  0  0  0  0
  -16.4791  -37.8183   -8.1229 O   0  0  0  0  0  0  0  0  0  0  0  0
  -17.5654  -39.9547   -8.0693 C   0  0  2  0  0  0  0  0  0  0  0  0
  -17.7150  -39.5657   -6.6459 C   0  0  0  0  0  0  0  0  0  0  0  0
  -18.9284  -38.7254   -6.3511 C   0  0  2  0  0  0  0  0  0  0  0  0
  -18.7461  -37.9937   -5.0377 C   0  0  0  0  0  0  0  0  0  0  0  0
  -20.1937  -39.5523   -6.2907 C   0  0  0  0  0  0  0  0  0  0  0  0
  -21.4105  -38.7035   -6.1509 C   0  0  0  0  0  0  0  0  0  0  0  0
  -22.6377  -39.6031   -5.9455 C   0  0  0  0  0  0  0  0  0  0  0  0
  -22.4395  -40.9100   -6.6967 C   0  0  0  0  0  0  0  0  0  0  0  0
  -23.5971  -41.8366   -6.6248 C   0  0  2  0  0  0  0  0  0  0  0  0
  -24.4179  -41.4383   -5.3946 C   0  0  0  0  0  0  0  0  0  0  0  0
  -23.2502  -43.2743   -6.4801 C   0  0  0  0  0  0  0  0  0  0  0  0
  -21.7865  -43.6028   -6.6552 C   0  0  0  0  0  0  0  0  0  0  0  0
  -21.2432  -43.2016   -7.9540 C   0  0  0  0  0  0  0  0  0  0  0  0
  -22.0229  -43.0475   -8.9622 O   0  0  0  0  0  0  0  0  0  0  0  0
  -19.8551  -42.9791   -8.1143 N   0  0  0  0  0  0  0  0  0  0  0  0
  -18.9042  -42.9159   -7.0144 C   0  0  1  0  0  0  0  0  0  0  0  0
  -18.8171  -44.3294   -6.4637 C   0  0  0  0  0  0  0  0  0  0  0  0
  -17.5731  -42.4589   -7.4717 C   0  0  0  0  0  0  0  0  0  0  0  0
  -16.6164  -43.2113   -7.0478 O   0  0  0  0  0  0  0  0  0  0  0  0
  -17.2538  -41.3570   -8.2727 N   0  0  0  0  0  0  0  0  0  0  0  0
  1  2  1  0
  2  3  1  0
  3  4  1  0
  4  5  1  0
  5  6  1  0
  6  7  2  0
  6  8  1  0
  8  9  1  6
  8 10  1  0
 10 11  1  0
 11 12  1  1
 11 13  1  0
 13 14  1  1
 14 15  1  0
 15 16  1  1
 15 17  1  0
 17 18  1  0
 18 19  1  0
 19 20  1  0
 20 21  1  0
 21 22  1  1
 21 23  1  0
 23 24  1  0
 24 25  1  0
 25 26  2  0
 25 27  1  0
 27 28  1  0
 28 29  1  6
 28 30  1  0
 30 31  2  0
 30 32  1  0
 32 13  1  0
M  END
$$$$
