
     RDKit          3D

 32 32  0  0  0  0  0  0  0  0999 V2000
  -11.5383  -40.7979  -15.8939 C   0  0  0  0  0  0  0  0  0  0  0  0
  -12.9036  -40.2744  -15.4358 C   0  0  0  0  0  0  0  0  0  0  0  0
  -12.9063  -39.6789  -14.0939 C   0  0  0  0  0  0  0  0  0  0  0  0
  -13.6108  -40.3223  -12.9806 C   0  0  0  0  0  0  0  0  0  0  0  0
  -13.3503  -39.8481  -11.6690 N   0  0  0  0  0  0  0  0  0  0  0  0
  -13.8523  -40.2838  -10.4349 C   0  0  0  0  0  0  0  0  0  0  0  0
  -14.1685  -41.4746  -10.2584 O   0  0  0  0  0  0  0  0  0  0  0  0
  -14.0178  -39.3134   -9.2989 C   0  0  2  0  0  0  0  0  0  0  0  0
  -12.7264  -39.0982   -8.5661 C   0  0  0  0  0  0  0  0  0  0  0  0
  -15.0304  -39.9231   -8.3357 C   0  0  0  0  0  0  0  0  0  0  0  0
  -16.3594  -39.2784   -8.5019 C   0  0  2  0  0  0  0  0  0  0  0  0
  -16.4814  -38.1554   -7.6396 O   0  0  0  0  0  0  0  0  0  0  0  0
  -17.4921  -40.2631   -8.1717 C   0  0  2  0  0  0  0  0  0  0  0  0
  -18.0785  -39.9588   -6.8437 C   0  0  0  0  0  0  0  0  0  0  0  0
  -19.3994  -39.2391   -6.8930 C   0  0  2  0  0  0  0  0  0  0  0  0
  -19.6702  -38.5604   -5.5666 C   0  0  0  0  0  0  0  0  0  0  0  0
  -20.5450  -40.1712   -7.2203 C   0  0  0  0  0  0  0  0  0  0  0  0
  -21.8256  -39.4357   -7.4187 C   0  0  0  0  0  0  0  0  0  0  0  0
  -22.9694  -40.4442   -7.5978 C   0  0  0  0  0  0  0  0  0  0  0  0
  -22.4420  -41.6911   -8.2895 C   0  0  0  0  0  0  0  0  0  0  0  0
  -23.4787  -42.7141   -8.5769 C   0  0  2  0  0  0  0  0  0  0  0  0
  -24.6507  -42.4475   -7.6277 C   0  0  0  0  0  0  0  0  0  0  0  0
  -23.0531  -44.1230   -8.3713 C   0  0  0  0  0  0  0  0  0  0  0  0
  -21.5762  -44.3183   -8.1232 C   0  0  0  0  0  0  0  0  0  0  0  0
  -20.7249  -43.8092   -9.1998 C   0  0  0  0  0  0  0  0  0  0  0  0
  -21.1947  -43.6715  -10.3865 O   0  0  0  0  0  0  0  0  0  0  0  0
  -19.3763  -43.4633   -8.9466 N   0  0  0  0  0  0  0  0  0  0  0  0
  -18.7900  -43.3748   -7.6176 C   0  0  1  0  0  0  0  0  0  0  0  0
  -18.7305  -44.8014   -7.0981 C   0  0  0  0  0  0  0  0  0  0  0  0
  -17.4332  -42.7855   -7.6598 C   0  0  0  0  0  0  0  0  0  0  0  0
  -16.5708  -43.4749   -6.9949 O   0  0  0  0  0  0  0  0  0  0  0  0
  -17.0041  -41.6225   -8.3087 N   0  0  0  0  0  0  0  0  0  0  0  0
  1  2  1  0
  2  3  1  0
  3  4  1  0
  4  5  1  0
  5  6  1  0
  6  7  2  0
  6  8  1  0
  8  9  1  1
  8 10  1  0
 10 11  1  0
 11 12  1  1
 11 13  1  0
 13 14  1  1
 14 15  1  0
 15 16  1  1
 15 17  1  0
 17 18  1  0
 18 19  1  0
 19 20  1  0
 20 21  1  0
 21 22  1  1
 21 23  1  0
 23 24  1  0
 24 25  1  0
 25 26  2  0
 25 27  1  0
 27 28  1  0
 28 29  1  6
 28 30  1  0
 30 31  2  0
 30 32  1  0
 32 13  1  0
M  END
$$$$
