
     RDKit          3D

 32 32  0  0  0  0  0  0  0  0999 V2000
  -11.4288  -44.3188  -10.0924 C   0  0  0  0  0  0  0  0  0  0  0  0
  -11.6309  -42.9511   -9.4317 C   0  0  0  0  0  0  0  0  0  0  0  0
  -12.8948  -42.2898   -9.7791 C   0  0  0  0  0  0  0  0  0  0  0  0
  -13.2120  -40.9495   -9.2765 C   0  0  0  0  0  0  0  0  0  0  0  0
  -14.5005  -40.4250   -9.5554 N   0  0  0  0  0  0  0  0  0  0  0  0
  -14.9624  -39.1019   -9.5275 C   0  0  0  0  0  0  0  0  0  0  0  0
  -14.5928  -38.3149   -8.6369 O   0  0  0  0  0  0  0  0  0  0  0  0
  -15.9174  -38.6103  -10.5791 C   0  0  2  0  0  0  0  0  0  0  0  0
  -15.1976  -37.9017  -11.6886 C   0  0  0  0  0  0  0  0  0  0  0  0
  -16.8596  -37.6231   -9.8992 C   0  0  0  0  0  0  0  0  0  0  0  0
  -18.2753  -37.9754  -10.1838 C   0  0  2  0  0  0  0  0  0  0  0  0
  -19.1183  -36.8463   -9.9988 O   0  0  0  0  0  0  0  0  0  0  0  0
  -18.7605  -39.0954   -9.2501 C   0  0  2  0  0  0  0  0  0  0  0  0
  -18.4955  -38.7461   -7.8332 C   0  0  0  0  0  0  0  0  0  0  0  0
  -19.7030  -38.2742   -7.0686 C   0  0  2  0  0  0  0  0  0  0  0  0
  -19.2699  -37.5046   -5.8384 C   0  0  0  0  0  0  0  0  0  0  0  0
  -20.5976  -39.4205   -6.6515 C   0  0  0  0  0  0  0  0  0  0  0  0
  -21.8652  -38.9434   -6.0301 C   0  0  0  0  0  0  0  0  0  0  0  0
  -22.6551  -40.1470   -5.4966 C   0  0  0  0  0  0  0  0  0  0  0  0
  -22.3958  -41.3558   -6.3814 C   0  0  0  0  0  0  0  0  0  0  0  0
  -23.1632  -42.5678   -5.9991 C   0  0  2  0  0  0  0  0  0  0  0  0
  -23.5711  -42.3992   -4.5324 C   0  0  0  0  0  0  0  0  0  0  0  0
  -22.4196  -43.8497   -6.1081 C   0  0  0  0  0  0  0  0  0  0  0  0
  -21.0809  -43.7588   -6.8015 C   0  0  0  0  0  0  0  0  0  0  0  0
  -21.1584  -43.2380   -8.1675 C   0  0  0  0  0  0  0  0  0  0  0  0
  -22.2547  -43.3200   -8.8304 O   0  0  0  0  0  0  0  0  0  0  0  0
  -20.0285  -42.6390   -8.7730 N   0  0  0  0  0  0  0  0  0  0  0  0
  -18.8038  -42.2994   -8.0639 C   0  0  1  0  0  0  0  0  0  0  0  0
  -18.1564  -43.6255   -7.7022 C   0  0  0  0  0  0  0  0  0  0  0  0
  -17.8922  -41.4947   -8.9073 C   0  0  0  0  0  0  0  0  0  0  0  0
  -16.6846  -41.9450   -8.9040 O   0  0  0  0  0  0  0  0  0  0  0  0
  -18.1808  -40.3575   -9.6696 N   0  0  0  0  0  0  0  0  0  0  0  0
  1  2  1  0
  2  3  1  0
  3  4  1  0
  4  5  1  0
  5  6  1  0
  6  7  2  0
  6  8  1  0
  8  9  1  6
  8 10  1  0
 10 11  1  0
 11 12  1  1
 11 13  1  0
 13 14  1  1
 14 15  1  0
 15 16  1  1
 15 17  1  0
 17 18  1  0
 18 19  1  0
 19 20  1  0
 20 21  1  0
 21 22  1  1
 21 23  1  0
 23 24  1  0
 24 25  1  0
 25 26  2  0
 25 27  1  0
 27 28  1  0
 28 29  1  6
 28 30  1  0
 30 31  2  0
 30 32  1  0
 32 13  1  0
M  END
$$$$
