
     RDKit          3D

 32 32  0  0  0  0  0  0  0  0999 V2000
  -14.2459  -34.5372  -13.2832 C   0  0  0  0  0  0  0  0  0  0  0  0
  -13.1541  -35.6081  -13.3786 C   0  0  0  0  0  0  0  0  0  0  0  0
  -13.3985  -36.7992  -12.5560 C   0  0  0  0  0  0  0  0  0  0  0  0
  -12.7189  -36.9848  -11.2701 C   0  0  0  0  0  0  0  0  0  0  0  0
  -12.8022  -38.2604  -10.6546 N   0  0  0  0  0  0  0  0  0  0  0  0
  -13.7828  -39.2555  -10.7678 C   0  0  0  0  0  0  0  0  0  0  0  0
  -14.2961  -39.5241  -11.8694 O   0  0  0  0  0  0  0  0  0  0  0  0
  -14.2327  -40.0178   -9.5529 C   0  0  2  0  0  0  0  0  0  0  0  0
  -13.4696  -41.2997   -9.3934 C   0  0  0  0  0  0  0  0  0  0  0  0
  -15.7073  -40.3489   -9.7551 C   0  0  0  0  0  0  0  0  0  0  0  0
  -16.5602  -39.4372   -8.9483 C   0  0  2  0  0  0  0  0  0  0  0  0
  -15.7829  -38.7622   -7.9686 O   0  0  0  0  0  0  0  0  0  0  0  0
  -17.6695  -40.2187   -8.2269 C   0  0  2  0  0  0  0  0  0  0  0  0
  -17.8946  -39.6714   -6.8669 C   0  0  0  0  0  0  0  0  0  0  0  0
  -19.1168  -38.8028   -6.7363 C   0  0  2  0  0  0  0  0  0  0  0  0
  -19.0022  -37.9276   -5.5058 C   0  0  0  0  0  0  0  0  0  0  0  0
  -20.3889  -39.6172   -6.6533 C   0  0  0  0  0  0  0  0  0  0  0  0
  -21.6060  -38.7578   -6.6777 C   0  0  0  0  0  0  0  0  0  0  0  0
  -22.8485  -39.6280   -6.4404 C   0  0  0  0  0  0  0  0  0  0  0  0
  -22.6179  -41.0114   -7.0273 C   0  0  0  0  0  0  0  0  0  0  0  0
  -23.7837  -41.9237   -6.9156 C   0  0  2  0  0  0  0  0  0  0  0  0
  -24.6683  -41.3887   -5.7855 C   0  0  0  0  0  0  0  0  0  0  0  0
  -23.4548  -43.3359   -6.5907 C   0  0  0  0  0  0  0  0  0  0  0  0
  -21.9858  -43.6826   -6.6463 C   0  0  0  0  0  0  0  0  0  0  0  0
  -21.3693  -43.4308   -7.9500 C   0  0  0  0  0  0  0  0  0  0  0  0
  -22.0913  -43.3913   -9.0108 O   0  0  0  0  0  0  0  0  0  0  0  0
  -19.9730  -43.2282   -8.0572 N   0  0  0  0  0  0  0  0  0  0  0  0
  -19.0836  -43.0415   -6.9205 C   0  0  1  0  0  0  0  0  0  0  0  0
  -19.0362  -44.3837   -6.2101 C   0  0  0  0  0  0  0  0  0  0  0  0
  -17.7264  -42.6394   -7.3521 C   0  0  0  0  0  0  0  0  0  0  0  0
  -16.7994  -43.3394   -6.7937 O   0  0  0  0  0  0  0  0  0  0  0  0
  -17.3564  -41.6351   -8.2533 N   0  0  0  0  0  0  0  0  0  0  0  0
  1  2  1  0
  2  3  1  0
  3  4  1  0
  4  5  1  0
  5  6  1  0
  6  7  2  0
  6  8  1  0
  8  9  1  6
  8 10  1  0
 10 11  1  0
 11 12  1  1
 11 13  1  0
 13 14  1  1
 14 15  1  0
 15 16  1  1
 15 17  1  0
 17 18  1  0
 18 19  1  0
 19 20  1  0
 20 21  1  0
 21 22  1  1
 21 23  1  0
 23 24  1  0
 24 25  1  0
 25 26  2  0
 25 27  1  0
 27 28  1  0
 28 29  1  6
 28 30  1  0
 30 31  2  0
 30 32  1  0
 32 13  1  0
M  END
$$$$
