
     RDKit          3D

 32 32  0  0  0  0  0  0  0  0999 V2000
  -10.8029  -36.3392  -14.8153 C   0  0  0  0  0  0  0  0  0  0  0  0
  -11.9398  -35.6166  -14.0851 C   0  0  0  0  0  0  0  0  0  0  0  0
  -12.2621  -36.1708  -12.7645 C   0  0  0  0  0  0  0  0  0  0  0  0
  -13.3391  -37.1515  -12.5963 C   0  0  0  0  0  0  0  0  0  0  0  0
  -13.3298  -37.9516  -11.4247 N   0  0  0  0  0  0  0  0  0  0  0  0
  -14.2620  -38.8928  -10.9665 C   0  0  0  0  0  0  0  0  0  0  0  0
  -14.8457  -39.6528  -11.7609 O   0  0  0  0  0  0  0  0  0  0  0  0
  -14.5734  -38.9989   -9.4998 C   0  0  2  0  0  0  0  0  0  0  0  0
  -13.4358  -39.6133   -8.7385 C   0  0  0  0  0  0  0  0  0  0  0  0
  -15.7944  -39.9025   -9.3675 C   0  0  0  0  0  0  0  0  0  0  0  0
  -16.9546  -39.1352   -8.8434 C   0  0  2  0  0  0  0  0  0  0  0  0
  -16.5216  -38.1355   -7.9309 O   0  0  0  0  0  0  0  0  0  0  0  0
  -17.9388  -40.0606   -8.1109 C   0  0  2  0  0  0  0  0  0  0  0  0
  -18.2200  -39.5499   -6.7471 C   0  0  0  0  0  0  0  0  0  0  0  0
  -19.5473  -38.8555   -6.6003 C   0  0  2  0  0  0  0  0  0  0  0  0
  -19.5380  -37.9736   -5.3692 C   0  0  0  0  0  0  0  0  0  0  0  0
  -20.6959  -39.8352   -6.5043 C   0  0  0  0  0  0  0  0  0  0  0  0
  -22.0186  -39.1491   -6.5126 C   0  0  0  0  0  0  0  0  0  0  0  0
  -23.1285  -40.1801   -6.2628 C   0  0  0  0  0  0  0  0  0  0  0  0
  -22.7191  -41.5190   -6.8554 C   0  0  0  0  0  0  0  0  0  0  0  0
  -23.7488  -42.5813   -6.7322 C   0  0  2  0  0  0  0  0  0  0  0  0
  -24.6844  -42.1723   -5.5907 C   0  0  0  0  0  0  0  0  0  0  0  0
  -23.2272  -43.9360   -6.4145 C   0  0  0  0  0  0  0  0  0  0  0  0
  -21.7256  -44.0798   -6.4880 C   0  0  0  0  0  0  0  0  0  0  0  0
  -21.1645  -43.7457   -7.7982 C   0  0  0  0  0  0  0  0  0  0  0  0
  -21.8977  -43.8040   -8.8503 O   0  0  0  0  0  0  0  0  0  0  0  0
  -19.8100  -43.3553   -7.9212 N   0  0  0  0  0  0  0  0  0  0  0  0
  -18.9408  -43.0502   -6.7945 C   0  0  1  0  0  0  0  0  0  0  0  0
  -18.7031  -44.3741   -6.0877 C   0  0  0  0  0  0  0  0  0  0  0  0
  -17.6560  -42.4672   -7.2410 C   0  0  0  0  0  0  0  0  0  0  0  0
  -16.6360  -43.0352   -6.6951 O   0  0  0  0  0  0  0  0  0  0  0  0
  -17.4366  -41.4214   -8.1442 N   0  0  0  0  0  0  0  0  0  0  0  0
  1  2  1  0
  2  3  1  0
  3  4  1  0
  4  5  1  0
  5  6  1  0
  6  7  2  0
  6  8  1  0
  8  9  1  1
  8 10  1  0
 10 11  1  0
 11 12  1  1
 11 13  1  0
 13 14  1  1
 14 15  1  0
 15 16  1  1
 15 17  1  0
 17 18  1  0
 18 19  1  0
 19 20  1  0
 20 21  1  0
 21 22  1  1
 21 23  1  0
 23 24  1  0
 24 25  1  0
 25 26  2  0
 25 27  1  0
 27 28  1  0
 28 29  1  6
 28 30  1  0
 30 31  2  0
 30 32  1  0
 32 13  1  0
M  END
$$$$
