
     RDKit          3D

 32 32  0  0  0  0  0  0  0  0999 V2000
  -14.5705  -36.0630  -14.0638 C   0  0  0  0  0  0  0  0  0  0  0  0
  -14.4979  -37.1342  -12.9706 C   0  0  0  0  0  0  0  0  0  0  0  0
  -13.5340  -36.8462  -11.9014 C   0  0  0  0  0  0  0  0  0  0  0  0
  -12.5669  -37.8562  -11.4605 C   0  0  0  0  0  0  0  0  0  0  0  0
  -12.6836  -38.3518  -10.1362 N   0  0  0  0  0  0  0  0  0  0  0  0
  -13.4433  -39.4177   -9.6346 C   0  0  0  0  0  0  0  0  0  0  0  0
  -14.1745  -40.0898  -10.3849 O   0  0  0  0  0  0  0  0  0  0  0  0
  -13.3867  -39.7671   -8.1737 C   0  0  2  0  0  0  0  0  0  0  0  0
  -12.2229  -40.6629   -7.8666 C   0  0  0  0  0  0  0  0  0  0  0  0
  -14.6761  -40.5105   -7.8428 C   0  0  0  0  0  0  0  0  0  0  0  0
  -15.8550  -39.7508   -8.3352 C   0  0  2  0  0  0  0  0  0  0  0  0
  -15.8984  -38.4582   -7.7462 O   0  0  0  0  0  0  0  0  0  0  0  0
  -17.1622  -40.4809   -7.9885 C   0  0  2  0  0  0  0  0  0  0  0  0
  -17.6638  -40.0521   -6.6602 C   0  0  0  0  0  0  0  0  0  0  0  0
  -18.8105  -39.0785   -6.7088 C   0  0  2  0  0  0  0  0  0  0  0  0
  -18.9269  -38.3476   -5.3876 C   0  0  0  0  0  0  0  0  0  0  0  0
  -20.1246  -39.7602   -7.0200 C   0  0  0  0  0  0  0  0  0  0  0  0
  -21.2299  -38.7806   -7.2182 C   0  0  0  0  0  0  0  0  0  0  0  0
  -22.5566  -39.5361   -7.3804 C   0  0  0  0  0  0  0  0  0  0  0  0
  -22.3000  -40.8703   -8.0628 C   0  0  0  0  0  0  0  0  0  0  0  0
  -23.5257  -41.6628   -8.3339 C   0  0  2  0  0  0  0  0  0  0  0  0
  -24.6113  -41.1546   -7.3805 C   0  0  0  0  0  0  0  0  0  0  0  0
  -23.3948  -43.1270   -8.1168 C   0  0  0  0  0  0  0  0  0  0  0  0
  -21.9868  -43.6173   -7.8755 C   0  0  0  0  0  0  0  0  0  0  0  0
  -21.0580  -43.3018   -8.9622 C   0  0  0  0  0  0  0  0  0  0  0  0
  -21.4992  -43.0813  -10.1474 O   0  0  0  0  0  0  0  0  0  0  0  0
  -19.6653  -43.2360   -8.7205 N   0  0  0  0  0  0  0  0  0  0  0  0
  -19.0629  -43.2577   -7.3959 C   0  0  1  0  0  0  0  0  0  0  0  0
  -19.2915  -44.6620   -6.8626 C   0  0  0  0  0  0  0  0  0  0  0  0
  -17.6148  -42.9579   -7.4520 C   0  0  0  0  0  0  0  0  0  0  0  0
  -16.9059  -43.8030   -6.7854 O   0  0  0  0  0  0  0  0  0  0  0  0
  -16.9627  -41.9124   -8.1149 N   0  0  0  0  0  0  0  0  0  0  0  0
  1  2  1  0
  2  3  1  0
  3  4  1  0
  4  5  1  0
  5  6  1  0
  6  7  2  0
  6  8  1  0
  8  9  1  6
  8 10  1  0
 10 11  1  0
 11 12  1  1
 11 13  1  0
 13 14  1  1
 14 15  1  0
 15 16  1  1
 15 17  1  0
 17 18  1  0
 18 19  1  0
 19 20  1  0
 20 21  1  0
 21 22  1  1
 21 23  1  0
 23 24  1  0
 24 25  1  0
 25 26  2  0
 25 27  1  0
 27 28  1  0
 28 29  1  6
 28 30  1  0
 30 31  2  0
 30 32  1  0
 32 13  1  0
M  END
$$$$
