
     RDKit          3D

 32 32  0  0  0  0  0  0  0  0999 V2000
  -16.8627  -41.4494  -15.4057 C   0  0  0  0  0  0  0  0  0  0  0  0
  -16.2623  -42.0607  -14.1353 C   0  0  0  0  0  0  0  0  0  0  0  0
  -16.2076  -41.1457  -12.9886 C   0  0  0  0  0  0  0  0  0  0  0  0
  -14.9879  -40.3946  -12.6757 C   0  0  0  0  0  0  0  0  0  0  0  0
  -15.0139  -39.5258  -11.5543 N   0  0  0  0  0  0  0  0  0  0  0  0
  -14.9769  -39.8185  -10.1840 C   0  0  0  0  0  0  0  0  0  0  0  0
  -15.2139  -40.9680   -9.7698 O   0  0  0  0  0  0  0  0  0  0  0  0
  -14.6489  -38.7418   -9.1877 C   0  0  2  0  0  0  0  0  0  0  0  0
  -13.1958  -38.7609   -8.8148 C   0  0  0  0  0  0  0  0  0  0  0  0
  -15.4775  -39.0226   -7.9390 C   0  0  0  0  0  0  0  0  0  0  0  0
  -16.9132  -38.7322   -8.1917 C   0  0  2  0  0  0  0  0  0  0  0  0
  -17.3018  -37.5294   -7.5420 O   0  0  0  0  0  0  0  0  0  0  0  0
  -17.8037  -39.8702   -7.6684 C   0  0  2  0  0  0  0  0  0  0  0  0
  -17.8957  -39.8237   -6.1888 C   0  0  0  0  0  0  0  0  0  0  0  0
  -19.1829  -39.2509   -5.6596 C   0  0  2  0  0  0  0  0  0  0  0  0
  -18.9998  -38.8018   -4.2249 C   0  0  0  0  0  0  0  0  0  0  0  0
  -20.3211  -40.2447   -5.7305 C   0  0  0  0  0  0  0  0  0  0  0  0
  -21.6245  -39.6307   -5.3501 C   0  0  0  0  0  0  0  0  0  0  0  0
  -22.7046  -40.7206   -5.2978 C   0  0  0  0  0  0  0  0  0  0  0  0
  -22.3942  -41.7918   -6.3311 C   0  0  0  0  0  0  0  0  0  0  0  0
  -23.4120  -42.8690   -6.4179 C   0  0  2  0  0  0  0  0  0  0  0  0
  -24.1832  -42.8686   -5.0947 C   0  0  0  0  0  0  0  0  0  0  0  0
  -22.8703  -44.2387   -6.6151 C   0  0  0  0  0  0  0  0  0  0  0  0
  -21.3935  -44.3071   -6.9239 C   0  0  0  0  0  0  0  0  0  0  0  0
  -21.0063  -43.5607   -8.1223 C   0  0  0  0  0  0  0  0  0  0  0  0
  -21.8729  -43.3064   -9.0347 O   0  0  0  0  0  0  0  0  0  0  0  0
  -19.6751  -43.1111   -8.2898 N   0  0  0  0  0  0  0  0  0  0  0  0
  -18.6608  -43.1507   -7.2469 C   0  0  1  0  0  0  0  0  0  0  0  0
  -18.3486  -44.6221   -7.0319 C   0  0  0  0  0  0  0  0  0  0  0  0
  -17.4390  -42.4187   -7.6484 C   0  0  0  0  0  0  0  0  0  0  0  0
  -16.3631  -43.0990   -7.4469 O   0  0  0  0  0  0  0  0  0  0  0  0
  -17.3276  -41.1355   -8.1950 N   0  0  0  0  0  0  0  0  0  0  0  0
  1  2  1  0
  2  3  1  0
  3  4  1  0
  4  5  1  0
  5  6  1  0
  6  7  2  0
  6  8  1  0
  8  9  1  1
  8 10  1  0
 10 11  1  0
 11 12  1  1
 11 13  1  0
 13 14  1  1
 14 15  1  0
 15 16  1  1
 15 17  1  0
 17 18  1  0
 18 19  1  0
 19 20  1  0
 20 21  1  0
 21 22  1  1
 21 23  1  0
 23 24  1  0
 24 25  1  0
 25 26  2  0
 25 27  1  0
 27 28  1  0
 28 29  1  6
 28 30  1  0
 30 31  2  0
 30 32  1  0
 32 13  1  0
M  END
$$$$
