
     RDKit          3D

 32 32  0  0  0  0  0  0  0  0999 V2000
  -13.4435  -35.2510  -13.4232 C   0  0  0  0  0  0  0  0  0  0  0  0
  -12.2136  -36.1585  -13.5314 C   0  0  0  0  0  0  0  0  0  0  0  0
  -12.1156  -37.1763  -12.4780 C   0  0  0  0  0  0  0  0  0  0  0  0
  -13.0436  -38.3105  -12.4312 C   0  0  0  0  0  0  0  0  0  0  0  0
  -13.9203  -38.4040  -11.3196 N   0  0  0  0  0  0  0  0  0  0  0  0
  -14.2848  -39.5160  -10.5480 C   0  0  0  0  0  0  0  0  0  0  0  0
  -14.8147  -40.5121  -11.0734 O   0  0  0  0  0  0  0  0  0  0  0  0
  -14.0403  -39.5221   -9.0648 C   0  0  2  0  0  0  0  0  0  0  0  0
  -12.7566  -40.2188   -8.7214 C   0  0  0  0  0  0  0  0  0  0  0  0
  -15.1959  -40.2842   -8.4257 C   0  0  0  0  0  0  0  0  0  0  0  0
  -16.4392  -39.4704   -8.4634 C   0  0  2  0  0  0  0  0  0  0  0  0
  -16.2621  -38.2538   -7.7505 O   0  0  0  0  0  0  0  0  0  0  0  0
  -17.6134  -40.2325   -7.8291 C   0  0  2  0  0  0  0  0  0  0  0  0
  -17.9948  -39.6201   -6.5332 C   0  0  0  0  0  0  0  0  0  0  0  0
  -19.2334  -38.7667   -6.5848 C   0  0  2  0  0  0  0  0  0  0  0  0
  -19.2664  -37.8277   -5.3971 C   0  0  0  0  0  0  0  0  0  0  0  0
  -20.4978  -39.5970   -6.6004 C   0  0  0  0  0  0  0  0  0  0  0  0
  -21.7140  -38.7606   -6.8048 C   0  0  0  0  0  0  0  0  0  0  0  0
  -22.9655  -39.6382   -6.6610 C   0  0  0  0  0  0  0  0  0  0  0  0
  -22.6556  -41.0458   -7.1449 C   0  0  0  0  0  0  0  0  0  0  0  0
  -23.8165  -41.9707   -7.1150 C   0  0  2  0  0  0  0  0  0  0  0  0
  -24.8275  -41.3935   -6.1197 C   0  0  0  0  0  0  0  0  0  0  0  0
  -23.5103  -43.3587   -6.6817 C   0  0  0  0  0  0  0  0  0  0  0  0
  -22.0406  -43.6830   -6.5558 C   0  0  0  0  0  0  0  0  0  0  0  0
  -21.2854  -43.4879   -7.7946 C   0  0  0  0  0  0  0  0  0  0  0  0
  -21.8850  -43.5150   -8.9294 O   0  0  0  0  0  0  0  0  0  0  0  0
  -19.8881  -43.2677   -7.7571 N   0  0  0  0  0  0  0  0  0  0  0  0
  -19.1332  -43.0080   -6.5402 C   0  0  1  0  0  0  0  0  0  0  0  0
  -19.1505  -44.3111   -5.7591 C   0  0  0  0  0  0  0  0  0  0  0  0
  -17.7408  -42.6058   -6.8394 C   0  0  0  0  0  0  0  0  0  0  0  0
  -16.8742  -43.2606   -6.1457 O   0  0  0  0  0  0  0  0  0  0  0  0
  -17.2837  -41.6429   -7.7459 N   0  0  0  0  0  0  0  0  0  0  0  0
  1  2  1  0
  2  3  1  0
  3  4  1  0
  4  5  1  0
  5  6  1  0
  6  7  2  0
  6  8  1  0
  8  9  1  6
  8 10  1  0
 10 11  1  0
 11 12  1  1
 11 13  1  0
 13 14  1  1
 14 15  1  0
 15 16  1  1
 15 17  1  0
 17 18  1  0
 18 19  1  0
 19 20  1  0
 20 21  1  0
 21 22  1  1
 21 23  1  0
 23 24  1  0
 24 25  1  0
 25 26  2  0
 25 27  1  0
 27 28  1  0
 28 29  1  1
 28 30  1  0
 30 31  2  0
 30 32  1  0
 32 13  1  0
M  END
$$$$
