
     RDKit          3D

 32 32  0  0  0  0  0  0  0  0999 V2000
  -15.4398  -38.2293  -15.3589 C   0  0  0  0  0  0  0  0  0  0  0  0
  -15.0370  -38.4731  -13.9007 C   0  0  0  0  0  0  0  0  0  0  0  0
  -13.6930  -37.9949  -13.5541 C   0  0  0  0  0  0  0  0  0  0  0  0
  -13.4735  -37.1263  -12.3935 C   0  0  0  0  0  0  0  0  0  0  0  0
  -13.1247  -37.7401  -11.1628 N   0  0  0  0  0  0  0  0  0  0  0  0
  -13.9066  -38.4917  -10.2750 C   0  0  0  0  0  0  0  0  0  0  0  0
  -14.5853  -39.4539  -10.6787 O   0  0  0  0  0  0  0  0  0  0  0  0
  -13.9382  -38.1448   -8.8127 C   0  0  2  0  0  0  0  0  0  0  0  0
  -12.6033  -38.3678   -8.1650 C   0  0  0  0  0  0  0  0  0  0  0  0
  -14.9595  -39.0681   -8.1575 C   0  0  0  0  0  0  0  0  0  0  0  0
  -16.3384  -38.5603   -8.3817 C   0  0  2  0  0  0  0  0  0  0  0  0
  -16.5848  -37.4126   -7.5806 O   0  0  0  0  0  0  0  0  0  0  0  0
  -17.3821  -39.6297   -8.0229 C   0  0  2  0  0  0  0  0  0  0  0  0
  -17.8766  -39.4337   -6.6384 C   0  0  0  0  0  0  0  0  0  0  0  0
  -19.2366  -38.7959   -6.5440 C   0  0  2  0  0  0  0  0  0  0  0  0
  -19.4388  -38.2070   -5.1636 C   0  0  0  0  0  0  0  0  0  0  0  0
  -20.3489  -39.7789   -6.8357 C   0  0  0  0  0  0  0  0  0  0  0  0
  -21.6817  -39.1149   -6.8920 C   0  0  0  0  0  0  0  0  0  0  0  0
  -22.7759  -40.1817   -7.0407 C   0  0  0  0  0  0  0  0  0  0  0  0
  -22.2345  -41.3548   -7.8420 C   0  0  0  0  0  0  0  0  0  0  0  0
  -23.2300  -42.4236   -8.1076 C   0  0  2  0  0  0  0  0  0  0  0  0
  -24.3355  -42.2813   -7.0572 C   0  0  0  0  0  0  0  0  0  0  0  0
  -22.7085  -43.8122   -8.0174 C   0  0  0  0  0  0  0  0  0  0  0  0
  -21.2076  -43.9282   -7.8954 C   0  0  0  0  0  0  0  0  0  0  0  0
  -20.4764  -43.3105   -9.0030 C   0  0  0  0  0  0  0  0  0  0  0  0
  -21.0472  -43.1393  -10.1401 O   0  0  0  0  0  0  0  0  0  0  0  0
  -19.1342  -42.8952   -8.8348 N   0  0  0  0  0  0  0  0  0  0  0  0
  -18.4491  -42.8413   -7.5519 C   0  0  1  0  0  0  0  0  0  0  0  0
  -18.2657  -44.2871   -7.1221 C   0  0  0  0  0  0  0  0  0  0  0  0
  -17.1364  -42.1673   -7.6642 C   0  0  0  0  0  0  0  0  0  0  0  0
  -16.1850  -42.8361   -7.1087 O   0  0  0  0  0  0  0  0  0  0  0  0
  -16.8289  -40.9469   -8.2756 N   0  0  0  0  0  0  0  0  0  0  0  0
  1  2  1  0
  2  3  1  0
  3  4  1  0
  4  5  1  0
  5  6  1  0
  6  7  2  0
  6  8  1  0
  8  9  1  1
  8 10  1  0
 10 11  1  0
 11 12  1  1
 11 13  1  0
 13 14  1  1
 14 15  1  0
 15 16  1  1
 15 17  1  0
 17 18  1  0
 18 19  1  0
 19 20  1  0
 20 21  1  0
 21 22  1  1
 21 23  1  0
 23 24  1  0
 24 25  1  0
 25 26  2  0
 25 27  1  0
 27 28  1  0
 28 29  1  6
 28 30  1  0
 30 31  2  0
 30 32  1  0
 32 13  1  0
M  END
$$$$
