
     RDKit          3D

 32 32  0  0  0  0  0  0  0  0999 V2000
  -13.3823  -36.2794  -13.8209 C   0  0  0  0  0  0  0  0  0  0  0  0
  -13.2377  -35.3250  -12.6308 C   0  0  0  0  0  0  0  0  0  0  0  0
  -12.9922  -35.9904  -11.3454 C   0  0  0  0  0  0  0  0  0  0  0  0
  -13.7534  -37.1794  -10.9498 C   0  0  0  0  0  0  0  0  0  0  0  0
  -14.0225  -37.3649   -9.5692 N   0  0  0  0  0  0  0  0  0  0  0  0
  -14.6754  -38.4154   -8.9095 C   0  0  0  0  0  0  0  0  0  0  0  0
  -14.3679  -39.6003   -9.1347 O   0  0  0  0  0  0  0  0  0  0  0  0
  -15.7639  -38.1251   -7.9143 C   0  0  2  0  0  0  0  0  0  0  0  0
  -15.4149  -38.6428   -6.5500 C   0  0  0  0  0  0  0  0  0  0  0  0
  -17.0176  -38.8422   -8.4031 C   0  0  0  0  0  0  0  0  0  0  0  0
  -16.6598  -40.1313   -9.0508 C   0  0  2  0  0  0  0  0  0  0  0  0
  -16.4735  -39.9537  -10.4485 O   0  0  0  0  0  0  0  0  0  0  0  0
  -17.7674  -41.1761   -8.8426 C   0  0  2  0  0  0  0  0  0  0  0  0
  -18.3713  -41.5633  -10.1408 C   0  0  0  0  0  0  0  0  0  0  0  0
  -17.9121  -42.8943  -10.6724 C   0  0  2  0  0  0  0  0  0  0  0  0
  -18.1807  -42.9793  -12.1604 C   0  0  0  0  0  0  0  0  0  0  0  0
  -18.5916  -44.0521   -9.9752 C   0  0  0  0  0  0  0  0  0  0  0  0
  -18.0273  -45.3663  -10.3937 C   0  0  0  0  0  0  0  0  0  0  0  0
  -18.8550  -46.4980   -9.7682 C   0  0  0  0  0  0  0  0  0  0  0  0
  -19.3870  -46.0494   -8.4164 C   0  0  0  0  0  0  0  0  0  0  0  0
  -20.1508  -47.0914   -7.6849 C   0  0  2  0  0  0  0  0  0  0  0  0
  -20.6262  -48.1134   -8.7219 C   0  0  0  0  0  0  0  0  0  0  0  0
  -21.3524  -46.6042   -6.9591 C   0  0  0  0  0  0  0  0  0  0  0  0
  -21.4920  -45.1022   -6.8830 C   0  0  0  0  0  0  0  0  0  0  0  0
  -20.3561  -44.4360   -6.2436 C   0  0  0  0  0  0  0  0  0  0  0  0
  -19.5982  -45.0826   -5.4339 O   0  0  0  0  0  0  0  0  0  0  0  0
  -20.0796  -43.0739   -6.5093 N   0  0  0  0  0  0  0  0  0  0  0  0
  -20.7274  -42.2964   -7.5552 C   0  0  1  0  0  0  0  0  0  0  0  0
  -22.1687  -42.1233   -7.1065 C   0  0  0  0  0  0  0  0  0  0  0  0
  -20.0812  -40.9769   -7.7314 C   0  0  0  0  0  0  0  0  0  0  0  0
  -20.9296  -40.0070   -7.7550 O   0  0  0  0  0  0  0  0  0  0  0  0
  -18.7207  -40.6801   -7.8679 N   0  0  0  0  0  0  0  0  0  0  0  0
  1  2  1  0
  2  3  1  0
  3  4  1  0
  4  5  1  0
  5  6  1  0
  6  7  2  0
  6  8  1  0
  8  9  1  1
  8 10  1  0
 10 11  1  0
 11 12  1  6
 11 13  1  0
 13 14  1  6
 14 15  1  0
 15 16  1  6
 15 17  1  0
 17 18  1  0
 18 19  1  0
 19 20  1  0
 20 21  1  0
 21 22  1  6
 21 23  1  0
 23 24  1  0
 24 25  1  0
 25 26  2  0
 25 27  1  0
 27 28  1  0
 28 29  1  1
 28 30  1  0
 30 31  2  0
 30 32  1  0
 32 13  1  0
M  END
$$$$
