
     RDKit          3D

 32 32  0  0  0  0  0  0  0  0999 V2000
  -13.7560  -41.3507  -15.3814 C   0  0  0  0  0  0  0  0  0  0  0  0
  -13.6461  -40.9807  -13.8985 C   0  0  0  0  0  0  0  0  0  0  0  0
  -13.0682  -39.6553  -13.6447 C   0  0  0  0  0  0  0  0  0  0  0  0
  -12.7380  -39.2204  -12.2839 C   0  0  0  0  0  0  0  0  0  0  0  0
  -13.7946  -38.7436  -11.4659 N   0  0  0  0  0  0  0  0  0  0  0  0
  -14.3190  -39.2629  -10.2742 C   0  0  0  0  0  0  0  0  0  0  0  0
  -14.8538  -40.3865  -10.2478 O   0  0  0  0  0  0  0  0  0  0  0  0
  -14.2434  -38.4656   -9.0021 C   0  0  2  0  0  0  0  0  0  0  0  0
  -12.9106  -38.6239   -8.3316 C   0  0  0  0  0  0  0  0  0  0  0  0
  -15.3251  -39.0053   -8.0728 C   0  0  0  0  0  0  0  0  0  0  0  0
  -16.6621  -38.8963   -8.7130 C   0  0  2  0  0  0  0  0  0  0  0  0
  -17.1765  -37.5787   -8.5750 O   0  0  0  0  0  0  0  0  0  0  0  0
  -17.6600  -39.8716   -8.0690 C   0  0  2  0  0  0  0  0  0  0  0  0
  -17.8114  -39.5846   -6.6218 C   0  0  0  0  0  0  0  0  0  0  0  0
  -19.0716  -38.8463   -6.2587 C   0  0  2  0  0  0  0  0  0  0  0  0
  -18.9157  -38.1893   -4.9032 C   0  0  0  0  0  0  0  0  0  0  0  0
  -20.2797  -39.7565   -6.2367 C   0  0  0  0  0  0  0  0  0  0  0  0
  -21.5464  -39.0000   -6.0277 C   0  0  0  0  0  0  0  0  0  0  0  0
  -22.7093  -39.9893   -5.8661 C   0  0  0  0  0  0  0  0  0  0  0  0
  -22.4393  -41.2300   -6.7023 C   0  0  0  0  0  0  0  0  0  0  0  0
  -23.5332  -42.2332   -6.6765 C   0  0  2  0  0  0  0  0  0  0  0  0
  -24.3580  -41.9688   -5.4134 C   0  0  0  0  0  0  0  0  0  0  0  0
  -23.0918  -43.6514   -6.6292 C   0  0  0  0  0  0  0  0  0  0  0  0
  -21.6129  -43.8714   -6.8427 C   0  0  0  0  0  0  0  0  0  0  0  0
  -21.1179  -43.3535   -8.1193 C   0  0  0  0  0  0  0  0  0  0  0  0
  -21.9221  -43.1870   -9.1060 O   0  0  0  0  0  0  0  0  0  0  0  0
  -19.7498  -43.0307   -8.2816 N   0  0  0  0  0  0  0  0  0  0  0  0
  -18.7872  -42.9754   -7.1915 C   0  0  1  0  0  0  0  0  0  0  0  0
  -18.6000  -44.4123   -6.7343 C   0  0  0  0  0  0  0  0  0  0  0  0
  -17.4961  -42.4039   -7.6343 C   0  0  0  0  0  0  0  0  0  0  0  0
  -16.4859  -43.1174   -7.2715 O   0  0  0  0  0  0  0  0  0  0  0  0
  -17.2618  -41.2347   -8.3663 N   0  0  0  0  0  0  0  0  0  0  0  0
  1  2  1  0
  2  3  1  0
  3  4  1  0
  4  5  1  0
  5  6  1  0
  6  7  2  0
  6  8  1  0
  8  9  1  1
  8 10  1  0
 10 11  1  0
 11 12  1  1
 11 13  1  0
 13 14  1  1
 14 15  1  0
 15 16  1  1
 15 17  1  0
 17 18  1  0
 18 19  1  0
 19 20  1  0
 20 21  1  0
 21 22  1  1
 21 23  1  0
 23 24  1  0
 24 25  1  0
 25 26  2  0
 25 27  1  0
 27 28  1  0
 28 29  1  6
 28 30  1  0
 30 31  2  0
 30 32  1  0
 32 13  1  0
M  END
$$$$
