
     RDKit          3D

 32 32  0  0  0  0  0  0  0  0999 V2000
  -11.6193  -35.2233  -14.6322 C   0  0  0  0  0  0  0  0  0  0  0  0
  -12.4541  -36.4993  -14.4811 C   0  0  0  0  0  0  0  0  0  0  0  0
  -12.8214  -36.8241  -13.0973 C   0  0  0  0  0  0  0  0  0  0  0  0
  -13.2725  -38.1696  -12.7288 C   0  0  0  0  0  0  0  0  0  0  0  0
  -13.6242  -38.4029  -11.3742 N   0  0  0  0  0  0  0  0  0  0  0  0
  -14.1495  -39.5492  -10.7621 C   0  0  0  0  0  0  0  0  0  0  0  0
  -14.6284  -40.4745  -11.4431 O   0  0  0  0  0  0  0  0  0  0  0  0
  -14.1431  -39.6792   -9.2646 C   0  0  2  0  0  0  0  0  0  0  0  0
  -12.9724  -40.4871   -8.7871 C   0  0  0  0  0  0  0  0  0  0  0  0
  -15.4275  -40.4023   -8.8743 C   0  0  0  0  0  0  0  0  0  0  0  0
  -16.4338  -39.4350   -8.3632 C   0  0  2  0  0  0  0  0  0  0  0  0
  -15.8566  -38.5855   -7.3809 O   0  0  0  0  0  0  0  0  0  0  0  0
  -17.6245  -40.1677   -7.7251 C   0  0  2  0  0  0  0  0  0  0  0  0
  -17.9963  -39.5365   -6.4354 C   0  0  0  0  0  0  0  0  0  0  0  0
  -19.2173  -38.6587   -6.4973 C   0  0  2  0  0  0  0  0  0  0  0  0
  -19.2338  -37.7091   -5.3178 C   0  0  0  0  0  0  0  0  0  0  0  0
  -20.4982  -39.4635   -6.5088 C   0  0  0  0  0  0  0  0  0  0  0  0
  -21.6967  -38.6044   -6.7232 C   0  0  0  0  0  0  0  0  0  0  0  0
  -22.9660  -39.4553   -6.5749 C   0  0  0  0  0  0  0  0  0  0  0  0
  -22.6837  -40.8730   -7.0459 C   0  0  0  0  0  0  0  0  0  0  0  0
  -23.8631  -41.7739   -7.0108 C   0  0  2  0  0  0  0  0  0  0  0  0
  -24.8643  -41.1679   -6.0229 C   0  0  0  0  0  0  0  0  0  0  0  0
  -23.5860  -43.1641   -6.5648 C   0  0  0  0  0  0  0  0  0  0  0  0
  -22.1234  -43.5168   -6.4327 C   0  0  0  0  0  0  0  0  0  0  0  0
  -21.3617  -43.3478   -7.6714 C   0  0  0  0  0  0  0  0  0  0  0  0
  -21.9593  -43.3726   -8.8073 O   0  0  0  0  0  0  0  0  0  0  0  0
  -19.9603  -43.1556   -7.6324 N   0  0  0  0  0  0  0  0  0  0  0  0
  -19.2029  -42.9007   -6.4161 C   0  0  1  0  0  0  0  0  0  0  0  0
  -19.2484  -44.1964   -5.6238 C   0  0  0  0  0  0  0  0  0  0  0  0
  -17.8021  -42.5293   -6.7154 C   0  0  0  0  0  0  0  0  0  0  0  0
  -16.9504  -43.1954   -6.0140 O   0  0  0  0  0  0  0  0  0  0  0  0
  -17.3236  -41.5837   -7.6290 N   0  0  0  0  0  0  0  0  0  0  0  0
  1  2  1  0
  2  3  1  0
  3  4  1  0
  4  5  1  0
  5  6  1  0
  6  7  2  0
  6  8  1  0
  8  9  1  6
  8 10  1  0
 10 11  1  0
 11 12  1  1
 11 13  1  0
 13 14  1  1
 14 15  1  0
 15 16  1  1
 15 17  1  0
 17 18  1  0
 18 19  1  0
 19 20  1  0
 20 21  1  0
 21 22  1  1
 21 23  1  0
 23 24  1  0
 24 25  1  0
 25 26  2  0
 25 27  1  0
 27 28  1  0
 28 29  1  1
 28 30  1  0
 30 31  2  0
 30 32  1  0
 32 13  1  0
M  END
$$$$
