
     RDKit          3D

 41 43  0  0  0  0  0  0  0  0999 V2000
  -20.8482  -42.5488   -1.6158 C   0  0  0  0  0  0  0  0  0  0  0  0
  -21.9546  -41.7555   -2.2526 C   0  0  0  0  0  0  0  0  0  0  0  0
  -21.9128  -40.3306   -1.7175 C   0  0  0  0  0  0  0  0  0  0  0  0
  -21.7774  -41.7542   -3.7300 C   0  0  0  0  0  0  0  0  0  0  0  0
  -21.0508  -40.7666   -4.3626 C   0  0  0  0  0  0  0  0  0  0  0  0
  -20.8853  -40.7690   -5.7495 C   0  0  0  0  0  0  0  0  0  0  0  0
  -20.0785  -39.6676   -6.3684 C   0  0  0  0  0  0  0  0  0  0  0  0
  -18.9354  -40.2238   -7.0115 N   0  0  0  0  0  0  0  0  0  0  0  0
  -17.6853  -40.0455   -6.3331 C   0  0  0  0  0  0  0  0  0  0  0  0
  -16.8235  -39.0975   -7.1261 C   0  0  1  0  0  0  0  0  0  0  0  0
  -15.6098  -38.9349   -6.4504 O   0  0  0  0  0  0  0  0  0  0  0  0
  -16.6275  -39.5157   -8.5679 C   0  0  2  0  0  0  0  0  0  0  0  0
  -17.0887  -38.4563   -9.4718 C   0  0  0  0  0  0  0  0  0  0  0  0
  -15.9122  -37.6745  -10.0077 C   0  0  2  0  0  0  0  0  0  0  0  0
  -15.5077  -36.6270   -8.9723 C   0  0  0  0  0  0  0  0  0  0  0  0
  -16.3437  -36.9319  -11.2510 C   0  0  0  0  0  0  0  0  0  0  0  0
  -15.1989  -36.6441  -12.1828 C   0  0  0  0  0  0  0  0  0  0  0  0
  -14.6842  -37.8625  -12.8803 C   0  0  0  0  0  0  0  0  0  0  0  0
  -13.2047  -37.8214  -13.1485 C   0  0  0  0  0  0  0  0  0  0  0  0
  -12.8874  -38.7291  -14.3119 C   0  0  0  0  0  0  0  0  0  0  0  0
  -13.1975  -40.1718  -14.0162 C   0  0  0  0  0  0  0  0  0  0  0  0
  -12.1468  -40.8657  -13.2218 C   0  0  0  0  0  0  0  0  0  0  0  0
  -12.6671  -41.8811  -12.4419 O   0  0  0  0  0  0  0  0  0  0  0  0
  -13.8991  -42.2697  -11.9499 C   0  0  0  0  0  0  0  0  0  0  0  0
  -14.2174  -43.5687  -12.3907 C   0  0  0  0  0  0  0  0  0  0  0  0
  -15.3876  -44.1892  -12.0441 C   0  0  0  0  0  0  0  0  0  0  0  0
  -16.2230  -43.4739  -11.2476 C   0  0  0  0  0  0  0  0  0  0  0  0
  -15.9609  -42.1562  -10.7654 C   0  0  0  0  0  0  0  0  0  0  0  0
  -14.7758  -41.5707  -11.1365 C   0  0  0  0  0  0  0  0  0  0  0  0
  -17.0752  -41.6504   -9.9251 C   0  0  0  0  0  0  0  0  0  0  0  0
  -18.2714  -42.0480  -10.3243 O   0  0  0  0  0  0  0  0  0  0  0  0
  -17.1664  -40.8446   -8.7971 N   0  0  0  0  0  0  0  0  0  0  0  0
  -15.7004  -45.4988  -12.4929 N   0  0  0  0  0  0  0  0  0  0  0  0
  -14.9225  -46.0778  -13.5907 C   0  0  0  0  0  0  0  0  0  0  0  0
  -16.9632  -46.4147  -11.7831 S   0  0  0  0  0  6  0  0  0  0  0  0
  -18.4645  -46.0156  -12.6814 C   0  0  0  0  0  0  0  0  0  0  0  0
  -17.1880  -45.9848  -10.3729 O   0  0  0  0  0  0  0  0  0  0  0  0
  -16.7057  -47.8824  -11.7961 O   0  0  0  0  0  0  0  0  0  0  0  0
  -21.4572  -41.7738   -6.4960 C   0  0  0  0  0  0  0  0  0  0  0  0
  -22.1837  -42.7610   -5.8624 C   0  0  0  0  0  0  0  0  0  0  0  0
  -22.3359  -42.7404   -4.4848 C   0  0  0  0  0  0  0  0  0  0  0  0
  1  2  1  0
  2  3  1  0
  2  4  1  0
  4  5  2  0
  5  6  1  0
  6  7  1  0
  7  8  1  0
  8  9  1  0
  9 10  1  0
 10 11  1  1
 10 12  1  0
 12 13  1  6
 13 14  1  0
 14 15  1  1
 14 16  1  0
 16 17  1  0
 17 18  1  0
 18 19  1  0
 19 20  1  0
 20 21  1  0
 21 22  1  0
 22 23  1  0
 23 24  1  0
 24 25  2  0
 25 26  1  0
 26 27  2  0
 27 28  1  0
 28 29  2  0
 28 30  1  0
 30 31  2  0
 30 32  1  0
 26 33  1  0
 33 34  1  0
 33 35  1  0
 35 36  1  0
 35 37  2  0
 35 38  2  0
  6 39  2  0
 39 40  1  0
 40 41  2  0
 29 24  1  0
 32 12  1  0
 41  4  1  0
M  END
$$$$
