
     RDKit          3D

 41 43  0  0  0  0  0  0  0  0999 V2000
  -16.1694  -41.9149   -3.1806 C   0  0  0  0  0  0  0  0  0  0  0  0
  -15.3534  -40.6968   -3.5114 C   0  0  0  0  0  0  0  0  0  0  0  0
  -14.3116  -40.4881   -2.4209 C   0  0  0  0  0  0  0  0  0  0  0  0
  -14.6868  -40.8888   -4.8279 C   0  0  0  0  0  0  0  0  0  0  0  0
  -14.7409  -39.9169   -5.8057 C   0  0  0  0  0  0  0  0  0  0  0  0
  -14.1131  -40.0998   -7.0400 C   0  0  0  0  0  0  0  0  0  0  0  0
  -14.2084  -38.9990   -8.0529 C   0  0  0  0  0  0  0  0  0  0  0  0
  -15.5791  -38.6841   -8.2805 N   0  0  0  0  0  0  0  0  0  0  0  0
  -16.3526  -39.6923   -8.9437 C   0  0  0  0  0  0  0  0  0  0  0  0
  -17.7169  -39.1383   -9.2628 C   0  0  1  0  0  0  0  0  0  0  0  0
  -17.8533  -39.0761  -10.6534 O   0  0  0  0  0  0  0  0  0  0  0  0
  -18.8502  -39.8985   -8.6073 C   0  0  2  0  0  0  0  0  0  0  0  0
  -19.7613  -38.9692   -7.9301 C   0  0  0  0  0  0  0  0  0  0  0  0
  -20.9968  -38.7404   -8.7690 C   0  0  2  0  0  0  0  0  0  0  0  0
  -20.6839  -37.6798   -9.8226 C   0  0  0  0  0  0  0  0  0  0  0  0
  -22.0914  -38.1862   -7.8869 C   0  0  0  0  0  0  0  0  0  0  0  0
  -23.4684  -38.4886   -8.4102 C   0  0  0  0  0  0  0  0  0  0  0  0
  -23.8496  -39.9280   -8.2733 C   0  0  0  0  0  0  0  0  0  0  0  0
  -24.7407  -40.4215   -9.3800 C   0  0  0  0  0  0  0  0  0  0  0  0
  -25.5275  -41.6119   -8.8881 C   0  0  0  0  0  0  0  0  0  0  0  0
  -24.6447  -42.7795   -8.5385 C   0  0  0  0  0  0  0  0  0  0  0  0
  -24.2122  -43.5840   -9.7142 C   0  0  0  0  0  0  0  0  0  0  0  0
  -22.9843  -44.1855   -9.5123 O   0  0  0  0  0  0  0  0  0  0  0  0
  -21.8972  -44.0433   -8.6705 C   0  0  0  0  0  0  0  0  0  0  0  0
  -21.6693  -45.2349   -7.9556 C   0  0  0  0  0  0  0  0  0  0  0  0
  -20.6491  -45.3579   -7.0508 C   0  0  0  0  0  0  0  0  0  0  0  0
  -19.8693  -44.2584   -6.8857 C   0  0  0  0  0  0  0  0  0  0  0  0
  -20.0446  -43.0227   -7.5781 C   0  0  0  0  0  0  0  0  0  0  0  0
  -21.0794  -42.9420   -8.4767 C   0  0  0  0  0  0  0  0  0  0  0  0
  -19.0323  -42.0178   -7.1668 C   0  0  0  0  0  0  0  0  0  0  0  0
  -18.6945  -42.0881   -5.8904 O   0  0  0  0  0  0  0  0  0  0  0  0
  -18.3395  -41.0014   -7.8126 N   0  0  0  0  0  0  0  0  0  0  0  0
  -20.4266  -46.5628   -6.3346 N   0  0  0  0  0  0  0  0  0  0  0  0
  -21.5634  -47.2279   -5.6935 C   0  0  0  0  0  0  0  0  0  0  0  0
  -18.8642  -47.2545   -6.2024 S   0  0  0  0  0  6  0  0  0  0  0  0
  -17.9694  -46.8093   -7.6928 C   0  0  0  0  0  0  0  0  0  0  0  0
  -18.9537  -48.7432   -6.1925 O   0  0  0  0  0  0  0  0  0  0  0  0
  -18.1268  -46.8158   -4.9840 O   0  0  0  0  0  0  0  0  0  0  0  0
  -13.4299  -41.2694   -7.2833 C   0  0  0  0  0  0  0  0  0  0  0  0
  -13.3765  -42.2407   -6.3048 C   0  0  0  0  0  0  0  0  0  0  0  0
  -14.0062  -42.0395   -5.0865 C   0  0  0  0  0  0  0  0  0  0  0  0
  1  2  1  0
  2  3  1  0
  2  4  1  0
  4  5  2  0
  5  6  1  0
  6  7  1  0
  7  8  1  0
  8  9  1  0
  9 10  1  0
 10 11  1  6
 10 12  1  0
 12 13  1  1
 13 14  1  0
 14 15  1  6
 14 16  1  0
 16 17  1  0
 17 18  1  0
 18 19  1  0
 19 20  1  0
 20 21  1  0
 21 22  1  0
 22 23  1  0
 23 24  1  0
 24 25  2  0
 25 26  1  0
 26 27  2  0
 27 28  1  0
 28 29  2  0
 28 30  1  0
 30 31  2  0
 30 32  1  0
 26 33  1  0
 33 34  1  0
 33 35  1  0
 35 36  1  0
 35 37  2  0
 35 38  2  0
  6 39  2  0
 39 40  1  0
 40 41  2  0
 29 24  1  0
 32 12  1  0
 41  4  1  0
M  END
$$$$
