
     RDKit          3D

 41 43  0  0  0  0  0  0  0  0999 V2000
  -12.7956  -42.5021   -8.7293 C   0  0  0  0  0  0  0  0  0  0  0  0
  -13.5109  -43.0991   -9.9088 C   0  0  0  0  0  0  0  0  0  0  0  0
  -14.6916  -43.9195   -9.4078 C   0  0  0  0  0  0  0  0  0  0  0  0
  -13.9859  -42.0097  -10.8042 C   0  0  0  0  0  0  0  0  0  0  0  0
  -14.6180  -40.8925  -10.2985 C   0  0  0  0  0  0  0  0  0  0  0  0
  -15.0618  -39.8711  -11.1417 C   0  0  0  0  0  0  0  0  0  0  0  0
  -15.7353  -38.6839  -10.5223 C   0  0  0  0  0  0  0  0  0  0  0  0
  -17.1160  -38.9743  -10.3243 N   0  0  0  0  0  0  0  0  0  0  0  0
  -17.7880  -38.1826   -9.3362 C   0  0  0  0  0  0  0  0  0  0  0  0
  -17.4514  -38.7121   -7.9662 C   0  0  1  0  0  0  0  0  0  0  0  0
  -17.5320  -37.6558   -7.0532 O   0  0  0  0  0  0  0  0  0  0  0  0
  -18.2946  -39.8984   -7.5491 C   0  0  2  0  0  0  0  0  0  0  0  0
  -18.8300  -39.6920   -6.1989 C   0  0  0  0  0  0  0  0  0  0  0  0
  -20.2758  -39.2589   -6.2681 C   0  0  2  0  0  0  0  0  0  0  0  0
  -20.3245  -37.7544   -6.5270 C   0  0  0  0  0  0  0  0  0  0  0  0
  -20.9246  -39.5037   -4.9255 C   0  0  0  0  0  0  0  0  0  0  0  0
  -22.4119  -39.7023   -5.0265 C   0  0  0  0  0  0  0  0  0  0  0  0
  -22.7928  -41.0105   -5.6424 C   0  0  0  0  0  0  0  0  0  0  0  0
  -24.0612  -40.9484   -6.4485 C   0  0  0  0  0  0  0  0  0  0  0  0
  -24.6696  -42.3278   -6.5206 C   0  0  0  0  0  0  0  0  0  0  0  0
  -23.7865  -43.3081   -7.2447 C   0  0  0  0  0  0  0  0  0  0  0  0
  -23.8744  -43.2200   -8.7282 C   0  0  0  0  0  0  0  0  0  0  0  0
  -22.6965  -43.5979   -9.3446 O   0  0  0  0  0  0  0  0  0  0  0  0
  -21.3662  -43.7598   -9.0057 C   0  0  0  0  0  0  0  0  0  0  0  0
  -20.9524  -45.0825   -9.2548 C   0  0  0  0  0  0  0  0  0  0  0  0
  -19.6750  -45.5059   -9.0028 C   0  0  0  0  0  0  0  0  0  0  0  0
  -18.8306  -44.5700   -8.4975 C   0  0  0  0  0  0  0  0  0  0  0  0
  -19.1848  -43.2148   -8.2236 C   0  0  0  0  0  0  0  0  0  0  0  0
  -20.4758  -42.8316   -8.4911 C   0  0  0  0  0  0  0  0  0  0  0  0
  -18.0380  -42.4516   -7.6705 C   0  0  0  0  0  0  0  0  0  0  0  0
  -17.2486  -43.1640   -6.8846 O   0  0  0  0  0  0  0  0  0  0  0  0
  -17.5842  -41.1433   -7.7823 N   0  0  0  0  0  0  0  0  0  0  0  0
  -19.2664  -46.8411   -9.2570 N   0  0  0  0  0  0  0  0  0  0  0  0
  -19.8717  -47.5680  -10.3754 C   0  0  0  0  0  0  0  0  0  0  0  0
  -18.0864  -47.6200   -8.2885 S   0  0  0  0  0  6  0  0  0  0  0  0
  -18.9394  -48.2691   -6.8493 C   0  0  0  0  0  0  0  0  0  0  0  0
  -17.0945  -46.6291   -7.7801 O   0  0  0  0  0  0  0  0  0  0  0  0
  -17.3525  -48.6992   -9.0078 O   0  0  0  0  0  0  0  0  0  0  0  0
  -14.8646  -39.9826  -12.4991 C   0  0  0  0  0  0  0  0  0  0  0  0
  -14.2324  -41.1005  -13.0038 C   0  0  0  0  0  0  0  0  0  0  0  0
  -13.7995  -42.1028  -12.1499 C   0  0  0  0  0  0  0  0  0  0  0  0
  1  2  1  0
  2  3  1  0
  2  4  1  0
  4  5  2  0
  5  6  1  0
  6  7  1  0
  7  8  1  0
  8  9  1  0
  9 10  1  0
 10 11  1  1
 10 12  1  0
 12 13  1  1
 13 14  1  0
 14 15  1  1
 14 16  1  0
 16 17  1  0
 17 18  1  0
 18 19  1  0
 19 20  1  0
 20 21  1  0
 21 22  1  0
 22 23  1  0
 23 24  1  0
 24 25  2  0
 25 26  1  0
 26 27  2  0
 27 28  1  0
 28 29  2  0
 28 30  1  0
 30 31  2  0
 30 32  1  0
 26 33  1  0
 33 34  1  0
 33 35  1  0
 35 36  1  0
 35 37  2  0
 35 38  2  0
  6 39  2  0
 39 40  1  0
 40 41  2  0
 29 24  1  0
 32 12  1  0
 41  4  1  0
M  END
$$$$
