
     RDKit          3D

 41 43  0  0  0  0  0  0  0  0999 V2000
  -20.6438  -36.1430  -11.7241 C   0  0  0  0  0  0  0  0  0  0  0  0
  -20.9519  -37.5035  -11.1643 C   0  0  0  0  0  0  0  0  0  0  0  0
  -20.1512  -38.5469  -11.9315 C   0  0  0  0  0  0  0  0  0  0  0  0
  -20.5915  -37.5393   -9.7210 C   0  0  0  0  0  0  0  0  0  0  0  0
  -19.2763  -37.4700   -9.3101 C   0  0  0  0  0  0  0  0  0  0  0  0
  -18.9415  -37.5027   -7.9544 C   0  0  0  0  0  0  0  0  0  0  0  0
  -17.4924  -37.4173   -7.5806 C   0  0  0  0  0  0  0  0  0  0  0  0
  -17.3179  -37.9031   -6.2527 N   0  0  0  0  0  0  0  0  0  0  0  0
  -16.2435  -38.8324   -6.0610 C   0  0  0  0  0  0  0  0  0  0  0  0
  -15.6305  -39.1615   -7.3976 C   0  0  1  0  0  0  0  0  0  0  0  0
  -14.2730  -39.4370   -7.2041 O   0  0  0  0  0  0  0  0  0  0  0  0
  -16.3436  -40.2743   -8.1359 C   0  0  2  0  0  0  0  0  0  0  0  0
  -16.3017  -40.0332   -9.5824 C   0  0  0  0  0  0  0  0  0  0  0  0
  -15.2403  -40.8933  -10.2274 C   0  0  2  0  0  0  0  0  0  0  0  0
  -13.8865  -40.2049  -10.0646 C   0  0  0  0  0  0  0  0  0  0  0  0
  -15.5200  -40.9864  -11.7095 C   0  0  0  0  0  0  0  0  0  0  0  0
  -14.9579  -42.2360  -12.3295 C   0  0  0  0  0  0  0  0  0  0  0  0
  -15.6977  -43.4747  -11.9368 C   0  0  0  0  0  0  0  0  0  0  0  0
  -14.8210  -44.6931  -11.8405 C   0  0  0  0  0  0  0  0  0  0  0  0
  -15.6675  -45.9280  -12.0319 C   0  0  0  0  0  0  0  0  0  0  0  0
  -16.6970  -46.0928  -10.9466 C   0  0  0  0  0  0  0  0  0  0  0  0
  -16.1618  -46.6860   -9.6903 C   0  0  0  0  0  0  0  0  0  0  0  0
  -16.8570  -46.2603   -8.5743 O   0  0  0  0  0  0  0  0  0  0  0  0
  -17.7140  -45.2322   -8.2284 C   0  0  0  0  0  0  0  0  0  0  0  0
  -18.9436  -45.7478   -7.7756 C   0  0  0  0  0  0  0  0  0  0  0  0
  -19.9696  -44.9361   -7.3720 C   0  0  0  0  0  0  0  0  0  0  0  0
  -19.7276  -43.6013   -7.4351 C   0  0  0  0  0  0  0  0  0  0  0  0
  -18.5058  -43.0141   -7.8820 C   0  0  0  0  0  0  0  0  0  0  0  0
  -17.5027  -43.8639   -8.2775 C   0  0  0  0  0  0  0  0  0  0  0  0
  -18.5639  -41.5314   -7.8372 C   0  0  0  0  0  0  0  0  0  0  0  0
  -19.7532  -41.0322   -8.1280 O   0  0  0  0  0  0  0  0  0  0  0  0
  -17.6522  -40.5214   -7.5568 N   0  0  0  0  0  0  0  0  0  0  0  0
  -21.2057  -45.4644   -6.9169 N   0  0  0  0  0  0  0  0  0  0  0  0
  -21.5447  -46.8532   -7.2358 C   0  0  0  0  0  0  0  0  0  0  0  0
  -22.3073  -44.5179   -6.0070 S   0  0  0  0  0  6  0  0  0  0  0  0
  -21.7274  -44.5320   -4.3089 C   0  0  0  0  0  0  0  0  0  0  0  0
  -23.6559  -45.1546   -5.9978 O   0  0  0  0  0  0  0  0  0  0  0  0
  -22.4448  -43.1234   -6.5142 O   0  0  0  0  0  0  0  0  0  0  0  0
  -19.9412  -37.6059   -7.0143 C   0  0  0  0  0  0  0  0  0  0  0  0
  -21.2562  -37.6751   -7.4264 C   0  0  0  0  0  0  0  0  0  0  0  0
  -21.5673  -37.6410   -8.7767 C   0  0  0  0  0  0  0  0  0  0  0  0
  1  2  1  0
  2  3  1  0
  2  4  1  0
  4  5  2  0
  5  6  1  0
  6  7  1  0
  7  8  1  0
  8  9  1  0
  9 10  1  0
 10 11  1  1
 10 12  1  0
 12 13  1  6
 13 14  1  0
 14 15  1  6
 14 16  1  0
 16 17  1  0
 17 18  1  0
 18 19  1  0
 19 20  1  0
 20 21  1  0
 21 22  1  0
 22 23  1  0
 23 24  1  0
 24 25  2  0
 25 26  1  0
 26 27  2  0
 27 28  1  0
 28 29  2  0
 28 30  1  0
 30 31  2  0
 30 32  1  0
 26 33  1  0
 33 34  1  0
 33 35  1  0
 35 36  1  0
 35 37  2  0
 35 38  2  0
  6 39  2  0
 39 40  1  0
 40 41  2  0
 29 24  1  0
 32 12  1  0
 41  4  1  0
M  END
$$$$
