
     RDKit          3D

 41 43  0  0  0  0  0  0  0  0999 V2000
  -17.5821  -37.2512  -15.8076 C   0  0  0  0  0  0  0  0  0  0  0  0
  -18.1700  -37.2213  -14.4247 C   0  0  0  0  0  0  0  0  0  0  0  0
  -19.1197  -38.4006  -14.2652 C   0  0  0  0  0  0  0  0  0  0  0  0
  -17.0764  -37.3034  -13.4189 C   0  0  0  0  0  0  0  0  0  0  0  0
  -17.0177  -38.3385  -12.5088 C   0  0  0  0  0  0  0  0  0  0  0  0
  -15.9892  -38.4133  -11.5666 C   0  0  0  0  0  0  0  0  0  0  0  0
  -15.9855  -39.5692  -10.6124 C   0  0  0  0  0  0  0  0  0  0  0  0
  -17.3094  -40.0799  -10.4841 N   0  0  0  0  0  0  0  0  0  0  0  0
  -18.2255  -39.2675   -9.7389 C   0  0  0  0  0  0  0  0  0  0  0  0
  -17.6992  -39.0867   -8.3386 C   0  0  1  0  0  0  0  0  0  0  0  0
  -17.9455  -37.7684   -7.9418 O   0  0  0  0  0  0  0  0  0  0  0  0
  -18.2430  -40.0960   -7.3498 C   0  0  2  0  0  0  0  0  0  0  0  0
  -17.9154  -39.6917   -5.9782 C   0  0  0  0  0  0  0  0  0  0  0  0
  -19.1184  -39.0634   -5.3145 C   0  0  2  0  0  0  0  0  0  0  0  0
  -19.2007  -37.5977   -5.7364 C   0  0  0  0  0  0  0  0  0  0  0  0
  -18.9194  -39.0880   -3.8168 C   0  0  0  0  0  0  0  0  0  0  0  0
  -20.2177  -39.0791   -3.0579 C   0  0  0  0  0  0  0  0  0  0  0  0
  -20.9665  -40.3699   -3.1530 C   0  0  0  0  0  0  0  0  0  0  0  0
  -22.4609  -40.2003   -3.1349 C   0  0  0  0  0  0  0  0  0  0  0  0
  -23.0980  -41.4787   -2.6468 C   0  0  0  0  0  0  0  0  0  0  0  0
  -22.8410  -42.6381   -3.5714 C   0  0  0  0  0  0  0  0  0  0  0  0
  -23.7381  -42.6749   -4.7590 C   0  0  0  0  0  0  0  0  0  0  0  0
  -23.1362  -43.2732   -5.8498 O   0  0  0  0  0  0  0  0  0  0  0  0
  -21.8589  -43.5929   -6.2709 C   0  0  0  0  0  0  0  0  0  0  0  0
  -21.7471  -44.9786   -6.4949 C   0  0  0  0  0  0  0  0  0  0  0  0
  -20.5801  -45.5563   -6.9176 C   0  0  0  0  0  0  0  0  0  0  0  0
  -19.5359  -44.7092   -7.1083 C   0  0  0  0  0  0  0  0  0  0  0  0
  -19.5825  -43.2977   -6.9014 C   0  0  0  0  0  0  0  0  0  0  0  0
  -20.7721  -42.7591   -6.4776 C   0  0  0  0  0  0  0  0  0  0  0  0
  -18.2736  -42.6599   -7.1906 C   0  0  0  0  0  0  0  0  0  0  0  0
  -17.2305  -43.4031   -6.8625 O   0  0  0  0  0  0  0  0  0  0  0  0
  -17.8720  -41.4463   -7.7346 N   0  0  0  0  0  0  0  0  0  0  0  0
  -20.4762  -46.9541   -7.1410 N   0  0  0  0  0  0  0  0  0  0  0  0
  -21.5125  -47.6261   -7.9284 C   0  0  0  0  0  0  0  0  0  0  0  0
  -19.1716  -47.8704   -6.5122 S   0  0  0  0  0  6  0  0  0  0  0  0
  -18.0417  -48.1705   -7.8737 C   0  0  0  0  0  0  0  0  0  0  0  0
  -19.6478  -49.2080   -6.0561 O   0  0  0  0  0  0  0  0  0  0  0  0
  -18.4757  -47.2023   -5.3764 O   0  0  0  0  0  0  0  0  0  0  0  0
  -15.0191  -37.4373  -11.5472 C   0  0  0  0  0  0  0  0  0  0  0  0
  -15.0788  -36.4024  -12.4579 C   0  0  0  0  0  0  0  0  0  0  0  0
  -16.1079  -36.3468  -13.3848 C   0  0  0  0  0  0  0  0  0  0  0  0
  1  2  1  0
  2  3  1  0
  2  4  1  0
  4  5  2  0
  5  6  1  0
  6  7  1  0
  7  8  1  0
  8  9  1  0
  9 10  1  0
 10 11  1  1
 10 12  1  0
 12 13  1  1
 13 14  1  0
 14 15  1  6
 14 16  1  0
 16 17  1  0
 17 18  1  0
 18 19  1  0
 19 20  1  0
 20 21  1  0
 21 22  1  0
 22 23  1  0
 23 24  1  0
 24 25  2  0
 25 26  1  0
 26 27  2  0
 27 28  1  0
 28 29  2  0
 28 30  1  0
 30 31  2  0
 30 32  1  0
 26 33  1  0
 33 34  1  0
 33 35  1  0
 35 36  1  0
 35 37  2  0
 35 38  2  0
  6 39  2  0
 39 40  1  0
 40 41  2  0
 29 24  1  0
 32 12  1  0
 41  4  1  0
M  END
$$$$
