
     RDKit          3D

 41 43  0  0  0  0  0  0  0  0999 V2000
  -13.8252  -35.3568  -10.5376 C   0  0  0  0  0  0  0  0  0  0  0  0
  -12.9335  -35.8436  -11.6453 C   0  0  0  0  0  0  0  0  0  0  0  0
  -11.4895  -35.5018  -11.3043 C   0  0  0  0  0  0  0  0  0  0  0  0
  -13.0902  -37.3155  -11.7977 C   0  0  0  0  0  0  0  0  0  0  0  0
  -13.5960  -38.0908  -10.7747 C   0  0  0  0  0  0  0  0  0  0  0  0
  -13.7429  -39.4721  -10.9213 C   0  0  0  0  0  0  0  0  0  0  0  0
  -14.3047  -40.2507   -9.7703 C   0  0  0  0  0  0  0  0  0  0  0  0
  -14.3415  -39.4213   -8.6124 N   0  0  0  0  0  0  0  0  0  0  0  0
  -15.4890  -38.5717   -8.4858 C   0  0  0  0  0  0  0  0  0  0  0  0
  -16.6012  -39.1117   -9.3470 C   0  0  1  0  0  0  0  0  0  0  0  0
  -16.0312  -39.8091  -10.4170 O   0  0  0  0  0  0  0  0  0  0  0  0
  -17.6077  -39.9484   -8.5861 C   0  0  2  0  0  0  0  0  0  0  0  0
  -18.0947  -39.2153   -7.4124 C   0  0  0  0  0  0  0  0  0  0  0  0
  -19.4604  -38.6311   -7.6878 C   0  0  2  0  0  0  0  0  0  0  0  0
  -19.2871  -37.3174   -8.4475 C   0  0  0  0  0  0  0  0  0  0  0  0
  -20.1267  -38.3030   -6.3718 C   0  0  0  0  0  0  0  0  0  0  0  0
  -21.6278  -38.3100   -6.4628 C   0  0  0  0  0  0  0  0  0  0  0  0
  -22.2044  -39.6817   -6.6100 C   0  0  0  0  0  0  0  0  0  0  0  0
  -23.4565  -39.7210   -7.4426 C   0  0  0  0  0  0  0  0  0  0  0  0
  -24.2639  -40.9390   -7.0648 C   0  0  0  0  0  0  0  0  0  0  0  0
  -23.5428  -42.2240   -7.3711 C   0  0  0  0  0  0  0  0  0  0  0  0
  -23.6296  -42.6410   -8.7977 C   0  0  0  0  0  0  0  0  0  0  0  0
  -22.5265  -43.3720   -9.1962 O   0  0  0  0  0  0  0  0  0  0  0  0
  -21.2320  -43.5951   -8.7654 C   0  0  0  0  0  0  0  0  0  0  0  0
  -21.0218  -44.9673   -8.5290 C   0  0  0  0  0  0  0  0  0  0  0  0
  -19.8195  -45.4555   -8.0925 C   0  0  0  0  0  0  0  0  0  0  0  0
  -18.8409  -44.5334   -7.9018 C   0  0  0  0  0  0  0  0  0  0  0  0
  -18.9872  -43.1310   -8.1235 C   0  0  0  0  0  0  0  0  0  0  0  0
  -20.2091  -42.6836   -8.5613 C   0  0  0  0  0  0  0  0  0  0  0  0
  -17.7347  -42.3958   -7.8159 C   0  0  0  0  0  0  0  0  0  0  0  0
  -17.0532  -42.8986   -6.8005 O   0  0  0  0  0  0  0  0  0  0  0  0
  -17.0924  -41.2851   -8.3486 N   0  0  0  0  0  0  0  0  0  0  0  0
  -19.6162  -46.8402   -7.8568 N   0  0  0  0  0  0  0  0  0  0  0  0
  -20.2686  -47.8132   -8.7362 C   0  0  0  0  0  0  0  0  0  0  0  0
  -18.6296  -47.3980   -6.5713 S   0  0  0  0  0  6  0  0  0  0  0  0
  -19.3790  -46.8149   -5.0486 C   0  0  0  0  0  0  0  0  0  0  0  0
  -17.2781  -46.7717   -6.6435 O   0  0  0  0  0  0  0  0  0  0  0  0
  -18.4656  -48.8791   -6.5543 O   0  0  0  0  0  0  0  0  0  0  0  0
  -13.3764  -40.0681  -12.1065 C   0  0  0  0  0  0  0  0  0  0  0  0
  -12.8706  -39.2917  -13.1289 C   0  0  0  0  0  0  0  0  0  0  0  0
  -12.7329  -37.9225  -12.9631 C   0  0  0  0  0  0  0  0  0  0  0  0
  1  2  1  0
  2  3  1  0
  2  4  1  0
  4  5  2  0
  5  6  1  0
  6  7  1  0
  7  8  1  0
  8  9  1  0
  9 10  1  0
 10 11  1  6
 10 12  1  0
 12 13  1  1
 13 14  1  0
 14 15  1  6
 14 16  1  0
 16 17  1  0
 17 18  1  0
 18 19  1  0
 19 20  1  0
 20 21  1  0
 21 22  1  0
 22 23  1  0
 23 24  1  0
 24 25  2  0
 25 26  1  0
 26 27  2  0
 27 28  1  0
 28 29  2  0
 28 30  1  0
 30 31  2  0
 30 32  1  0
 26 33  1  0
 33 34  1  0
 33 35  1  0
 35 36  1  0
 35 37  2  0
 35 38  2  0
  6 39  2  0
 39 40  1  0
 40 41  2  0
 29 24  1  0
 32 12  1  0
 41  4  1  0
M  END
$$$$
