
     RDKit          3D

 41 43  0  0  0  0  0  0  0  0999 V2000
  -23.8046  -42.1014   -7.4958 C   0  0  0  0  0  0  0  0  0  0  0  0
  -23.3340  -40.7018   -7.2150 C   0  0  0  0  0  0  0  0  0  0  0  0
  -24.4518  -39.7261   -7.5568 C   0  0  0  0  0  0  0  0  0  0  0  0
  -22.9684  -40.5804   -5.7777 C   0  0  0  0  0  0  0  0  0  0  0  0
  -22.0075  -39.6842   -5.3571 C   0  0  0  0  0  0  0  0  0  0  0  0
  -21.6674  -39.5718   -4.0070 C   0  0  0  0  0  0  0  0  0  0  0  0
  -20.6186  -38.5727   -3.6216 C   0  0  0  0  0  0  0  0  0  0  0  0
  -19.6522  -38.4767   -4.6640 N   0  0  0  0  0  0  0  0  0  0  0  0
  -18.9560  -39.6873   -4.9873 C   0  0  0  0  0  0  0  0  0  0  0  0
  -18.0971  -39.4538   -6.2031 C   0  0  1  0  0  0  0  0  0  0  0  0
  -16.7719  -39.2996   -5.7836 O   0  0  0  0  0  0  0  0  0  0  0  0
  -18.2434  -40.5229   -7.2650 C   0  0  2  0  0  0  0  0  0  0  0  0
  -18.8341  -39.9539   -8.4814 C   0  0  0  0  0  0  0  0  0  0  0  0
  -17.7635  -39.7037   -9.5175 C   0  0  2  0  0  0  0  0  0  0  0  0
  -17.0874  -38.3689   -9.2108 C   0  0  0  0  0  0  0  0  0  0  0  0
  -18.4163  -39.5739  -10.8741 C   0  0  0  0  0  0  0  0  0  0  0  0
  -17.4891  -39.9343  -12.0020 C   0  0  0  0  0  0  0  0  0  0  0  0
  -17.2047  -41.3998  -12.0877 C   0  0  0  0  0  0  0  0  0  0  0  0
  -15.8196  -41.7152  -12.5821 C   0  0  0  0  0  0  0  0  0  0  0  0
  -15.8129  -43.0984  -13.1862 C   0  0  0  0  0  0  0  0  0  0  0  0
  -16.1269  -44.1683  -12.1754 C   0  0  0  0  0  0  0  0  0  0  0  0
  -14.9663  -44.5603  -11.3293 C   0  0  0  0  0  0  0  0  0  0  0  0
  -15.3567  -44.9995  -10.0783 O   0  0  0  0  0  0  0  0  0  0  0  0
  -16.4702  -44.9195   -9.2631 C   0  0  0  0  0  0  0  0  0  0  0  0
  -16.9457  -46.2079   -8.9518 C   0  0  0  0  0  0  0  0  0  0  0  0
  -18.0430  -46.4073   -8.1578 C   0  0  0  0  0  0  0  0  0  0  0  0
  -18.6450  -45.2843   -7.6880 C   0  0  0  0  0  0  0  0  0  0  0  0
  -18.2143  -43.9517   -7.9637 C   0  0  0  0  0  0  0  0  0  0  0  0
  -17.1097  -43.7965   -8.7640 C   0  0  0  0  0  0  0  0  0  0  0  0
  -19.0896  -42.9481   -7.3077 C   0  0  0  0  0  0  0  0  0  0  0  0
  -20.3634  -43.2987   -7.2570 O   0  0  0  0  0  0  0  0  0  0  0  0
  -18.8891  -41.7046   -6.7215 N   0  0  0  0  0  0  0  0  0  0  0  0
  -18.5154  -47.7095   -7.8490 N   0  0  0  0  0  0  0  0  0  0  0  0
  -19.9584  -47.9609   -7.8537 C   0  0  0  0  0  0  0  0  0  0  0  0
  -17.4403  -48.9896   -7.4713 S   0  0  0  0  0  6  0  0  0  0  0  0
  -16.0782  -48.8866   -8.6350 C   0  0  0  0  0  0  0  0  0  0  0  0
  -18.0978  -50.3074   -7.7066 O   0  0  0  0  0  0  0  0  0  0  0  0
  -16.9476  -48.9499   -6.0655 O   0  0  0  0  0  0  0  0  0  0  0  0
  -22.3024  -40.3691   -3.0822 C   0  0  0  0  0  0  0  0  0  0  0  0
  -23.2632  -41.2651   -3.5039 C   0  0  0  0  0  0  0  0  0  0  0  0
  -23.5861  -41.3610   -4.8485 C   0  0  0  0  0  0  0  0  0  0  0  0
  1  2  1  0
  2  3  1  0
  2  4  1  0
  4  5  2  0
  5  6  1  0
  6  7  1  0
  7  8  1  0
  8  9  1  0
  9 10  1  0
 10 11  1  1
 10 12  1  0
 12 13  1  6
 13 14  1  0
 14 15  1  1
 14 16  1  0
 16 17  1  0
 17 18  1  0
 18 19  1  0
 19 20  1  0
 20 21  1  0
 21 22  1  0
 22 23  1  0
 23 24  1  0
 24 25  2  0
 25 26  1  0
 26 27  2  0
 27 28  1  0
 28 29  2  0
 28 30  1  0
 30 31  2  0
 30 32  1  0
 26 33  1  0
 33 34  1  0
 33 35  1  0
 35 36  1  0
 35 37  2  0
 35 38  2  0
  6 39  2  0
 39 40  1  0
 40 41  2  0
 29 24  1  0
 32 12  1  0
 41  4  1  0
M  END
$$$$
