
     RDKit          3D

 41 43  0  0  0  0  0  0  0  0999 V2000
  -15.5536  -35.4494  -11.8183 C   0  0  0  0  0  0  0  0  0  0  0  0
  -14.3096  -36.0361  -12.4244 C   0  0  0  0  0  0  0  0  0  0  0  0
  -13.1359  -35.1089  -12.1399 C   0  0  0  0  0  0  0  0  0  0  0  0
  -14.0569  -37.3792  -11.8358 C   0  0  0  0  0  0  0  0  0  0  0  0
  -14.1312  -37.5891  -10.4742 C   0  0  0  0  0  0  0  0  0  0  0  0
  -13.8946  -38.8514   -9.9249 C   0  0  0  0  0  0  0  0  0  0  0  0
  -13.9984  -39.0074   -8.4377 C   0  0  0  0  0  0  0  0  0  0  0  0
  -15.2395  -39.6273   -8.1134 N   0  0  0  0  0  0  0  0  0  0  0  0
  -16.1494  -38.8397   -7.3347 C   0  0  0  0  0  0  0  0  0  0  0  0
  -17.5383  -38.9857   -7.9004 C   0  0  1  0  0  0  0  0  0  0  0  0
  -17.4315  -39.2372   -9.2720 O   0  0  0  0  0  0  0  0  0  0  0  0
  -18.3783  -40.0249   -7.1888 C   0  0  2  0  0  0  0  0  0  0  0  0
  -18.8586  -39.4993   -5.9061 C   0  0  0  0  0  0  0  0  0  0  0  0
  -20.3008  -39.0649   -6.0237 C   0  0  2  0  0  0  0  0  0  0  0  0
  -20.3420  -37.6612   -6.6245 C   0  0  0  0  0  0  0  0  0  0  0  0
  -20.8999  -38.9773   -4.6392 C   0  0  0  0  0  0  0  0  0  0  0  0
  -22.3922  -39.1637   -4.6389 C   0  0  0  0  0  0  0  0  0  0  0  0
  -22.8118  -40.5713   -4.9191 C   0  0  0  0  0  0  0  0  0  0  0  0
  -24.1098  -40.6726   -5.6725 C   0  0  0  0  0  0  0  0  0  0  0  0
  -24.7365  -42.0183   -5.3996 C   0  0  0  0  0  0  0  0  0  0  0  0
  -23.8936  -43.1579   -5.9055 C   0  0  0  0  0  0  0  0  0  0  0  0
  -24.0379  -43.4156   -7.3647 C   0  0  0  0  0  0  0  0  0  0  0  0
  -22.8893  -43.9503   -7.9168 O   0  0  0  0  0  0  0  0  0  0  0  0
  -21.5488  -44.0560   -7.5963 C   0  0  0  0  0  0  0  0  0  0  0  0
  -21.1604  -45.4085   -7.5444 C   0  0  0  0  0  0  0  0  0  0  0  0
  -19.8792  -45.7875   -7.2454 C   0  0  0  0  0  0  0  0  0  0  0  0
  -19.0050  -44.7772   -7.0022 C   0  0  0  0  0  0  0  0  0  0  0  0
  -19.3326  -43.3884   -7.0397 C   0  0  0  0  0  0  0  0  0  0  0  0
  -20.6284  -43.0519   -7.3438 C   0  0  0  0  0  0  0  0  0  0  0  0
  -18.1563  -42.5410   -6.7204 C   0  0  0  0  0  0  0  0  0  0  0  0
  -17.3453  -43.0669   -5.8182 O   0  0  0  0  0  0  0  0  0  0  0  0
  -17.6920  -41.3041   -7.1499 N   0  0  0  0  0  0  0  0  0  0  0  0
  -19.4963  -47.1533   -7.1954 N   0  0  0  0  0  0  0  0  0  0  0  0
  -20.4386  -48.1353   -6.6538 C   0  0  0  0  0  0  0  0  0  0  0  0
  -17.9622  -47.6778   -7.7509 S   0  0  0  0  0  6  0  0  0  0  0  0
  -18.1983  -48.3092   -9.4139 C   0  0  0  0  0  0  0  0  0  0  0  0
  -17.4755  -48.8234   -6.9295 O   0  0  0  0  0  0  0  0  0  0  0  0
  -16.9286  -46.6046   -7.7274 O   0  0  0  0  0  0  0  0  0  0  0  0
  -13.5822  -39.9021  -10.7570 C   0  0  0  0  0  0  0  0  0  0  0  0
  -13.5081  -39.6910  -12.1186 C   0  0  0  0  0  0  0  0  0  0  0  0
  -13.7466  -38.4306  -12.6436 C   0  0  0  0  0  0  0  0  0  0  0  0
  1  2  1  0
  2  3  1  0
  2  4  1  0
  4  5  2  0
  5  6  1  0
  6  7  1  0
  7  8  1  0
  8  9  1  0
  9 10  1  0
 10 11  1  6
 10 12  1  0
 12 13  1  1
 13 14  1  0
 14 15  1  1
 14 16  1  0
 16 17  1  0
 17 18  1  0
 18 19  1  0
 19 20  1  0
 20 21  1  0
 21 22  1  0
 22 23  1  0
 23 24  1  0
 24 25  2  0
 25 26  1  0
 26 27  2  0
 27 28  1  0
 28 29  2  0
 28 30  1  0
 30 31  2  0
 30 32  1  0
 26 33  1  0
 33 34  1  0
 33 35  1  0
 35 36  1  0
 35 37  2  0
 35 38  2  0
  6 39  2  0
 39 40  1  0
 40 41  2  0
 29 24  1  0
 32 12  1  0
 41  4  1  0
M  END
$$$$
