
     RDKit          3D

 41 43  0  0  0  0  0  0  0  0999 V2000
  -19.1958  -39.6569    2.5239 C   0  0  0  0  0  0  0  0  0  0  0  0
  -18.0283  -39.6901    1.5780 C   0  0  0  0  0  0  0  0  0  0  0  0
  -16.9538  -40.6045    2.1503 C   0  0  0  0  0  0  0  0  0  0  0  0
  -18.4782  -40.1940    0.2522 C   0  0  0  0  0  0  0  0  0  0  0  0
  -18.6885  -39.3342   -0.8062 C   0  0  0  0  0  0  0  0  0  0  0  0
  -19.1098  -39.8106   -2.0498 C   0  0  0  0  0  0  0  0  0  0  0  0
  -19.3126  -38.8197   -3.1560 C   0  0  0  0  0  0  0  0  0  0  0  0
  -19.3838  -39.5094   -4.4007 N   0  0  0  0  0  0  0  0  0  0  0  0
  -18.1281  -39.8216   -5.0174 C   0  0  0  0  0  0  0  0  0  0  0  0
  -18.0678  -39.1683   -6.3738 C   0  0  1  0  0  0  0  0  0  0  0  0
  -16.7656  -38.7020   -6.5811 O   0  0  0  0  0  0  0  0  0  0  0  0
  -18.5452  -40.0604   -7.5000 C   0  0  2  0  0  0  0  0  0  0  0  0
  -19.4877  -39.3350   -8.3588 C   0  0  0  0  0  0  0  0  0  0  0  0
  -18.7979  -38.8703   -9.6200 C   0  0  2  0  0  0  0  0  0  0  0  0
  -18.0553  -37.5694   -9.3211 C   0  0  0  0  0  0  0  0  0  0  0  0
  -19.8450  -38.5586  -10.6640 C   0  0  0  0  0  0  0  0  0  0  0  0
  -19.3223  -38.6883  -12.0681 C   0  0  0  0  0  0  0  0  0  0  0  0
  -19.0842  -40.1055  -12.4813 C   0  0  0  0  0  0  0  0  0  0  0  0
  -17.9268  -40.2690  -13.4280 C   0  0  0  0  0  0  0  0  0  0  0  0
  -18.1155  -41.5363  -14.2259 C   0  0  0  0  0  0  0  0  0  0  0  0
  -18.0981  -42.7677  -13.3609 C   0  0  0  0  0  0  0  0  0  0  0  0
  -16.7311  -43.2315  -12.9965 C   0  0  0  0  0  0  0  0  0  0  0  0
  -16.7082  -43.8831  -11.7779 O   0  0  0  0  0  0  0  0  0  0  0  0
  -17.5073  -43.9893  -10.6550 C   0  0  0  0  0  0  0  0  0  0  0  0
  -17.8644  -45.3328  -10.4305 C   0  0  0  0  0  0  0  0  0  0  0  0
  -18.6558  -45.7103   -9.3790 C   0  0  0  0  0  0  0  0  0  0  0  0
  -19.0751  -44.7077   -8.5646 C   0  0  0  0  0  0  0  0  0  0  0  0
  -18.7491  -43.3285   -8.7345 C   0  0  0  0  0  0  0  0  0  0  0  0
  -17.9529  -42.9932   -9.8015 C   0  0  0  0  0  0  0  0  0  0  0  0
  -19.3694  -42.4869   -7.6807 C   0  0  0  0  0  0  0  0  0  0  0  0
  -20.5633  -42.9038   -7.2947 O   0  0  0  0  0  0  0  0  0  0  0  0
  -18.9902  -41.3442   -6.9874 N   0  0  0  0  0  0  0  0  0  0  0  0
  -19.0108  -47.0669   -9.1601 N   0  0  0  0  0  0  0  0  0  0  0  0
  -18.7465  -48.0488  -10.2144 C   0  0  0  0  0  0  0  0  0  0  0  0
  -19.7398  -47.5805   -7.6966 S   0  0  0  0  0  6  0  0  0  0  0  0
  -21.4771  -47.1430   -7.7983 C   0  0  0  0  0  0  0  0  0  0  0  0
  -19.1799  -46.8205   -6.5421 O   0  0  0  0  0  0  0  0  0  0  0  0
  -19.5691  -49.0372   -7.4328 O   0  0  0  0  0  0  0  0  0  0  0  0
  -19.3181  -41.1602   -2.2207 C   0  0  0  0  0  0  0  0  0  0  0  0
  -19.1075  -42.0191   -1.1615 C   0  0  0  0  0  0  0  0  0  0  0  0
  -18.6894  -41.5261    0.0645 C   0  0  0  0  0  0  0  0  0  0  0  0
  1  2  1  0
  2  3  1  0
  2  4  1  0
  4  5  2  0
  5  6  1  0
  6  7  1  0
  7  8  1  0
  8  9  1  0
  9 10  1  0
 10 11  1  6
 10 12  1  0
 12 13  1  1
 13 14  1  0
 14 15  1  1
 14 16  1  0
 16 17  1  0
 17 18  1  0
 18 19  1  0
 19 20  1  0
 20 21  1  0
 21 22  1  0
 22 23  1  0
 23 24  1  0
 24 25  2  0
 25 26  1  0
 26 27  2  0
 27 28  1  0
 28 29  2  0
 28 30  1  0
 30 31  2  0
 30 32  1  0
 26 33  1  0
 33 34  1  0
 33 35  1  0
 35 36  1  0
 35 37  2  0
 35 38  2  0
  6 39  2  0
 39 40  1  0
 40 41  2  0
 29 24  1  0
 32 12  1  0
 41  4  1  0
M  END
$$$$
