
     RDKit          3D

 41 43  0  0  0  0  0  0  0  0999 V2000
  -14.7508  -35.0171  -11.7582 C   0  0  0  0  0  0  0  0  0  0  0  0
  -13.4803  -35.7309  -12.1261 C   0  0  0  0  0  0  0  0  0  0  0  0
  -12.3506  -35.2163  -11.2445 C   0  0  0  0  0  0  0  0  0  0  0  0
  -13.6589  -37.1949  -11.9289 C   0  0  0  0  0  0  0  0  0  0  0  0
  -13.8743  -37.7268  -10.6743 C   0  0  0  0  0  0  0  0  0  0  0  0
  -14.0428  -39.1015  -10.4927 C   0  0  0  0  0  0  0  0  0  0  0  0
  -14.2788  -39.6085   -9.1020 C   0  0  0  0  0  0  0  0  0  0  0  0
  -15.5135  -40.3181   -9.0612 N   0  0  0  0  0  0  0  0  0  0  0  0
  -16.6863  -39.5544   -9.3708 C   0  0  0  0  0  0  0  0  0  0  0  0
  -17.3822  -39.1760   -8.0891 C   0  0  1  0  0  0  0  0  0  0  0  0
  -18.1738  -38.0492   -8.3333 O   0  0  0  0  0  0  0  0  0  0  0  0
  -18.1710  -40.3093   -7.4682 C   0  0  2  0  0  0  0  0  0  0  0  0
  -18.8619  -39.8459   -6.2599 C   0  0  0  0  0  0  0  0  0  0  0  0
  -20.3210  -39.5889   -6.5553 C   0  0  2  0  0  0  0  0  0  0  0  0
  -20.4577  -38.2004   -7.1768 C   0  0  0  0  0  0  0  0  0  0  0  0
  -21.0886  -39.5747   -5.2538 C   0  0  0  0  0  0  0  0  0  0  0  0
  -22.5369  -39.9401   -5.4293 C   0  0  0  0  0  0  0  0  0  0  0  0
  -22.7478  -41.3880   -5.7374 C   0  0  0  0  0  0  0  0  0  0  0  0
  -23.9239  -41.6453   -6.6391 C   0  0  0  0  0  0  0  0  0  0  0  0
  -24.4128  -43.0570   -6.4238 C   0  0  0  0  0  0  0  0  0  0  0  0
  -23.3845  -44.0862   -6.8089 C   0  0  0  0  0  0  0  0  0  0  0  0
  -23.3201  -44.3592   -8.2710 C   0  0  0  0  0  0  0  0  0  0  0  0
  -22.0575  -44.7511   -8.6740 O   0  0  0  0  0  0  0  0  0  0  0  0
  -20.7624  -44.6939   -8.1940 C   0  0  0  0  0  0  0  0  0  0  0  0
  -20.2236  -45.9896   -8.0766 C   0  0  0  0  0  0  0  0  0  0  0  0
  -18.9516  -46.2111   -7.6212 C   0  0  0  0  0  0  0  0  0  0  0  0
  -18.2407  -45.1025   -7.2897 C   0  0  0  0  0  0  0  0  0  0  0  0
  -18.7257  -43.7636   -7.3861 C   0  0  0  0  0  0  0  0  0  0  0  0
  -20.0064  -43.5860   -7.8477 C   0  0  0  0  0  0  0  0  0  0  0  0
  -17.7067  -42.7803   -6.9405 C   0  0  0  0  0  0  0  0  0  0  0  0
  -16.9531  -43.2045   -5.9404 O   0  0  0  0  0  0  0  0  0  0  0  0
  -17.3459  -41.4962   -7.3292 N   0  0  0  0  0  0  0  0  0  0  0  0
  -18.4165  -47.5206   -7.5061 N   0  0  0  0  0  0  0  0  0  0  0  0
  -17.9079  -48.1877   -8.7069 C   0  0  0  0  0  0  0  0  0  0  0  0
  -18.3527  -48.3365   -6.0003 S   0  0  0  0  0  6  0  0  0  0  0  0
  -19.0454  -47.2235   -4.7749 C   0  0  0  0  0  0  0  0  0  0  0  0
  -16.9368  -48.5777   -5.5991 O   0  0  0  0  0  0  0  0  0  0  0  0
  -19.0727  -49.6412   -6.0063 O   0  0  0  0  0  0  0  0  0  0  0  0
  -13.9927  -39.9379  -11.5844 C   0  0  0  0  0  0  0  0  0  0  0  0
  -13.7771  -39.4049  -12.8387 C   0  0  0  0  0  0  0  0  0  0  0  0
  -13.6125  -38.0378  -12.9974 C   0  0  0  0  0  0  0  0  0  0  0  0
  1  2  1  0
  2  3  1  0
  2  4  1  0
  4  5  2  0
  5  6  1  0
  6  7  1  0
  7  8  1  0
  8  9  1  0
  9 10  1  0
 10 11  1  6
 10 12  1  0
 12 13  1  1
 13 14  1  0
 14 15  1  1
 14 16  1  0
 16 17  1  0
 17 18  1  0
 18 19  1  0
 19 20  1  0
 20 21  1  0
 21 22  1  0
 22 23  1  0
 23 24  1  0
 24 25  2  0
 25 26  1  0
 26 27  2  0
 27 28  1  0
 28 29  2  0
 28 30  1  0
 30 31  2  0
 30 32  1  0
 26 33  1  0
 33 34  1  0
 33 35  1  0
 35 36  1  0
 35 37  2  0
 35 38  2  0
  6 39  2  0
 39 40  1  0
 40 41  2  0
 29 24  1  0
 32 12  1  0
 41  4  1  0
M  END
$$$$
