
     RDKit          3D

 41 43  0  0  0  0  0  0  0  0999 V2000
  -16.1992  -35.3261  -11.8971 C   0  0  0  0  0  0  0  0  0  0  0  0
  -14.9699  -35.7324  -12.6605 C   0  0  0  0  0  0  0  0  0  0  0  0
  -13.8224  -34.8072  -12.2788 C   0  0  0  0  0  0  0  0  0  0  0  0
  -14.6243  -37.1416  -12.3307 C   0  0  0  0  0  0  0  0  0  0  0  0
  -14.3208  -37.5204  -11.0392 C   0  0  0  0  0  0  0  0  0  0  0  0
  -13.9979  -38.8444  -10.7327 C   0  0  0  0  0  0  0  0  0  0  0  0
  -13.6847  -39.1851   -9.3070 C   0  0  0  0  0  0  0  0  0  0  0  0
  -14.7515  -38.7457   -8.4712 N   0  0  0  0  0  0  0  0  0  0  0  0
  -15.9403  -39.5460   -8.4988 C   0  0  0  0  0  0  0  0  0  0  0  0
  -16.9230  -39.0060   -7.4922 C   0  0  1  0  0  0  0  0  0  0  0  0
  -17.5486  -37.8838   -8.0450 O   0  0  0  0  0  0  0  0  0  0  0  0
  -17.9183  -40.0358   -7.0015 C   0  0  2  0  0  0  0  0  0  0  0  0
  -18.6392  -39.5280   -5.8291 C   0  0  0  0  0  0  0  0  0  0  0  0
  -20.0144  -39.0453   -6.2269 C   0  0  2  0  0  0  0  0  0  0  0  0
  -19.8946  -37.6262   -6.7789 C   0  0  0  0  0  0  0  0  0  0  0  0
  -20.8838  -38.9740   -4.9930 C   0  0  0  0  0  0  0  0  0  0  0  0
  -22.3484  -39.1129   -5.3053 C   0  0  0  0  0  0  0  0  0  0  0  0
  -22.7373  -40.4989   -5.7097 C   0  0  0  0  0  0  0  0  0  0  0  0
  -23.8540  -40.5399   -6.7166 C   0  0  0  0  0  0  0  0  0  0  0  0
  -24.5580  -41.8716   -6.6207 C   0  0  0  0  0  0  0  0  0  0  0  0
  -23.6585  -43.0241   -6.9781 C   0  0  0  0  0  0  0  0  0  0  0  0
  -23.5052  -43.2400   -8.4431 C   0  0  0  0  0  0  0  0  0  0  0  0
  -22.2816  -43.7967   -8.7638 O   0  0  0  0  0  0  0  0  0  0  0  0
  -21.0392  -43.9528   -8.1781 C   0  0  0  0  0  0  0  0  0  0  0  0
  -20.7048  -45.3178   -8.0899 C   0  0  0  0  0  0  0  0  0  0  0  0
  -19.5231  -45.7447   -7.5460 C   0  0  0  0  0  0  0  0  0  0  0  0
  -18.6922  -44.7691   -7.0968 C   0  0  0  0  0  0  0  0  0  0  0  0
  -18.9691  -43.3701   -7.1572 C   0  0  0  0  0  0  0  0  0  0  0  0
  -20.1652  -42.9851   -7.7104 C   0  0  0  0  0  0  0  0  0  0  0  0
  -17.8626  -42.5688   -6.5765 C   0  0  0  0  0  0  0  0  0  0  0  0
  -17.2691  -43.1429   -5.5438 O   0  0  0  0  0  0  0  0  0  0  0  0
  -17.2880  -41.3367   -6.8625 N   0  0  0  0  0  0  0  0  0  0  0  0
  -19.1941  -47.1227   -7.4612 N   0  0  0  0  0  0  0  0  0  0  0  0
  -18.0532  -47.6287   -8.2279 C   0  0  0  0  0  0  0  0  0  0  0  0
  -20.0982  -48.2045   -6.4868 S   0  0  0  0  0  6  0  0  0  0  0  0
  -21.4417  -47.2579   -5.7662 C   0  0  0  0  0  0  0  0  0  0  0  0
  -19.2695  -48.6954   -5.3482 O   0  0  0  0  0  0  0  0  0  0  0  0
  -20.6162  -49.3823   -7.2386 O   0  0  0  0  0  0  0  0  0  0  0  0
  -13.9827  -39.7854  -11.7368 C   0  0  0  0  0  0  0  0  0  0  0  0
  -14.2863  -39.4055  -13.0280 C   0  0  0  0  0  0  0  0  0  0  0  0
  -14.6042  -38.0864  -13.3111 C   0  0  0  0  0  0  0  0  0  0  0  0
  1  2  1  0
  2  3  1  0
  2  4  1  0
  4  5  2  0
  5  6  1  0
  6  7  1  0
  7  8  1  0
  8  9  1  0
  9 10  1  0
 10 11  1  6
 10 12  1  0
 12 13  1  1
 13 14  1  0
 14 15  1  1
 14 16  1  0
 16 17  1  0
 17 18  1  0
 18 19  1  0
 19 20  1  0
 20 21  1  0
 21 22  1  0
 22 23  1  0
 23 24  1  0
 24 25  2  0
 25 26  1  0
 26 27  2  0
 27 28  1  0
 28 29  2  0
 28 30  1  0
 30 31  2  0
 30 32  1  0
 26 33  1  0
 33 34  1  0
 33 35  1  0
 35 36  1  0
 35 37  2  0
 35 38  2  0
  6 39  2  0
 39 40  1  0
 40 41  2  0
 29 24  1  0
 32 12  1  0
 41  4  1  0
M  END
$$$$
