
     RDKit          3D

 41 43  0  0  0  0  0  0  0  0999 V2000
  -14.5191  -37.5722  -12.7709 C   0  0  0  0  0  0  0  0  0  0  0  0
  -13.1725  -38.2398  -12.7598 C   0  0  0  0  0  0  0  0  0  0  0  0
  -12.1420  -37.2658  -12.2053 C   0  0  0  0  0  0  0  0  0  0  0  0
  -13.2317  -39.4617  -11.9126 C   0  0  0  0  0  0  0  0  0  0  0  0
  -13.1816  -39.3811  -10.5362 C   0  0  0  0  0  0  0  0  0  0  0  0
  -13.2385  -40.5300   -9.7437 C   0  0  0  0  0  0  0  0  0  0  0  0
  -13.1847  -40.3666   -8.2547 C   0  0  0  0  0  0  0  0  0  0  0  0
  -14.3342  -39.6477   -7.8168 N   0  0  0  0  0  0  0  0  0  0  0  0
  -15.5670  -39.9785   -8.4691 C   0  0  0  0  0  0  0  0  0  0  0  0
  -16.6829  -39.1748   -7.8535 C   0  0  1  0  0  0  0  0  0  0  0  0
  -17.0347  -38.1550   -8.7436 O   0  0  0  0  0  0  0  0  0  0  0  0
  -17.8746  -40.0099   -7.4358 C   0  0  2  0  0  0  0  0  0  0  0  0
  -18.6562  -39.3053   -6.4136 C   0  0  0  0  0  0  0  0  0  0  0  0
  -19.8821  -38.6751   -7.0319 C   0  0  2  0  0  0  0  0  0  0  0  0
  -19.4833  -37.3409   -7.6594 C   0  0  0  0  0  0  0  0  0  0  0  0
  -20.8820  -38.3752   -5.9394 C   0  0  0  0  0  0  0  0  0  0  0  0
  -22.2988  -38.3383   -6.4424 C   0  0  0  0  0  0  0  0  0  0  0  0
  -22.8342  -39.6880   -6.7995 C   0  0  0  0  0  0  0  0  0  0  0  0
  -23.8065  -39.6643   -7.9469 C   0  0  0  0  0  0  0  0  0  0  0  0
  -24.7068  -40.8725   -7.8575 C   0  0  0  0  0  0  0  0  0  0  0  0
  -23.9501  -42.1650   -8.0048 C   0  0  0  0  0  0  0  0  0  0  0  0
  -23.6444  -42.5296   -9.4155 C   0  0  0  0  0  0  0  0  0  0  0  0
  -22.4861  -43.2758   -9.5229 O   0  0  0  0  0  0  0  0  0  0  0  0
  -21.3660  -43.5488   -8.7602 C   0  0  0  0  0  0  0  0  0  0  0  0
  -21.2520  -44.9335   -8.5314 C   0  0  0  0  0  0  0  0  0  0  0  0
  -20.2263  -45.4690   -7.7996 C   0  0  0  0  0  0  0  0  0  0  0  0
  -19.3241  -44.5810   -7.3080 C   0  0  0  0  0  0  0  0  0  0  0  0
  -19.3802  -43.1682   -7.5038 C   0  0  0  0  0  0  0  0  0  0  0  0
  -20.4251  -42.6729   -8.2438 C   0  0  0  0  0  0  0  0  0  0  0  0
  -18.2505  -42.4784   -6.8317 C   0  0  0  0  0  0  0  0  0  0  0  0
  -17.8858  -43.0345   -5.6889 O   0  0  0  0  0  0  0  0  0  0  0  0
  -17.4674  -41.3676   -7.1199 N   0  0  0  0  0  0  0  0  0  0  0  0
  -20.1191  -46.8661   -7.5739 N   0  0  0  0  0  0  0  0  0  0  0  0
  -21.3388  -47.6435   -7.3428 C   0  0  0  0  0  0  0  0  0  0  0  0
  -18.6010  -47.6614   -7.5646 S   0  0  0  0  0  6  0  0  0  0  0  0
  -18.8696  -49.3048   -8.2333 C   0  0  0  0  0  0  0  0  0  0  0  0
  -18.1204  -47.8483   -6.1652 O   0  0  0  0  0  0  0  0  0  0  0  0
  -17.5509  -46.9356   -8.3336 O   0  0  0  0  0  0  0  0  0  0  0  0
  -13.3461  -41.7620  -10.3475 C   0  0  0  0  0  0  0  0  0  0  0  0
  -13.3961  -41.8415  -11.7241 C   0  0  0  0  0  0  0  0  0  0  0  0
  -13.3383  -40.6893  -12.4924 C   0  0  0  0  0  0  0  0  0  0  0  0
  1  2  1  0
  2  3  1  0
  2  4  1  0
  4  5  2  0
  5  6  1  0
  6  7  1  0
  7  8  1  0
  8  9  1  0
  9 10  1  0
 10 11  1  6
 10 12  1  0
 12 13  1  1
 13 14  1  0
 14 15  1  1
 14 16  1  0
 16 17  1  0
 17 18  1  0
 18 19  1  0
 19 20  1  0
 20 21  1  0
 21 22  1  0
 22 23  1  0
 23 24  1  0
 24 25  2  0
 25 26  1  0
 26 27  2  0
 27 28  1  0
 28 29  2  0
 28 30  1  0
 30 31  2  0
 30 32  1  0
 26 33  1  0
 33 34  1  0
 33 35  1  0
 35 36  1  0
 35 37  2  0
 35 38  2  0
  6 39  2  0
 39 40  1  0
 40 41  2  0
 29 24  1  0
 32 12  1  0
 41  4  1  0
M  END
$$$$
