
     RDKit          3D

 41 43  0  0  0  0  0  0  0  0999 V2000
  -11.4717  -42.4730   -8.8558 C   0  0  0  0  0  0  0  0  0  0  0  0
  -11.4143  -41.5964  -10.0754 C   0  0  0  0  0  0  0  0  0  0  0  0
  -10.5631  -42.2803  -11.1365 C   0  0  0  0  0  0  0  0  0  0  0  0
  -12.7924  -41.3712  -10.5896 C   0  0  0  0  0  0  0  0  0  0  0  0
  -13.3718  -40.1194  -10.5590 C   0  0  0  0  0  0  0  0  0  0  0  0
  -14.6652  -39.9111  -11.0436 C   0  0  0  0  0  0  0  0  0  0  0  0
  -15.2288  -38.5235  -10.9839 C   0  0  0  0  0  0  0  0  0  0  0  0
  -15.9603  -38.3627   -9.7719 N   0  0  0  0  0  0  0  0  0  0  0  0
  -17.2182  -39.0463   -9.7031 C   0  0  0  0  0  0  0  0  0  0  0  0
  -17.9051  -38.6883   -8.4107 C   0  0  1  0  0  0  0  0  0  0  0  0
  -18.8691  -37.7113   -8.6796 O   0  0  0  0  0  0  0  0  0  0  0  0
  -18.4836  -39.8809   -7.6791 C   0  0  2  0  0  0  0  0  0  0  0  0
  -18.8934  -39.4965   -6.3240 C   0  0  0  0  0  0  0  0  0  0  0  0
  -20.3902  -39.3007   -6.2639 C   0  0  2  0  0  0  0  0  0  0  0  0
  -20.7216  -37.8987   -6.7714 C   0  0  0  0  0  0  0  0  0  0  0  0
  -20.8355  -39.3718   -4.8216 C   0  0  0  0  0  0  0  0  0  0  0  0
  -22.2695  -39.8011   -4.6766 C   0  0  0  0  0  0  0  0  0  0  0  0
  -22.4890  -41.2453   -4.9956 C   0  0  0  0  0  0  0  0  0  0  0  0
  -23.8310  -41.5268   -5.6141 C   0  0  0  0  0  0  0  0  0  0  0  0
  -24.2010  -42.9677   -5.3587 C   0  0  0  0  0  0  0  0  0  0  0  0
  -23.2502  -43.9304   -6.0176 C   0  0  0  0  0  0  0  0  0  0  0  0
  -23.5156  -44.1462   -7.4666 C   0  0  0  0  0  0  0  0  0  0  0  0
  -22.3663  -44.4607   -8.1669 O   0  0  0  0  0  0  0  0  0  0  0  0
  -20.9985  -44.3577   -7.9951 C   0  0  0  0  0  0  0  0  0  0  0  0
  -20.3967  -45.6289   -8.0657 C   0  0  0  0  0  0  0  0  0  0  0  0
  -19.0462  -45.8043   -7.9255 C   0  0  0  0  0  0  0  0  0  0  0  0
  -18.3219  -44.6751   -7.7146 C   0  0  0  0  0  0  0  0  0  0  0  0
  -18.8681  -43.3589   -7.6340 C   0  0  0  0  0  0  0  0  0  0  0  0
  -20.2269  -43.2275   -7.7802 C   0  0  0  0  0  0  0  0  0  0  0  0
  -17.8131  -42.3438   -7.3888 C   0  0  0  0  0  0  0  0  0  0  0  0
  -16.8322  -42.7669   -6.6096 O   0  0  0  0  0  0  0  0  0  0  0  0
  -17.6028  -41.0302   -7.7893 N   0  0  0  0  0  0  0  0  0  0  0  0
  -18.4479  -47.0893   -7.9981 N   0  0  0  0  0  0  0  0  0  0  0  0
  -17.6227  -47.4234   -9.1612 C   0  0  0  0  0  0  0  0  0  0  0  0
  -18.6688  -48.2549   -6.7613 S   0  0  0  0  0  6  0  0  0  0  0  0
  -20.0538  -49.2832   -7.2558 C   0  0  0  0  0  0  0  0  0  0  0  0
  -19.0693  -47.5915   -5.4871 O   0  0  0  0  0  0  0  0  0  0  0  0
  -17.4543  -49.0795   -6.5051 O   0  0  0  0  0  0  0  0  0  0  0  0
  -15.3720  -40.9731  -11.5598 C   0  0  0  0  0  0  0  0  0  0  0  0
  -14.7916  -42.2246  -11.5899 C   0  0  0  0  0  0  0  0  0  0  0  0
  -13.5068  -42.4100  -11.1041 C   0  0  0  0  0  0  0  0  0  0  0  0
  1  2  1  0
  2  3  1  0
  2  4  1  0
  4  5  2  0
  5  6  1  0
  6  7  1  0
  7  8  1  0
  8  9  1  0
  9 10  1  0
 10 11  1  6
 10 12  1  0
 12 13  1  1
 13 14  1  0
 14 15  1  1
 14 16  1  0
 16 17  1  0
 17 18  1  0
 18 19  1  0
 19 20  1  0
 20 21  1  0
 21 22  1  0
 22 23  1  0
 23 24  1  0
 24 25  2  0
 25 26  1  0
 26 27  2  0
 27 28  1  0
 28 29  2  0
 28 30  1  0
 30 31  2  0
 30 32  1  0
 26 33  1  0
 33 34  1  0
 33 35  1  0
 35 36  1  0
 35 37  2  0
 35 38  2  0
  6 39  2  0
 39 40  1  0
 40 41  2  0
 29 24  1  0
 32 12  1  0
 41  4  1  0
M  END
$$$$
