
     RDKit          3D

 38 40  0  0  0  0  0  0  0  0999 V2000
  -18.7588  -39.1352   -4.5611 C   0  0  0  0  0  0  0  0  0  0  0  0
  -19.7186  -39.0449   -5.7606 C   0  0  2  0  0  0  0  0  0  0  0  0
  -20.6575  -40.1483   -5.7185 C   0  0  0  0  0  0  0  0  0  0  0  0
  -21.8511  -40.4460   -4.9559 C   0  0  0  0  0  0  0  0  0  0  0  0
  -22.7694  -41.3525   -5.7621 C   0  0  0  0  0  0  0  0  0  0  0  0
  -22.3278  -42.7310   -6.0486 C   0  0  0  0  0  0  0  0  0  0  0  0
  -23.3569  -43.5679   -6.8367 C   0  0  0  0  0  0  0  0  0  0  0  0
  -22.8101  -44.7167   -7.5680 C   0  0  0  0  0  0  0  0  0  0  0  0
  -23.3184  -45.1849   -8.8707 C   0  0  0  0  0  0  0  0  0  0  0  0
  -22.9250  -44.3812  -10.0332 O   0  0  0  0  0  0  0  0  0  0  0  0
  -22.2812  -43.1120   -9.7892 C   0  0  0  0  0  0  0  0  0  0  0  0
  -20.9444  -42.9764   -9.5161 C   0  0  0  0  0  0  0  0  0  0  0  0
  -20.4432  -41.7240   -9.2040 C   0  0  0  0  0  0  0  0  0  0  0  0
  -21.4159  -40.6827   -9.2422 C   0  0  0  0  0  0  0  0  0  0  0  0
  -22.7299  -40.8006   -9.5363 C   0  0  0  0  0  0  0  0  0  0  0  0
  -23.0999  -42.0322   -9.7965 N   0  0  0  0  0  0  0  0  0  0  0  0
  -19.2156  -41.3004   -8.5359 C   0  0  0  0  0  0  0  0  0  0  0  0
  -19.1050  -42.0144   -7.3733 O   0  0  0  0  0  0  0  0  0  0  0  0
  -18.0926  -40.4793   -8.5378 N   0  0  0  0  0  0  0  0  0  0  0  0
  -18.0445  -39.1618   -7.8545 C   0  0  1  0  0  0  0  0  0  0  0  0
  -19.0875  -38.6265   -7.0199 C   0  0  0  0  0  0  0  0  0  0  0  0
  -16.6644  -38.7942   -7.5097 C   0  0  2  0  0  0  0  0  0  0  0  0
  -16.6004  -38.0962   -6.2562 O   0  0  0  0  0  0  0  0  0  0  0  0
  -15.8388  -37.9824   -8.4237 C   0  0  0  0  0  0  0  0  0  0  0  0
  -16.6382  -37.2885   -9.4090 N   0  0  0  0  0  0  0  0  0  0  0  0
  -15.9385  -37.1150  -10.6646 C   0  0  0  0  0  0  0  0  0  0  0  0
  -16.8549  -36.9188  -11.8155 C   0  0  0  0  0  0  0  0  0  0  0  0
  -14.9248  -36.0020  -10.5324 C   0  0  0  0  0  0  0  0  0  0  0  0
  -15.1709  -38.3814  -10.8717 C   0  0  0  0  0  0  0  0  0  0  0  0
  -13.8175  -38.5728  -11.0511 C   0  0  0  0  0  0  0  0  0  0  0  0
  -13.5761  -39.9184  -11.2019 C   0  0  0  0  0  0  0  0  0  0  0  0
  -12.2651  -40.6106  -11.4215 C   0  0  0  0  0  0  0  0  0  0  0  0
  -12.0216  -40.8335  -12.8989 C   0  0  0  0  0  0  0  0  0  0  0  0
  -13.2263  -41.6277  -13.4164 C   0  0  0  0  0  0  0  0  0  0  0  0
  -11.9165  -39.4911  -13.5548 C   0  0  0  0  0  0  0  0  0  0  0  0
  -10.7938  -41.6382  -13.1646 C   0  0  0  0  0  0  0  0  0  0  0  0
  -14.7546  -40.5048  -11.1142 O   0  0  0  0  0  0  0  0  0  0  0  0
  -15.6930  -39.6404  -10.9235 N   0  0  0  0  0  0  0  0  0  0  0  0
  2  1  1  1
  2  3  1  0
  3  4  1  0
  4  5  1  0
  5  6  1  0
  6  7  1  0
  7  8  1  0
  8  9  1  0
  9 10  1  0
 10 11  1  0
 11 12  1  0
 12 13  2  0
 13 14  1  0
 14 15  2  0
 15 16  1  0
 13 17  1  0
 17 18  2  0
 17 19  1  0
 19 20  1  0
 20 21  1  1
 20 22  1  0
 22 23  1  1
 22 24  1  0
 24 25  1  0
 25 26  1  0
 26 27  1  0
 26 28  1  0
 26 29  1  0
 29 30  1  0
 30 31  2  0
 31 32  1  0
 32 33  1  0
 33 34  1  0
 33 35  1  0
 33 36  1  0
 31 37  1  0
 37 38  1  0
 16 11  2  0
 21  2  1  0
 38 29  2  0
M  END
$$$$
