
     RDKit          3D

 38 40  0  0  0  0  0  0  0  0999 V2000
  -19.5266  -37.1075   -7.0174 C   0  0  0  0  0  0  0  0  0  0  0  0
  -19.7657  -38.3151   -7.9407 C   0  0  2  0  0  0  0  0  0  0  0  0
  -20.7438  -39.2013   -7.3418 C   0  0  0  0  0  0  0  0  0  0  0  0
  -22.1847  -39.1899   -7.2047 C   0  0  0  0  0  0  0  0  0  0  0  0
  -22.7090  -40.6156   -7.1176 C   0  0  0  0  0  0  0  0  0  0  0  0
  -22.3696  -41.4219   -5.9293 C   0  0  0  0  0  0  0  0  0  0  0  0
  -22.9895  -42.8348   -5.9327 C   0  0  0  0  0  0  0  0  0  0  0  0
  -22.3139  -43.8232   -5.0842 C   0  0  0  0  0  0  0  0  0  0  0  0
  -22.1858  -45.2528   -5.4225 C   0  0  0  0  0  0  0  0  0  0  0  0
  -21.1778  -45.5785   -6.4374 O   0  0  0  0  0  0  0  0  0  0  0  0
  -20.5716  -44.4860   -7.1611 C   0  0  0  0  0  0  0  0  0  0  0  0
  -19.5287  -43.7384   -6.6779 C   0  0  0  0  0  0  0  0  0  0  0  0
  -19.0810  -42.6521   -7.4104 C   0  0  0  0  0  0  0  0  0  0  0  0
  -19.7675  -42.4610   -8.6451 C   0  0  0  0  0  0  0  0  0  0  0  0
  -20.7781  -43.2074   -9.1435 C   0  0  0  0  0  0  0  0  0  0  0  0
  -21.1346  -44.1970   -8.3592 N   0  0  0  0  0  0  0  0  0  0  0  0
  -18.2858  -41.4842   -7.0413 C   0  0  0  0  0  0  0  0  0  0  0  0
  -18.8458  -40.9350   -5.9196 O   0  0  0  0  0  0  0  0  0  0  0  0
  -17.2048  -40.6545   -7.3218 N   0  0  0  0  0  0  0  0  0  0  0  0
  -17.3202  -39.4055   -8.1165 C   0  0  1  0  0  0  0  0  0  0  0  0
  -18.5558  -38.8393   -8.5893 C   0  0  0  0  0  0  0  0  0  0  0  0
  -16.2440  -38.4631   -7.7812 C   0  0  2  0  0  0  0  0  0  0  0  0
  -16.6829  -37.4728   -6.8382 O   0  0  0  0  0  0  0  0  0  0  0  0
  -15.5514  -37.6897   -8.8292 C   0  0  0  0  0  0  0  0  0  0  0  0
  -15.0713  -38.5332   -9.9013 N   0  0  0  0  0  0  0  0  0  0  0  0
  -14.3821  -37.7811  -10.9288 C   0  0  0  0  0  0  0  0  0  0  0  0
  -15.3082  -37.0645  -11.8409 C   0  0  0  0  0  0  0  0  0  0  0  0
  -13.3668  -36.8612  -10.2912 C   0  0  0  0  0  0  0  0  0  0  0  0
  -13.6170  -38.7940  -11.7191 C   0  0  0  0  0  0  0  0  0  0  0  0
  -12.4582  -38.6487  -12.4515 C   0  0  0  0  0  0  0  0  0  0  0  0
  -12.1292  -39.8635  -13.0064 C   0  0  0  0  0  0  0  0  0  0  0  0
  -10.9593  -40.2023  -13.8797 C   0  0  0  0  0  0  0  0  0  0  0  0
  -11.3048  -39.9906  -15.3383 C   0  0  0  0  0  0  0  0  0  0  0  0
  -12.4555  -40.9543  -15.6499 C   0  0  0  0  0  0  0  0  0  0  0  0
  -11.7146  -38.5603  -15.5104 C   0  0  0  0  0  0  0  0  0  0  0  0
  -10.1718  -40.3191  -16.2515 C   0  0  0  0  0  0  0  0  0  0  0  0
  -13.0680  -40.7023  -12.6122 O   0  0  0  0  0  0  0  0  0  0  0  0
  -13.9398  -40.1108  -11.8677 N   0  0  0  0  0  0  0  0  0  0  0  0
  2  1  1  1
  2  3  1  0
  3  4  1  0
  4  5  1  0
  5  6  1  0
  6  7  1  0
  7  8  1  0
  8  9  1  0
  9 10  1  0
 10 11  1  0
 11 12  1  0
 12 13  2  0
 13 14  1  0
 14 15  2  0
 15 16  1  0
 13 17  1  0
 17 18  2  0
 17 19  1  0
 19 20  1  0
 20 21  1  1
 20 22  1  0
 22 23  1  1
 22 24  1  0
 24 25  1  0
 25 26  1  0
 26 27  1  0
 26 28  1  0
 26 29  1  0
 29 30  1  0
 30 31  2  0
 31 32  1  0
 32 33  1  0
 33 34  1  0
 33 35  1  0
 33 36  1  0
 31 37  1  0
 37 38  1  0
 16 11  2  0
 21  2  1  0
 38 29  2  0
M  END
$$$$
