
     RDKit          3D

 38 40  0  0  0  0  0  0  0  0999 V2000
  -19.9534  -38.0735   -5.4949 C   0  0  0  0  0  0  0  0  0  0  0  0
  -20.2961  -38.9832   -6.6879 C   0  0  2  0  0  0  0  0  0  0  0  0
  -21.1569  -40.0627   -6.2470 C   0  0  0  0  0  0  0  0  0  0  0  0
  -22.5627  -40.1817   -5.9234 C   0  0  0  0  0  0  0  0  0  0  0  0
  -23.0364  -41.6040   -6.1836 C   0  0  0  0  0  0  0  0  0  0  0  0
  -22.5105  -42.6904   -5.3348 C   0  0  0  0  0  0  0  0  0  0  0  0
  -23.0922  -44.0809   -5.6644 C   0  0  0  0  0  0  0  0  0  0  0  0
  -22.2787  -45.2242   -5.2347 C   0  0  0  0  0  0  0  0  0  0  0  0
  -22.1685  -46.4886   -5.9856 C   0  0  0  0  0  0  0  0  0  0  0  0
  -21.3108  -46.4494   -7.1751 O   0  0  0  0  0  0  0  0  0  0  0  0
  -20.8406  -45.1607   -7.6256 C   0  0  0  0  0  0  0  0  0  0  0  0
  -19.7560  -44.5158   -7.0891 C   0  0  0  0  0  0  0  0  0  0  0  0
  -19.4437  -43.2406   -7.5289 C   0  0  0  0  0  0  0  0  0  0  0  0
  -20.3058  -42.7519   -8.5537 C   0  0  0  0  0  0  0  0  0  0  0  0
  -21.3606  -43.3892   -9.1085 C   0  0  0  0  0  0  0  0  0  0  0  0
  -21.5774  -44.5807   -8.6038 N   0  0  0  0  0  0  0  0  0  0  0  0
  -18.6301  -42.1769   -6.9464 C   0  0  0  0  0  0  0  0  0  0  0  0
  -19.0343  -42.0041   -5.6501 O   0  0  0  0  0  0  0  0  0  0  0  0
  -17.6202  -41.2350   -7.1153 N   0  0  0  0  0  0  0  0  0  0  0  0
  -17.8776  -39.8222   -7.4926 C   0  0  1  0  0  0  0  0  0  0  0  0
  -19.1812  -39.2248   -7.6140 C   0  0  0  0  0  0  0  0  0  0  0  0
  -16.7859  -38.9470   -7.0444 C   0  0  2  0  0  0  0  0  0  0  0  0
  -17.0147  -37.5803   -7.4215 O   0  0  0  0  0  0  0  0  0  0  0  0
  -15.3879  -39.2066   -7.4376 C   0  0  0  0  0  0  0  0  0  0  0  0
  -15.1309  -38.8370   -8.8119 N   0  0  0  0  0  0  0  0  0  0  0  0
  -14.4565  -39.8854   -9.5483 C   0  0  0  0  0  0  0  0  0  0  0  0
  -13.3614  -40.5231   -8.7756 C   0  0  0  0  0  0  0  0  0  0  0  0
  -15.4706  -40.8857  -10.0530 C   0  0  0  0  0  0  0  0  0  0  0  0
  -13.8701  -39.2152  -10.7496 C   0  0  0  0  0  0  0  0  0  0  0  0
  -13.8392  -37.8788  -11.0864 C   0  0  0  0  0  0  0  0  0  0  0  0
  -13.1889  -37.7399  -12.2903 C   0  0  0  0  0  0  0  0  0  0  0  0
  -12.9097  -36.4837  -13.0586 C   0  0  0  0  0  0  0  0  0  0  0  0
  -11.4209  -36.2176  -13.1210 C   0  0  0  0  0  0  0  0  0  0  0  0
  -11.2529  -34.9019  -13.8896 C   0  0  0  0  0  0  0  0  0  0  0  0
  -10.9142  -36.1098  -11.7156 C   0  0  0  0  0  0  0  0  0  0  0  0
  -10.6772  -37.2786  -13.8606 C   0  0  0  0  0  0  0  0  0  0  0  0
  -12.8457  -38.9607  -12.6539 O   0  0  0  0  0  0  0  0  0  0  0  0
  -13.2269  -39.8319  -11.7821 N   0  0  0  0  0  0  0  0  0  0  0  0
  2  1  1  1
  2  3  1  0
  3  4  1  0
  4  5  1  0
  5  6  1  0
  6  7  1  0
  7  8  1  0
  8  9  1  0
  9 10  1  0
 10 11  1  0
 11 12  1  0
 12 13  2  0
 13 14  1  0
 14 15  2  0
 15 16  1  0
 13 17  1  0
 17 18  2  0
 17 19  1  0
 19 20  1  0
 20 21  1  1
 20 22  1  0
 22 23  1  6
 22 24  1  0
 24 25  1  0
 25 26  1  0
 26 27  1  0
 26 28  1  0
 26 29  1  0
 29 30  1  0
 30 31  2  0
 31 32  1  0
 32 33  1  0
 33 34  1  0
 33 35  1  0
 33 36  1  0
 31 37  1  0
 37 38  1  0
 16 11  2  0
 21  2  1  0
 38 29  2  0
M  END
$$$$
