
     RDKit          3D

 38 40  0  0  0  0  0  0  0  0999 V2000
  -19.7430  -38.8527   -4.9086 C   0  0  0  0  0  0  0  0  0  0  0  0
  -20.2676  -39.2539   -6.2986 C   0  0  2  0  0  0  0  0  0  0  0  0
  -21.2563  -40.3050   -6.1624 C   0  0  0  0  0  0  0  0  0  0  0  0
  -22.6486  -40.3538   -5.7695 C   0  0  0  0  0  0  0  0  0  0  0  0
  -23.3360  -41.5338   -6.4405 C   0  0  0  0  0  0  0  0  0  0  0  0
  -22.9370  -42.8996   -6.0497 C   0  0  0  0  0  0  0  0  0  0  0  0
  -23.7295  -44.0132   -6.7655 C   0  0  0  0  0  0  0  0  0  0  0  0
  -23.0733  -45.3248   -6.8134 C   0  0  0  0  0  0  0  0  0  0  0  0
  -23.1824  -46.2624   -7.9464 C   0  0  0  0  0  0  0  0  0  0  0  0
  -22.3820  -45.9269   -9.1292 O   0  0  0  0  0  0  0  0  0  0  0  0
  -21.7492  -44.6297   -9.1698 C   0  0  0  0  0  0  0  0  0  0  0  0
  -20.5593  -44.3433   -8.5516 C   0  0  0  0  0  0  0  0  0  0  0  0
  -20.0842  -43.0429   -8.5722 C   0  0  0  0  0  0  0  0  0  0  0  0
  -20.9105  -42.1336   -9.2950 C   0  0  0  0  0  0  0  0  0  0  0  0
  -22.0707  -42.4104   -9.9306 C   0  0  0  0  0  0  0  0  0  0  0  0
  -22.4364  -43.6664   -9.8301 N   0  0  0  0  0  0  0  0  0  0  0  0
  -19.0989  -42.3484   -7.7478 C   0  0  0  0  0  0  0  0  0  0  0  0
  -19.4153  -42.5780   -6.4361 O   0  0  0  0  0  0  0  0  0  0  0  0
  -17.9709  -41.5364   -7.6875 N   0  0  0  0  0  0  0  0  0  0  0  0
  -18.0358  -40.0591   -7.5521 C   0  0  1  0  0  0  0  0  0  0  0  0
  -19.2423  -39.3012   -7.3501 C   0  0  0  0  0  0  0  0  0  0  0  0
  -16.8091  -39.5289   -6.9414 C   0  0  2  0  0  0  0  0  0  0  0  0
  -16.7464  -38.0973   -7.0378 O   0  0  0  0  0  0  0  0  0  0  0  0
  -15.4773  -39.9846   -7.3826 C   0  0  0  0  0  0  0  0  0  0  0  0
  -14.7847  -38.9770   -8.1547 N   0  0  0  0  0  0  0  0  0  0  0  0
  -13.9644  -39.5504   -9.2009 C   0  0  0  0  0  0  0  0  0  0  0  0
  -12.6520  -40.0364   -8.7065 C   0  0  0  0  0  0  0  0  0  0  0  0
  -14.7438  -40.6209   -9.9291 C   0  0  0  0  0  0  0  0  0  0  0  0
  -13.7299  -38.4419  -10.1767 C   0  0  0  0  0  0  0  0  0  0  0  0
  -14.1867  -38.2934  -11.4689 C   0  0  0  0  0  0  0  0  0  0  0  0
  -13.7096  -37.1066  -11.9742 C   0  0  0  0  0  0  0  0  0  0  0  0
  -13.9363  -36.5143  -13.3321 C   0  0  0  0  0  0  0  0  0  0  0  0
  -12.8422  -35.5242  -13.6705 C   0  0  0  0  0  0  0  0  0  0  0  0
  -12.9418  -34.4037  -12.6292 C   0  0  0  0  0  0  0  0  0  0  0  0
  -11.5309  -36.2435  -13.5905 C   0  0  0  0  0  0  0  0  0  0  0  0
  -13.0170  -34.9127  -15.0200 C   0  0  0  0  0  0  0  0  0  0  0  0
  -12.9910  -36.5697  -11.0069 O   0  0  0  0  0  0  0  0  0  0  0  0
  -12.9859  -37.3200   -9.9576 N   0  0  0  0  0  0  0  0  0  0  0  0
  2  1  1  1
  2  3  1  0
  3  4  1  0
  4  5  1  0
  5  6  1  0
  6  7  1  0
  7  8  1  0
  8  9  1  0
  9 10  1  0
 10 11  1  0
 11 12  1  0
 12 13  2  0
 13 14  1  0
 14 15  2  0
 15 16  1  0
 13 17  1  0
 17 18  2  0
 17 19  1  0
 19 20  1  0
 20 21  1  1
 20 22  1  0
 22 23  1  6
 22 24  1  0
 24 25  1  0
 25 26  1  0
 26 27  1  0
 26 28  1  0
 26 29  1  0
 29 30  1  0
 30 31  2  0
 31 32  1  0
 32 33  1  0
 33 34  1  0
 33 35  1  0
 33 36  1  0
 31 37  1  0
 37 38  1  0
 16 11  2  0
 21  2  1  0
 38 29  2  0
M  END
$$$$
