
     RDKit          3D

 38 40  0  0  0  0  0  0  0  0999 V2000
  -18.9328  -37.3445   -6.9996 C   0  0  0  0  0  0  0  0  0  0  0  0
  -19.4931  -38.5515   -7.7724 C   0  0  2  0  0  0  0  0  0  0  0  0
  -20.6274  -39.1039   -7.0590 C   0  0  0  0  0  0  0  0  0  0  0  0
  -22.0166  -38.7291   -6.9010 C   0  0  0  0  0  0  0  0  0  0  0  0
  -22.8617  -39.9672   -6.6404 C   0  0  0  0  0  0  0  0  0  0  0  0
  -22.6731  -40.6974   -5.3721 C   0  0  0  0  0  0  0  0  0  0  0  0
  -23.6118  -41.9099   -5.2012 C   0  0  0  0  0  0  0  0  0  0  0  0
  -23.1553  -42.9340   -4.2545 C   0  0  0  0  0  0  0  0  0  0  0  0
  -23.3870  -44.3801   -4.4264 C   0  0  0  0  0  0  0  0  0  0  0  0
  -22.5311  -45.0487   -5.4126 O   0  0  0  0  0  0  0  0  0  0  0  0
  -21.7138  -44.2210   -6.2680 C   0  0  0  0  0  0  0  0  0  0  0  0
  -20.5025  -43.7001   -5.8917 C   0  0  0  0  0  0  0  0  0  0  0  0
  -19.8409  -42.8409   -6.7527 C   0  0  0  0  0  0  0  0  0  0  0  0
  -20.5151  -42.6249   -7.9900 C   0  0  0  0  0  0  0  0  0  0  0  0
  -21.6954  -43.1542   -8.3820 C   0  0  0  0  0  0  0  0  0  0  0  0
  -22.2433  -43.9365   -7.4824 N   0  0  0  0  0  0  0  0  0  0  0  0
  -18.7746  -41.8672   -6.5346 C   0  0  0  0  0  0  0  0  0  0  0  0
  -19.1379  -41.0800   -5.4755 O   0  0  0  0  0  0  0  0  0  0  0  0
  -17.5401  -41.3595   -6.9269 N   0  0  0  0  0  0  0  0  0  0  0  0
  -17.3886  -40.2140   -7.8595 C   0  0  1  0  0  0  0  0  0  0  0  0
  -18.4728  -39.4204   -8.3749 C   0  0  0  0  0  0  0  0  0  0  0  0
  -16.1050  -39.5294   -7.6532 C   0  0  2  0  0  0  0  0  0  0  0  0
  -16.1158  -38.7342   -6.4574 O   0  0  0  0  0  0  0  0  0  0  0  0
  -15.5416  -38.6355   -8.6827 C   0  0  0  0  0  0  0  0  0  0  0  0
  -15.6155  -39.2138  -10.0061 N   0  0  0  0  0  0  0  0  0  0  0  0
  -14.3426  -39.7426  -10.4492 C   0  0  0  0  0  0  0  0  0  0  0  0
  -13.3366  -39.8175   -9.3604 C   0  0  0  0  0  0  0  0  0  0  0  0
  -14.5553  -41.0714  -11.1365 C   0  0  0  0  0  0  0  0  0  0  0  0
  -13.8541  -38.7865  -11.4900 C   0  0  0  0  0  0  0  0  0  0  0  0
  -12.7719  -38.8842  -12.3384 C   0  0  0  0  0  0  0  0  0  0  0  0
  -12.7212  -37.7563  -13.1239 C   0  0  0  0  0  0  0  0  0  0  0  0
  -11.7279  -37.4083  -14.1909 C   0  0  0  0  0  0  0  0  0  0  0  0
  -10.7469  -36.3713  -13.6871 C   0  0  0  0  0  0  0  0  0  0  0  0
   -9.5851  -36.3596  -14.6872 C   0  0  0  0  0  0  0  0  0  0  0  0
  -11.4553  -35.0525  -13.6415 C   0  0  0  0  0  0  0  0  0  0  0  0
  -10.1921  -36.7089  -12.3440 C   0  0  0  0  0  0  0  0  0  0  0  0
  -13.7452  -37.0137  -12.7493 O   0  0  0  0  0  0  0  0  0  0  0  0
  -14.4162  -37.5850  -11.8072 N   0  0  0  0  0  0  0  0  0  0  0  0
  2  1  1  1
  2  3  1  0
  3  4  1  0
  4  5  1  0
  5  6  1  0
  6  7  1  0
  7  8  1  0
  8  9  1  0
  9 10  1  0
 10 11  1  0
 11 12  1  0
 12 13  2  0
 13 14  1  0
 14 15  2  0
 15 16  1  0
 13 17  1  0
 17 18  2  0
 17 19  1  0
 19 20  1  0
 20 21  1  1
 20 22  1  0
 22 23  1  1
 22 24  1  0
 24 25  1  0
 25 26  1  0
 26 27  1  0
 26 28  1  0
 26 29  1  0
 29 30  1  0
 30 31  2  0
 31 32  1  0
 32 33  1  0
 33 34  1  0
 33 35  1  0
 33 36  1  0
 31 37  1  0
 37 38  1  0
 16 11  2  0
 21  2  1  0
 38 29  2  0
M  END
$$$$
