
     RDKit          3D

 38 40  0  0  0  0  0  0  0  0999 V2000
  -14.4316  -42.8739  -10.1038 C   0  0  0  0  0  0  0  0  0  0  0  0
  -15.0469  -43.3602   -8.7798 C   0  0  2  0  0  0  0  0  0  0  0  0
  -16.0866  -44.3324   -9.0528 C   0  0  0  0  0  0  0  0  0  0  0  0
  -16.1060  -45.7319   -9.4218 C   0  0  0  0  0  0  0  0  0  0  0  0
  -17.3873  -46.3827   -8.9219 C   0  0  0  0  0  0  0  0  0  0  0  0
  -18.6706  -45.9676   -9.5203 C   0  0  0  0  0  0  0  0  0  0  0  0
  -19.8952  -46.7237   -8.9641 C   0  0  0  0  0  0  0  0  0  0  0  0
  -21.1850  -46.0428   -9.1256 C   0  0  0  0  0  0  0  0  0  0  0  0
  -22.2833  -46.1097   -8.1437 C   0  0  0  0  0  0  0  0  0  0  0  0
  -22.1111  -45.2896   -6.9396 O   0  0  0  0  0  0  0  0  0  0  0  0
  -20.8212  -44.6798   -6.7175 C   0  0  0  0  0  0  0  0  0  0  0  0
  -20.4206  -43.5093   -7.3086 C   0  0  0  0  0  0  0  0  0  0  0  0
  -19.1280  -43.0576   -7.1027 C   0  0  0  0  0  0  0  0  0  0  0  0
  -18.3545  -43.8841   -6.2363 C   0  0  0  0  0  0  0  0  0  0  0  0
  -18.7477  -45.0248   -5.6271 C   0  0  0  0  0  0  0  0  0  0  0  0
  -19.9822  -45.3697   -5.9074 N   0  0  0  0  0  0  0  0  0  0  0  0
  -18.2974  -42.1036   -7.8326 C   0  0  0  0  0  0  0  0  0  0  0  0
  -18.3354  -42.4447   -9.1576 O   0  0  0  0  0  0  0  0  0  0  0  0
  -17.4616  -40.9921   -7.7923 N   0  0  0  0  0  0  0  0  0  0  0  0
  -15.9824  -41.0870   -7.7039 C   0  0  1  0  0  0  0  0  0  0  0  0
  -15.2287  -42.3112   -7.7670 C   0  0  0  0  0  0  0  0  0  0  0  0
  -15.3409  -39.8840   -8.2517 C   0  0  2  0  0  0  0  0  0  0  0  0
  -14.2321  -39.4609   -7.4430 O   0  0  0  0  0  0  0  0  0  0  0  0
  -16.1115  -38.6492   -8.4919 C   0  0  0  0  0  0  0  0  0  0  0  0
  -16.6533  -38.5969   -9.8317 N   0  0  0  0  0  0  0  0  0  0  0  0
  -17.5248  -37.4580  -10.0305 C   0  0  0  0  0  0  0  0  0  0  0  0
  -17.2665  -36.3569   -9.0692 C   0  0  0  0  0  0  0  0  0  0  0  0
  -17.4474  -37.0034  -11.4696 C   0  0  0  0  0  0  0  0  0  0  0  0
  -18.9111  -37.9733   -9.8100 C   0  0  0  0  0  0  0  0  0  0  0  0
  -19.9973  -37.3588   -9.2244 C   0  0  0  0  0  0  0  0  0  0  0  0
  -21.0635  -38.2274   -9.2469 C   0  0  0  0  0  0  0  0  0  0  0  0
  -22.4530  -38.0101   -8.7288 C   0  0  0  0  0  0  0  0  0  0  0  0
  -22.6634  -38.7680   -7.4354 C   0  0  0  0  0  0  0  0  0  0  0  0
  -22.2981  -40.2274   -7.7300 C   0  0  0  0  0  0  0  0  0  0  0  0
  -21.7639  -38.1674   -6.3994 C   0  0  0  0  0  0  0  0  0  0  0  0
  -24.0815  -38.7348   -6.9733 C   0  0  0  0  0  0  0  0  0  0  0  0
  -20.6186  -39.3241   -9.8296 O   0  0  0  0  0  0  0  0  0  0  0  0
  -19.3786  -39.2045  -10.1648 N   0  0  0  0  0  0  0  0  0  0  0  0
  2  1  1  6
  2  3  1  0
  3  4  1  0
  4  5  1  0
  5  6  1  0
  6  7  1  0
  7  8  1  0
  8  9  1  0
  9 10  1  0
 10 11  1  0
 11 12  1  0
 12 13  2  0
 13 14  1  0
 14 15  2  0
 15 16  1  0
 13 17  1  0
 17 18  2  0
 17 19  1  0
 19 20  1  0
 20 21  1  6
 20 22  1  0
 22 23  1  1
 22 24  1  0
 24 25  1  0
 25 26  1  0
 26 27  1  0
 26 28  1  0
 26 29  1  0
 29 30  1  0
 30 31  2  0
 31 32  1  0
 32 33  1  0
 33 34  1  0
 33 35  1  0
 33 36  1  0
 31 37  1  0
 37 38  1  0
 16 11  2  0
 21  2  1  0
 38 29  2  0
M  END
$$$$
