
     RDKit          3D

 38 40  0  0  0  0  0  0  0  0999 V2000
  -18.7465  -37.5674   -5.8926 C   0  0  0  0  0  0  0  0  0  0  0  0
  -19.3707  -38.4733   -6.9686 C   0  0  2  0  0  0  0  0  0  0  0  0
  -20.4579  -39.2386   -6.3915 C   0  0  0  0  0  0  0  0  0  0  0  0
  -21.8291  -38.9516   -6.0273 C   0  0  0  0  0  0  0  0  0  0  0  0
  -22.6659  -40.2192   -6.1164 C   0  0  0  0  0  0  0  0  0  0  0  0
  -22.3967  -41.3121   -5.1622 C   0  0  0  0  0  0  0  0  0  0  0  0
  -23.3328  -42.5281   -5.3215 C   0  0  0  0  0  0  0  0  0  0  0  0
  -22.8215  -43.7940   -4.7834 C   0  0  0  0  0  0  0  0  0  0  0  0
  -23.0784  -45.1134   -5.3898 C   0  0  0  0  0  0  0  0  0  0  0  0
  -22.2995  -45.4227   -6.5939 O   0  0  0  0  0  0  0  0  0  0  0  0
  -21.5356  -44.3555   -7.1958 C   0  0  0  0  0  0  0  0  0  0  0  0
  -20.2963  -43.9653   -6.7578 C   0  0  0  0  0  0  0  0  0  0  0  0
  -19.6878  -42.8685   -7.3443 C   0  0  0  0  0  0  0  0  0  0  0  0
  -20.4442  -42.2793   -8.3992 C   0  0  0  0  0  0  0  0  0  0  0  0
  -21.6538  -42.6719   -8.8569 C   0  0  0  0  0  0  0  0  0  0  0  0
  -22.1454  -43.7066   -8.2173 N   0  0  0  0  0  0  0  0  0  0  0  0
  -18.5997  -42.0008   -6.9019 C   0  0  0  0  0  0  0  0  0  0  0  0
  -18.8810  -41.5959   -5.6251 O   0  0  0  0  0  0  0  0  0  0  0  0
  -17.3906  -41.3787   -7.1964 N   0  0  0  0  0  0  0  0  0  0  0  0
  -17.2932  -39.9943   -7.7244 C   0  0  1  0  0  0  0  0  0  0  0  0
  -18.4030  -39.0923   -7.8849 C   0  0  0  0  0  0  0  0  0  0  0  0
  -15.9919  -39.3941   -7.4001 C   0  0  2  0  0  0  0  0  0  0  0  0
  -15.7380  -38.2225   -8.1908 O   0  0  0  0  0  0  0  0  0  0  0  0
  -14.7449  -40.1767   -7.4935 C   0  0  0  0  0  0  0  0  0  0  0  0
  -13.6144  -39.3575   -7.8703 N   0  0  0  0  0  0  0  0  0  0  0  0
  -13.0586  -39.7396   -9.1514 C   0  0  0  0  0  0  0  0  0  0  0  0
  -11.5902  -39.9515   -9.1051 C   0  0  0  0  0  0  0  0  0  0  0  0
  -13.8022  -40.9393   -9.6911 C   0  0  0  0  0  0  0  0  0  0  0  0
  -13.3505  -38.5963  -10.0698 C   0  0  0  0  0  0  0  0  0  0  0  0
  -14.1753  -38.5400  -11.1729 C   0  0  0  0  0  0  0  0  0  0  0  0
  -14.1236  -37.2710  -11.7009 C   0  0  0  0  0  0  0  0  0  0  0  0
  -14.8458  -36.7299  -12.8975 C   0  0  0  0  0  0  0  0  0  0  0  0
  -15.6844  -35.5291  -12.5151 C   0  0  0  0  0  0  0  0  0  0  0  0
  -14.7931  -34.2998  -12.7256 C   0  0  0  0  0  0  0  0  0  0  0  0
  -16.8863  -35.5047  -13.4086 C   0  0  0  0  0  0  0  0  0  0  0  0
  -16.1029  -35.5520  -11.0833 C   0  0  0  0  0  0  0  0  0  0  0  0
  -13.2911  -36.5972  -10.9306 O   0  0  0  0  0  0  0  0  0  0  0  0
  -12.8301  -37.3387   -9.9809 N   0  0  0  0  0  0  0  0  0  0  0  0
  2  1  1  1
  2  3  1  0
  3  4  1  0
  4  5  1  0
  5  6  1  0
  6  7  1  0
  7  8  1  0
  8  9  1  0
  9 10  1  0
 10 11  1  0
 11 12  1  0
 12 13  2  0
 13 14  1  0
 14 15  2  0
 15 16  1  0
 13 17  1  0
 17 18  2  0
 17 19  1  0
 19 20  1  0
 20 21  1  1
 20 22  1  0
 22 23  1  6
 22 24  1  0
 24 25  1  0
 25 26  1  0
 26 27  1  0
 26 28  1  0
 26 29  1  0
 29 30  1  0
 30 31  2  0
 31 32  1  0
 32 33  1  0
 33 34  1  0
 33 35  1  0
 33 36  1  0
 31 37  1  0
 37 38  1  0
 16 11  2  0
 21  2  1  0
 38 29  2  0
M  END
$$$$
