
     RDKit          3D

 38 40  0  0  0  0  0  0  0  0999 V2000
  -20.1995  -42.5430  -11.2213 C   0  0  0  0  0  0  0  0  0  0  0  0
  -20.0071  -43.2795   -9.8839 C   0  0  2  0  0  0  0  0  0  0  0  0
  -21.0461  -42.8827   -8.9544 C   0  0  0  0  0  0  0  0  0  0  0  0
  -22.4447  -43.2135   -8.7829 C   0  0  0  0  0  0  0  0  0  0  0  0
  -22.8386  -43.0608   -7.3212 C   0  0  0  0  0  0  0  0  0  0  0  0
  -22.8459  -41.7093   -6.7289 C   0  0  0  0  0  0  0  0  0  0  0  0
  -23.3004  -41.6734   -5.2548 C   0  0  0  0  0  0  0  0  0  0  0  0
  -22.8623  -40.5021   -4.4870 C   0  0  0  0  0  0  0  0  0  0  0  0
  -22.5014  -40.5389   -3.0576 C   0  0  0  0  0  0  0  0  0  0  0  0
  -21.1872  -41.1124   -2.7478 O   0  0  0  0  0  0  0  0  0  0  0  0
  -20.4737  -41.7780   -3.8122 C   0  0  0  0  0  0  0  0  0  0  0  0
  -19.7237  -41.1208   -4.7533 C   0  0  0  0  0  0  0  0  0  0  0  0
  -19.1555  -41.8440   -5.7883 C   0  0  0  0  0  0  0  0  0  0  0  0
  -19.4034  -43.2462   -5.7223 C   0  0  0  0  0  0  0  0  0  0  0  0
  -20.1182  -43.9075   -4.7849 C   0  0  0  0  0  0  0  0  0  0  0  0
  -20.6268  -43.1234   -3.8642 N   0  0  0  0  0  0  0  0  0  0  0  0
  -18.6371  -41.4419   -7.0931 C   0  0  0  0  0  0  0  0  0  0  0  0
  -19.5868  -40.6639   -7.6982 O   0  0  0  0  0  0  0  0  0  0  0  0
  -17.6031  -41.4994   -8.0221 N   0  0  0  0  0  0  0  0  0  0  0  0
  -17.5568  -42.4862   -9.1307 C   0  0  1  0  0  0  0  0  0  0  0  0
  -18.6083  -43.4138   -9.4543 C   0  0  0  0  0  0  0  0  0  0  0  0
  -16.7434  -41.9889  -10.2487 C   0  0  2  0  0  0  0  0  0  0  0  0
  -15.5648  -42.7866  -10.4412 O   0  0  0  0  0  0  0  0  0  0  0  0
  -16.2533  -40.5979  -10.2776 C   0  0  0  0  0  0  0  0  0  0  0  0
  -14.9006  -40.5071  -10.7808 N   0  0  0  0  0  0  0  0  0  0  0  0
  -14.1455  -39.4476  -10.1456 C   0  0  0  0  0  0  0  0  0  0  0  0
  -14.9187  -38.7329   -9.0994 C   0  0  0  0  0  0  0  0  0  0  0  0
  -12.8360  -39.9961   -9.6279 C   0  0  0  0  0  0  0  0  0  0  0  0
  -13.8125  -38.4841  -11.2396 C   0  0  0  0  0  0  0  0  0  0  0  0
  -12.8690  -37.4795  -11.2727 C   0  0  0  0  0  0  0  0  0  0  0  0
  -12.9293  -36.8547  -12.4965 C   0  0  0  0  0  0  0  0  0  0  0  0
  -12.1037  -35.7094  -12.9993 C   0  0  0  0  0  0  0  0  0  0  0  0
  -12.7977  -34.3923  -12.7255 C   0  0  0  0  0  0  0  0  0  0  0  0
  -11.8736  -33.2992  -13.2743 C   0  0  0  0  0  0  0  0  0  0  0  0
  -14.1175  -34.4126  -13.4334 C   0  0  0  0  0  0  0  0  0  0  0  0
  -12.9943  -34.1375  -11.2688 C   0  0  0  0  0  0  0  0  0  0  0  0
  -13.8821  -37.4737  -13.1670 O   0  0  0  0  0  0  0  0  0  0  0  0
  -14.4088  -38.4188  -12.4645 N   0  0  0  0  0  0  0  0  0  0  0  0
  2  1  1  6
  2  3  1  0
  3  4  1  0
  4  5  1  0
  5  6  1  0
  6  7  1  0
  7  8  1  0
  8  9  1  0
  9 10  1  0
 10 11  1  0
 11 12  1  0
 12 13  2  0
 13 14  1  0
 14 15  2  0
 15 16  1  0
 13 17  1  0
 17 18  2  0
 17 19  1  0
 19 20  1  0
 20 21  1  6
 20 22  1  0
 22 23  1  1
 22 24  1  0
 24 25  1  0
 25 26  1  0
 26 27  1  0
 26 28  1  0
 26 29  1  0
 29 30  1  0
 30 31  2  0
 31 32  1  0
 32 33  1  0
 33 34  1  0
 33 35  1  0
 33 36  1  0
 31 37  1  0
 37 38  1  0
 16 11  2  0
 21  2  1  0
 38 29  2  0
M  END
$$$$
