
     RDKit          3D

 38 40  0  0  0  0  0  0  0  0999 V2000
  -20.1709  -37.1465   -7.9298 C   0  0  0  0  0  0  0  0  0  0  0  0
  -20.2036  -38.5170   -8.6290 C   0  0  2  0  0  0  0  0  0  0  0  0
  -20.9973  -39.4446   -7.8477 C   0  0  0  0  0  0  0  0  0  0  0  0
  -22.4145  -39.6613   -7.6485 C   0  0  0  0  0  0  0  0  0  0  0  0
  -22.6729  -41.1204   -7.3032 C   0  0  0  0  0  0  0  0  0  0  0  0
  -22.1758  -41.6403   -6.0147 C   0  0  0  0  0  0  0  0  0  0  0  0
  -22.5319  -43.1191   -5.7562 C   0  0  0  0  0  0  0  0  0  0  0  0
  -21.6767  -43.8150   -4.7878 C   0  0  0  0  0  0  0  0  0  0  0  0
  -21.2993  -45.2368   -4.8907 C   0  0  0  0  0  0  0  0  0  0  0  0
  -20.2651  -45.5503   -5.8828 O   0  0  0  0  0  0  0  0  0  0  0  0
  -19.8762  -44.5087   -6.8041 C   0  0  0  0  0  0  0  0  0  0  0  0
  -18.9771  -43.5194   -6.4993 C   0  0  0  0  0  0  0  0  0  0  0  0
  -18.7432  -42.5130   -7.4211 C   0  0  0  0  0  0  0  0  0  0  0  0
  -19.4720  -42.6582   -8.6376 C   0  0  0  0  0  0  0  0  0  0  0  0
  -20.3398  -43.6433   -8.9590 C   0  0  0  0  0  0  0  0  0  0  0  0
  -20.5006  -44.5312   -8.0065 N   0  0  0  0  0  0  0  0  0  0  0  0
  -18.1649  -41.1787   -7.2869 C   0  0  0  0  0  0  0  0  0  0  0  0
  -18.7969  -40.5522   -6.2469 O   0  0  0  0  0  0  0  0  0  0  0  0
  -17.2550  -40.2336   -7.7498 N   0  0  0  0  0  0  0  0  0  0  0  0
  -17.6051  -39.1782   -8.7339 C   0  0  1  0  0  0  0  0  0  0  0  0
  -18.9295  -38.9252   -9.2366 C   0  0  0  0  0  0  0  0  0  0  0  0
  -16.7105  -38.0194   -8.6085 C   0  0  2  0  0  0  0  0  0  0  0  0
  -17.3890  -36.8858   -8.0454 O   0  0  0  0  0  0  0  0  0  0  0  0
  -15.9965  -37.4751   -9.7790 C   0  0  0  0  0  0  0  0  0  0  0  0
  -15.0376  -38.4140  -10.3176 N   0  0  0  0  0  0  0  0  0  0  0  0
  -13.6914  -38.1570   -9.8507 C   0  0  0  0  0  0  0  0  0  0  0  0
  -13.0877  -36.9472  -10.4631 C   0  0  0  0  0  0  0  0  0  0  0  0
  -13.6766  -38.1128   -8.3403 C   0  0  0  0  0  0  0  0  0  0  0  0
  -12.8922  -39.3527  -10.2598 C   0  0  0  0  0  0  0  0  0  0  0  0
  -13.1190  -40.2605  -11.2722 C   0  0  0  0  0  0  0  0  0  0  0  0
  -12.1083  -41.1932  -11.2661 C   0  0  0  0  0  0  0  0  0  0  0  0
  -11.9217  -42.3704  -12.1747 C   0  0  0  0  0  0  0  0  0  0  0  0
  -11.7607  -43.6430  -11.3709 C   0  0  0  0  0  0  0  0  0  0  0  0
  -11.6885  -44.7865  -12.3894 C   0  0  0  0  0  0  0  0  0  0  0  0
  -10.4977  -43.5266  -10.5743 C   0  0  0  0  0  0  0  0  0  0  0  0
  -12.9203  -43.9047  -10.4695 C   0  0  0  0  0  0  0  0  0  0  0  0
  -11.3072  -40.8454  -10.2773 O   0  0  0  0  0  0  0  0  0  0  0  0
  -11.7365  -39.7859   -9.6794 N   0  0  0  0  0  0  0  0  0  0  0  0
  2  1  1  1
  2  3  1  0
  3  4  1  0
  4  5  1  0
  5  6  1  0
  6  7  1  0
  7  8  1  0
  8  9  1  0
  9 10  1  0
 10 11  1  0
 11 12  1  0
 12 13  2  0
 13 14  1  0
 14 15  2  0
 15 16  1  0
 13 17  1  0
 17 18  2  0
 17 19  1  0
 19 20  1  0
 20 21  1  1
 20 22  1  0
 22 23  1  6
 22 24  1  0
 24 25  1  0
 25 26  1  0
 26 27  1  0
 26 28  1  0
 26 29  1  0
 29 30  1  0
 30 31  2  0
 31 32  1  0
 32 33  1  0
 33 34  1  0
 33 35  1  0
 33 36  1  0
 31 37  1  0
 37 38  1  0
 16 11  2  0
 21  2  1  0
 38 29  2  0
M  END
$$$$
