
     RDKit          3D

 38 40  0  0  0  0  0  0  0  0999 V2000
  -19.2110  -37.6740   -6.5915 C   0  0  0  0  0  0  0  0  0  0  0  0
  -19.9435  -38.6314   -7.5479 C   0  0  2  0  0  0  0  0  0  0  0  0
  -20.8634  -39.4623   -6.7967 C   0  0  0  0  0  0  0  0  0  0  0  0
  -22.1702  -39.2649   -6.2067 C   0  0  0  0  0  0  0  0  0  0  0  0
  -22.9213  -40.5872   -6.1548 C   0  0  0  0  0  0  0  0  0  0  0  0
  -22.4214  -41.6492   -5.2606 C   0  0  0  0  0  0  0  0  0  0  0  0
  -23.2855  -42.9274   -5.2612 C   0  0  0  0  0  0  0  0  0  0  0  0
  -22.6056  -44.1500   -4.8180 C   0  0  0  0  0  0  0  0  0  0  0  0
  -22.8697  -45.4901   -5.3738 C   0  0  0  0  0  0  0  0  0  0  0  0
  -22.2848  -45.7587   -6.6921 O   0  0  0  0  0  0  0  0  0  0  0  0
  -21.7078  -44.6487   -7.4130 C   0  0  0  0  0  0  0  0  0  0  0  0
  -20.4422  -44.1710   -7.1895 C   0  0  0  0  0  0  0  0  0  0  0  0
  -20.0175  -43.0418   -7.8690 C   0  0  0  0  0  0  0  0  0  0  0  0
  -20.9789  -42.5163   -8.7810 C   0  0  0  0  0  0  0  0  0  0  0  0
  -22.2184  -42.9946   -9.0289 C   0  0  0  0  0  0  0  0  0  0  0  0
  -22.5235  -44.0534   -8.3167 N   0  0  0  0  0  0  0  0  0  0  0  0
  -18.9325  -42.0978   -7.6152 C   0  0  0  0  0  0  0  0  0  0  0  0
  -19.0224  -41.6993   -6.3089 O   0  0  0  0  0  0  0  0  0  0  0  0
  -17.8356  -41.3984   -8.1085 N   0  0  0  0  0  0  0  0  0  0  0  0
  -17.9233  -40.0163   -8.6441 C   0  0  1  0  0  0  0  0  0  0  0  0
  -19.1034  -39.1932   -8.6146 C   0  0  0  0  0  0  0  0  0  0  0  0
  -16.6302  -39.3260   -8.5428 C   0  0  2  0  0  0  0  0  0  0  0  0
  -16.7101  -37.9786   -9.0332 O   0  0  0  0  0  0  0  0  0  0  0  0
  -15.4184  -39.8764   -9.1790 C   0  0  0  0  0  0  0  0  0  0  0  0
  -14.2556  -39.7618   -8.3268 N   0  0  0  0  0  0  0  0  0  0  0  0
  -13.0325  -40.1267   -9.0102 C   0  0  0  0  0  0  0  0  0  0  0  0
  -11.9830  -40.6299   -8.0891 C   0  0  0  0  0  0  0  0  0  0  0  0
  -13.3430  -41.0993  -10.1243 C   0  0  0  0  0  0  0  0  0  0  0  0
  -12.5443  -38.8682   -9.6535 C   0  0  0  0  0  0  0  0  0  0  0  0
  -13.2208  -37.6992   -9.9293 C   0  0  0  0  0  0  0  0  0  0  0  0
  -12.3538  -36.8161  -10.5293 C   0  0  0  0  0  0  0  0  0  0  0  0
  -12.6274  -35.4229  -11.0094 C   0  0  0  0  0  0  0  0  0  0  0  0
  -12.6584  -35.3775  -12.5221 C   0  0  0  0  0  0  0  0  0  0  0  0
  -13.8155  -36.2854  -12.9542 C   0  0  0  0  0  0  0  0  0  0  0  0
  -12.8829  -33.9553  -12.9346 C   0  0  0  0  0  0  0  0  0  0  0  0
  -11.4068  -35.9051  -13.1393 C   0  0  0  0  0  0  0  0  0  0  0  0
  -11.1976  -37.4468  -10.6056 O   0  0  0  0  0  0  0  0  0  0  0  0
  -11.2795  -38.6337  -10.1070 N   0  0  0  0  0  0  0  0  0  0  0  0
  2  1  1  1
  2  3  1  0
  3  4  1  0
  4  5  1  0
  5  6  1  0
  6  7  1  0
  7  8  1  0
  8  9  1  0
  9 10  1  0
 10 11  1  0
 11 12  1  0
 12 13  2  0
 13 14  1  0
 14 15  2  0
 15 16  1  0
 13 17  1  0
 17 18  2  0
 17 19  1  0
 19 20  1  0
 20 21  1  1
 20 22  1  0
 22 23  1  6
 22 24  1  0
 24 25  1  0
 25 26  1  0
 26 27  1  0
 26 28  1  0
 26 29  1  0
 29 30  1  0
 30 31  2  0
 31 32  1  0
 32 33  1  0
 33 34  1  0
 33 35  1  0
 33 36  1  0
 31 37  1  0
 37 38  1  0
 16 11  2  0
 21  2  1  0
 38 29  2  0
M  END
$$$$
