
     RDKit          3D

 38 40  0  0  0  0  0  0  0  0999 V2000
  -12.7350  -40.5284  -10.0621 C   0  0  0  0  0  0  0  0  0  0  0  0
  -13.3906  -41.4767   -9.0428 C   0  0  2  0  0  0  0  0  0  0  0  0
  -13.5807  -42.7823   -9.6430 C   0  0  0  0  0  0  0  0  0  0  0  0
  -12.7190  -43.9078   -9.9357 C   0  0  0  0  0  0  0  0  0  0  0  0
  -13.5266  -45.1972   -9.9217 C   0  0  0  0  0  0  0  0  0  0  0  0
  -14.5438  -45.4053  -10.9702 C   0  0  0  0  0  0  0  0  0  0  0  0
  -15.2696  -46.7637  -10.8786 C   0  0  0  0  0  0  0  0  0  0  0  0
  -16.5806  -46.8251  -11.5351 C   0  0  0  0  0  0  0  0  0  0  0  0
  -17.7218  -47.6105  -11.0296 C   0  0  0  0  0  0  0  0  0  0  0  0
  -18.4316  -47.0351   -9.8819 O   0  0  0  0  0  0  0  0  0  0  0  0
  -17.8360  -45.8977   -9.2215 C   0  0  0  0  0  0  0  0  0  0  0  0
  -17.9592  -44.6072   -9.6682 C   0  0  0  0  0  0  0  0  0  0  0  0
  -17.2708  -43.5987   -9.0155 C   0  0  0  0  0  0  0  0  0  0  0  0
  -16.5161  -44.0436   -7.8910 C   0  0  0  0  0  0  0  0  0  0  0  0
  -16.4091  -45.3082   -7.4258 C   0  0  0  0  0  0  0  0  0  0  0  0
  -17.0852  -46.1845   -8.1304 N   0  0  0  0  0  0  0  0  0  0  0  0
  -16.8985  -42.2465   -9.4226 C   0  0  0  0  0  0  0  0  0  0  0  0
  -16.3024  -42.3295  -10.6519 O   0  0  0  0  0  0  0  0  0  0  0  0
  -16.8637  -40.8891   -9.1197 N   0  0  0  0  0  0  0  0  0  0  0  0
  -15.6975  -40.2249   -8.4844 C   0  0  1  0  0  0  0  0  0  0  0  0
  -14.4338  -40.8580   -8.2134 C   0  0  0  0  0  0  0  0  0  0  0  0
  -15.6663  -38.7909   -8.8029 C   0  0  2  0  0  0  0  0  0  0  0  0
  -14.3430  -38.2485   -8.6714 O   0  0  0  0  0  0  0  0  0  0  0  0
  -16.5287  -37.8306   -8.0886 C   0  0  0  0  0  0  0  0  0  0  0  0
  -17.7511  -38.4424   -7.6166 N   0  0  0  0  0  0  0  0  0  0  0  0
  -18.8908  -38.1088   -8.4449 C   0  0  0  0  0  0  0  0  0  0  0  0
  -19.4061  -36.7394   -8.1959 C   0  0  0  0  0  0  0  0  0  0  0  0
  -18.5505  -38.3464   -9.8980 C   0  0  0  0  0  0  0  0  0  0  0  0
  -19.9526  -39.0959   -8.0788 C   0  0  0  0  0  0  0  0  0  0  0  0
  -21.2906  -39.1152   -8.4101 C   0  0  0  0  0  0  0  0  0  0  0  0
  -21.8722  -40.2246   -7.8420 C   0  0  0  0  0  0  0  0  0  0  0  0
  -23.3008  -40.6707   -7.9207 C   0  0  0  0  0  0  0  0  0  0  0  0
  -23.9569  -40.5981   -6.5584 C   0  0  0  0  0  0  0  0  0  0  0  0
  -25.3729  -40.0598   -6.7933 C   0  0  0  0  0  0  0  0  0  0  0  0
  -23.9754  -41.9808   -5.9831 C   0  0  0  0  0  0  0  0  0  0  0  0
  -23.2578  -39.6602   -5.6324 C   0  0  0  0  0  0  0  0  0  0  0  0
  -20.9039  -40.8428   -7.1934 O   0  0  0  0  0  0  0  0  0  0  0  0
  -19.7849  -40.2124   -7.3135 N   0  0  0  0  0  0  0  0  0  0  0  0
  2  1  1  6
  2  3  1  0
  3  4  1  0
  4  5  1  0
  5  6  1  0
  6  7  1  0
  7  8  1  0
  8  9  1  0
  9 10  1  0
 10 11  1  0
 11 12  1  0
 12 13  2  0
 13 14  1  0
 14 15  2  0
 15 16  1  0
 13 17  1  0
 17 18  2  0
 17 19  1  0
 19 20  1  0
 20 21  1  6
 20 22  1  0
 22 23  1  1
 22 24  1  0
 24 25  1  0
 25 26  1  0
 26 27  1  0
 26 28  1  0
 26 29  1  0
 29 30  1  0
 30 31  2  0
 31 32  1  0
 32 33  1  0
 33 34  1  0
 33 35  1  0
 33 36  1  0
 31 37  1  0
 37 38  1  0
 16 11  2  0
 21  2  1  0
 38 29  2  0
M  END
$$$$
