
     RDKit          3D

 38 40  0  0  0  0  0  0  0  0999 V2000
  -19.0943  -36.9321   -7.1396 C   0  0  0  0  0  0  0  0  0  0  0  0
  -19.6550  -38.1430   -7.9060 C   0  0  2  0  0  0  0  0  0  0  0  0
  -20.5638  -38.8825   -7.0527 C   0  0  0  0  0  0  0  0  0  0  0  0
  -21.9299  -38.6976   -6.6115 C   0  0  0  0  0  0  0  0  0  0  0  0
  -22.5673  -40.0475   -6.3173 C   0  0  0  0  0  0  0  0  0  0  0  0
  -22.0601  -40.8350   -5.1771 C   0  0  0  0  0  0  0  0  0  0  0  0
  -22.8088  -42.1651   -4.9514 C   0  0  0  0  0  0  0  0  0  0  0  0
  -22.0693  -43.1871   -4.2019 C   0  0  0  0  0  0  0  0  0  0  0  0
  -22.1681  -44.6354   -4.4617 C   0  0  0  0  0  0  0  0  0  0  0  0
  -21.4479  -45.1202   -5.6441 O   0  0  0  0  0  0  0  0  0  0  0  0
  -20.9058  -44.1384   -6.5535 C   0  0  0  0  0  0  0  0  0  0  0  0
  -19.7102  -43.4965   -6.3568 C   0  0  0  0  0  0  0  0  0  0  0  0
  -19.3246  -42.5028   -7.2404 C   0  0  0  0  0  0  0  0  0  0  0  0
  -20.2425  -42.2875   -8.3096 C   0  0  0  0  0  0  0  0  0  0  0  0
  -21.4100  -42.9325   -8.5282 C   0  0  0  0  0  0  0  0  0  0  0  0
  -21.6858  -43.8386   -7.6202 N   0  0  0  0  0  0  0  0  0  0  0  0
  -18.3507  -41.4201   -7.1305 C   0  0  0  0  0  0  0  0  0  0  0  0
  -18.5897  -40.7610   -5.9550 O   0  0  0  0  0  0  0  0  0  0  0  0
  -17.2779  -40.7348   -7.6917 N   0  0  0  0  0  0  0  0  0  0  0  0
  -17.4351  -39.5169   -8.5265 C   0  0  1  0  0  0  0  0  0  0  0  0
  -18.6788  -38.8322   -8.7612 C   0  0  0  0  0  0  0  0  0  0  0  0
  -16.2195  -38.6922   -8.4942 C   0  0  2  0  0  0  0  0  0  0  0  0
  -16.3393  -37.5400   -9.3432 O   0  0  0  0  0  0  0  0  0  0  0  0
  -14.9010  -39.2610   -8.8322 C   0  0  0  0  0  0  0  0  0  0  0  0
  -14.9989  -40.3171   -9.8151 N   0  0  0  0  0  0  0  0  0  0  0  0
  -14.4424  -39.9328  -11.0953 C   0  0  0  0  0  0  0  0  0  0  0  0
  -15.3806  -40.1541  -12.2240 C   0  0  0  0  0  0  0  0  0  0  0  0
  -13.9426  -38.5084  -11.0257 C   0  0  0  0  0  0  0  0  0  0  0  0
  -13.2442  -40.8064  -11.2878 C   0  0  0  0  0  0  0  0  0  0  0  0
  -12.3737  -40.8866  -12.3537 C   0  0  0  0  0  0  0  0  0  0  0  0
  -11.4203  -41.8385  -12.0770 C   0  0  0  0  0  0  0  0  0  0  0  0
  -10.2685  -42.2784  -12.9290 C   0  0  0  0  0  0  0  0  0  0  0  0
   -8.9675  -41.7164  -12.3970 C   0  0  0  0  0  0  0  0  0  0  0  0
   -7.8781  -42.1505  -13.3842 C   0  0  0  0  0  0  0  0  0  0  0  0
   -9.1017  -40.2259  -12.3363 C   0  0  0  0  0  0  0  0  0  0  0  0
   -8.6122  -42.2603  -11.0540 C   0  0  0  0  0  0  0  0  0  0  0  0
  -11.7201  -42.3071  -10.8807 O   0  0  0  0  0  0  0  0  0  0  0  0
  -12.7690  -41.7284  -10.4022 N   0  0  0  0  0  0  0  0  0  0  0  0
  2  1  1  1
  2  3  1  0
  3  4  1  0
  4  5  1  0
  5  6  1  0
  6  7  1  0
  7  8  1  0
  8  9  1  0
  9 10  1  0
 10 11  1  0
 11 12  1  0
 12 13  2  0
 13 14  1  0
 14 15  2  0
 15 16  1  0
 13 17  1  0
 17 18  2  0
 17 19  1  0
 19 20  1  0
 20 21  1  1
 20 22  1  0
 22 23  1  6
 22 24  1  0
 24 25  1  0
 25 26  1  0
 26 27  1  0
 26 28  1  0
 26 29  1  0
 29 30  1  0
 30 31  2  0
 31 32  1  0
 32 33  1  0
 33 34  1  0
 33 35  1  0
 33 36  1  0
 31 37  1  0
 37 38  1  0
 16 11  2  0
 21  2  1  0
 38 29  2  0
M  END
$$$$
