
     RDKit          3D

 38 40  0  0  0  0  0  0  0  0999 V2000
  -20.8622  -38.3727   -6.1273 C   0  0  0  0  0  0  0  0  0  0  0  0
  -20.9743  -39.5836   -7.0703 C   0  0  2  0  0  0  0  0  0  0  0  0
  -21.4950  -40.7231   -6.3416 C   0  0  0  0  0  0  0  0  0  0  0  0
  -22.8054  -41.1294   -5.8805 C   0  0  0  0  0  0  0  0  0  0  0  0
  -22.8787  -42.6469   -5.7967 C   0  0  0  0  0  0  0  0  0  0  0  0
  -22.0533  -43.3395   -4.7884 C   0  0  0  0  0  0  0  0  0  0  0  0
  -22.2409  -44.8709   -4.7696 C   0  0  0  0  0  0  0  0  0  0  0  0
  -21.1346  -45.6357   -4.1826 C   0  0  0  0  0  0  0  0  0  0  0  0
  -20.7025  -46.9624   -4.6600 C   0  0  0  0  0  0  0  0  0  0  0  0
  -19.9199  -46.9682   -5.9008 O   0  0  0  0  0  0  0  0  0  0  0  0
  -19.8323  -45.7363   -6.6489 C   0  0  0  0  0  0  0  0  0  0  0  0
  -18.9518  -44.7275   -6.3540 C   0  0  0  0  0  0  0  0  0  0  0  0
  -19.0121  -43.5471   -7.0753 C   0  0  0  0  0  0  0  0  0  0  0  0
  -20.0017  -43.5428   -8.1013 C   0  0  0  0  0  0  0  0  0  0  0  0
  -20.8562  -44.5410   -8.4182 C   0  0  0  0  0  0  0  0  0  0  0  0
  -20.7253  -45.6033   -7.6594 N   0  0  0  0  0  0  0  0  0  0  0  0
  -18.5055  -42.2054   -6.7996 C   0  0  0  0  0  0  0  0  0  0  0  0
  -18.9071  -41.8582   -5.5380 O   0  0  0  0  0  0  0  0  0  0  0  0
  -17.7966  -41.0952   -7.2475 N   0  0  0  0  0  0  0  0  0  0  0  0
  -18.4406  -39.9203   -7.8876 C   0  0  1  0  0  0  0  0  0  0  0  0
  -19.8607  -39.7269   -8.0182 C   0  0  0  0  0  0  0  0  0  0  0  0
  -17.6186  -38.7131   -7.7273 C   0  0  2  0  0  0  0  0  0  0  0  0
  -18.2746  -37.5519   -8.2600 O   0  0  0  0  0  0  0  0  0  0  0  0
  -16.2495  -38.6431   -8.2723 C   0  0  0  0  0  0  0  0  0  0  0  0
  -16.2164  -38.8929   -9.6963 N   0  0  0  0  0  0  0  0  0  0  0  0
  -14.9287  -39.3830  -10.1408 C   0  0  0  0  0  0  0  0  0  0  0  0
  -14.2352  -40.2012   -9.1147 C   0  0  0  0  0  0  0  0  0  0  0  0
  -15.0877  -40.1117  -11.4551 C   0  0  0  0  0  0  0  0  0  0  0  0
  -14.1104  -38.1620  -10.4155 C   0  0  0  0  0  0  0  0  0  0  0  0
  -12.7954  -37.8929  -10.1012 C   0  0  0  0  0  0  0  0  0  0  0  0
  -12.4786  -36.6350  -10.5586 C   0  0  0  0  0  0  0  0  0  0  0  0
  -11.1730  -35.9068  -10.4527 C   0  0  0  0  0  0  0  0  0  0  0  0
  -10.8474  -35.2056  -11.7542 C   0  0  0  0  0  0  0  0  0  0  0  0
  -10.7573  -36.3028  -12.8208 C   0  0  0  0  0  0  0  0  0  0  0  0
  -11.9530  -34.2374  -12.0435 C   0  0  0  0  0  0  0  0  0  0  0  0
   -9.5351  -34.4972  -11.7133 C   0  0  0  0  0  0  0  0  0  0  0  0
  -13.5765  -36.1747  -11.1271 O   0  0  0  0  0  0  0  0  0  0  0  0
  -14.5342  -37.0363  -11.0585 N   0  0  0  0  0  0  0  0  0  0  0  0
  2  1  1  1
  2  3  1  0
  3  4  1  0
  4  5  1  0
  5  6  1  0
  6  7  1  0
  7  8  1  0
  8  9  1  0
  9 10  1  0
 10 11  1  0
 11 12  1  0
 12 13  2  0
 13 14  1  0
 14 15  2  0
 15 16  1  0
 13 17  1  0
 17 18  2  0
 17 19  1  0
 19 20  1  0
 20 21  1  1
 20 22  1  0
 22 23  1  6
 22 24  1  0
 24 25  1  0
 25 26  1  0
 26 27  1  0
 26 28  1  0
 26 29  1  0
 29 30  1  0
 30 31  2  0
 31 32  1  0
 32 33  1  0
 33 34  1  0
 33 35  1  0
 33 36  1  0
 31 37  1  0
 37 38  1  0
 16 11  2  0
 21  2  1  0
 38 29  2  0
M  END
$$$$
