
     RDKit          3D

 38 40  0  0  0  0  0  0  0  0999 V2000
  -16.7357  -43.2031   -7.8735 C   0  0  0  0  0  0  0  0  0  0  0  0
  -16.0363  -42.8781   -9.2051 C   0  0  2  0  0  0  0  0  0  0  0  0
  -14.7149  -43.4733   -9.2205 C   0  0  0  0  0  0  0  0  0  0  0  0
  -14.1981  -44.8093   -9.4283 C   0  0  0  0  0  0  0  0  0  0  0  0
  -12.7888  -44.7378   -9.9974 C   0  0  0  0  0  0  0  0  0  0  0  0
  -11.7094  -44.2017   -9.1460 C   0  0  0  0  0  0  0  0  0  0  0  0
  -10.3186  -44.2159   -9.8140 C   0  0  0  0  0  0  0  0  0  0  0  0
   -9.3406  -43.2742   -9.2572 C   0  0  0  0  0  0  0  0  0  0  0  0
   -8.3222  -42.5704  -10.0587 C   0  0  0  0  0  0  0  0  0  0  0  0
   -8.8103  -41.4408  -10.8573 O   0  0  0  0  0  0  0  0  0  0  0  0
  -10.2385  -41.2577  -10.9649 C   0  0  0  0  0  0  0  0  0  0  0  0
  -10.9998  -40.6318  -10.0117 C   0  0  0  0  0  0  0  0  0  0  0  0
  -12.3751  -40.5910  -10.1665 C   0  0  0  0  0  0  0  0  0  0  0  0
  -12.8432  -41.2005  -11.3671 C   0  0  0  0  0  0  0  0  0  0  0  0
  -12.0999  -41.7962  -12.3261 C   0  0  0  0  0  0  0  0  0  0  0  0
  -10.8135  -41.7953  -12.0679 N   0  0  0  0  0  0  0  0  0  0  0  0
  -13.4593  -40.3481   -9.2188 C   0  0  0  0  0  0  0  0  0  0  0  0
  -13.2592  -41.1628   -8.1373 O   0  0  0  0  0  0  0  0  0  0  0  0
  -14.6299  -39.6608   -8.9138 N   0  0  0  0  0  0  0  0  0  0  0  0
  -15.9863  -40.1952   -9.1957 C   0  0  1  0  0  0  0  0  0  0  0  0
  -16.2654  -41.5137   -9.7002 C   0  0  0  0  0  0  0  0  0  0  0  0
  -16.9860  -39.6037   -8.2960 C   0  0  2  0  0  0  0  0  0  0  0  0
  -17.7794  -40.6121   -7.6508 O   0  0  0  0  0  0  0  0  0  0  0  0
  -17.9708  -38.6217   -8.7880 C   0  0  0  0  0  0  0  0  0  0  0  0
  -17.4974  -37.2618   -8.6550 N   0  0  0  0  0  0  0  0  0  0  0  0
  -18.2688  -36.3288   -9.4491 C   0  0  0  0  0  0  0  0  0  0  0  0
  -19.3353  -36.9884  -10.2432 C   0  0  0  0  0  0  0  0  0  0  0  0
  -18.8012  -35.2259   -8.5637 C   0  0  0  0  0  0  0  0  0  0  0  0
  -17.2898  -35.6997  -10.3882 C   0  0  0  0  0  0  0  0  0  0  0  0
  -17.1934  -35.8011  -11.7596 C   0  0  0  0  0  0  0  0  0  0  0  0
  -16.1296  -35.0411  -12.1868 C   0  0  0  0  0  0  0  0  0  0  0  0
  -15.6318  -34.8386  -13.5858 C   0  0  0  0  0  0  0  0  0  0  0  0
  -14.1888  -35.2798  -13.7065 C   0  0  0  0  0  0  0  0  0  0  0  0
  -13.4715  -34.7429  -12.4627 C   0  0  0  0  0  0  0  0  0  0  0  0
  -14.1687  -36.7765  -13.7581 C   0  0  0  0  0  0  0  0  0  0  0  0
  -13.5117  -34.7103  -14.9077 C   0  0  0  0  0  0  0  0  0  0  0  0
  -15.6126  -34.5060  -11.0974 O   0  0  0  0  0  0  0  0  0  0  0  0
  -16.2633  -34.8698  -10.0446 N   0  0  0  0  0  0  0  0  0  0  0  0
  2  1  1  1
  2  3  1  0
  3  4  1  0
  4  5  1  0
  5  6  1  0
  6  7  1  0
  7  8  1  0
  8  9  1  0
  9 10  1  0
 10 11  1  0
 11 12  1  0
 12 13  2  0
 13 14  1  0
 14 15  2  0
 15 16  1  0
 13 17  1  0
 17 18  2  0
 17 19  1  0
 19 20  1  0
 20 21  1  1
 20 22  1  0
 22 23  1  6
 22 24  1  0
 24 25  1  0
 25 26  1  0
 26 27  1  0
 26 28  1  0
 26 29  1  0
 29 30  1  0
 30 31  2  0
 31 32  1  0
 32 33  1  0
 33 34  1  0
 33 35  1  0
 33 36  1  0
 31 37  1  0
 37 38  1  0
 16 11  2  0
 21  2  1  0
 38 29  2  0
M  END
$$$$
