
     RDKit          3D

 38 40  0  0  0  0  0  0  0  0999 V2000
  -17.2535  -43.7228   -7.1664 C   0  0  0  0  0  0  0  0  0  0  0  0
  -18.2739  -42.8959   -6.3643 C   0  0  2  0  0  0  0  0  0  0  0  0
  -19.6178  -43.3303   -6.6899 C   0  0  0  0  0  0  0  0  0  0  0  0
  -20.4440  -44.4603   -6.3217 C   0  0  0  0  0  0  0  0  0  0  0  0
  -21.9137  -44.0724   -6.3887 C   0  0  0  0  0  0  0  0  0  0  0  0
  -22.5058  -43.7721   -7.7066 C   0  0  0  0  0  0  0  0  0  0  0  0
  -24.0098  -43.4315   -7.6551 C   0  0  0  0  0  0  0  0  0  0  0  0
  -24.5220  -42.6593   -8.7929 C   0  0  0  0  0  0  0  0  0  0  0  0
  -25.5773  -41.6346   -8.6880 C   0  0  0  0  0  0  0  0  0  0  0  0
  -25.1590  -40.3457   -8.1261 O   0  0  0  0  0  0  0  0  0  0  0  0
  -23.8453  -40.2629   -7.5326 C   0  0  0  0  0  0  0  0  0  0  0  0
  -22.6943  -40.0759   -8.2540 C   0  0  0  0  0  0  0  0  0  0  0  0
  -21.4751  -40.1050   -7.5985 C   0  0  0  0  0  0  0  0  0  0  0  0
  -21.5769  -40.2990   -6.1899 C   0  0  0  0  0  0  0  0  0  0  0  0
  -22.7069  -40.4573   -5.4653 C   0  0  0  0  0  0  0  0  0  0  0  0
  -23.8010  -40.4330   -6.1890 N   0  0  0  0  0  0  0  0  0  0  0  0
  -20.1103  -40.3021   -8.0796 C   0  0  0  0  0  0  0  0  0  0  0  0
  -20.1030  -41.4204   -8.8688 O   0  0  0  0  0  0  0  0  0  0  0  0
  -18.7883  -39.8690   -8.0927 N   0  0  0  0  0  0  0  0  0  0  0  0
  -17.7505  -40.3895   -7.1670 C   0  0  1  0  0  0  0  0  0  0  0  0
  -17.9418  -41.4703   -6.2363 C   0  0  0  0  0  0  0  0  0  0  0  0
  -16.4058  -40.2370   -7.7394 C   0  0  2  0  0  0  0  0  0  0  0  0
  -15.5571  -39.4464   -6.8926 O   0  0  0  0  0  0  0  0  0  0  0  0
  -16.2088  -39.6709   -9.0873 C   0  0  0  0  0  0  0  0  0  0  0  0
  -15.6410  -38.3417   -9.0423 N   0  0  0  0  0  0  0  0  0  0  0  0
  -16.1764  -37.4777  -10.0734 C   0  0  0  0  0  0  0  0  0  0  0  0
  -17.5817  -37.7998  -10.4261 C   0  0  0  0  0  0  0  0  0  0  0  0
  -15.9947  -36.0325   -9.6710 C   0  0  0  0  0  0  0  0  0  0  0  0
  -15.3147  -37.7077  -11.2737 C   0  0  0  0  0  0  0  0  0  0  0  0
  -13.9956  -37.3705  -11.4897 C   0  0  0  0  0  0  0  0  0  0  0  0
  -13.6317  -37.7880  -12.7486 C   0  0  0  0  0  0  0  0  0  0  0  0
  -12.3042  -37.6460  -13.4296 C   0  0  0  0  0  0  0  0  0  0  0  0
  -12.3281  -36.4903  -14.4070 C   0  0  0  0  0  0  0  0  0  0  0  0
  -12.5794  -35.2290  -13.5727 C   0  0  0  0  0  0  0  0  0  0  0  0
  -10.9999  -36.4453  -15.0978 C   0  0  0  0  0  0  0  0  0  0  0  0
  -13.4292  -36.6053  -15.4070 C   0  0  0  0  0  0  0  0  0  0  0  0
  -14.7066  -38.3557  -13.2613 O   0  0  0  0  0  0  0  0  0  0  0  0
  -15.6930  -38.3230  -12.4306 N   0  0  0  0  0  0  0  0  0  0  0  0
  2  1  1  6
  2  3  1  0
  3  4  1  0
  4  5  1  0
  5  6  1  0
  6  7  1  0
  7  8  1  0
  8  9  1  0
  9 10  1  0
 10 11  1  0
 11 12  1  0
 12 13  2  0
 13 14  1  0
 14 15  2  0
 15 16  1  0
 13 17  1  0
 17 18  2  0
 17 19  1  0
 19 20  1  0
 20 21  1  6
 20 22  1  0
 22 23  1  1
 22 24  1  0
 24 25  1  0
 25 26  1  0
 26 27  1  0
 26 28  1  0
 26 29  1  0
 29 30  1  0
 30 31  2  0
 31 32  1  0
 32 33  1  0
 33 34  1  0
 33 35  1  0
 33 36  1  0
 31 37  1  0
 37 38  1  0
 16 11  2  0
 21  2  1  0
 38 29  2  0
M  END
$$$$
