
     RDKit          3D

 38 40  0  0  0  0  0  0  0  0999 V2000
  -19.3216  -38.2450   -5.6176 C   0  0  0  0  0  0  0  0  0  0  0  0
  -19.7407  -38.7357   -7.0146 C   0  0  2  0  0  0  0  0  0  0  0  0
  -20.7773  -39.7408   -6.8882 C   0  0  0  0  0  0  0  0  0  0  0  0
  -22.1988  -39.7145   -6.6169 C   0  0  0  0  0  0  0  0  0  0  0  0
  -22.8715  -40.9203   -7.2562 C   0  0  0  0  0  0  0  0  0  0  0  0
  -22.5604  -42.2638   -6.7312 C   0  0  0  0  0  0  0  0  0  0  0  0
  -23.3313  -43.4035   -7.4292 C   0  0  0  0  0  0  0  0  0  0  0  0
  -22.7246  -44.7353   -7.3215 C   0  0  0  0  0  0  0  0  0  0  0  0
  -22.7727  -45.7539   -8.3868 C   0  0  0  0  0  0  0  0  0  0  0  0
  -21.8619  -45.5368   -9.5161 O   0  0  0  0  0  0  0  0  0  0  0  0
  -21.1783  -44.2675   -9.5972 C   0  0  0  0  0  0  0  0  0  0  0  0
  -20.0354  -43.9724   -8.8997 C   0  0  0  0  0  0  0  0  0  0  0  0
  -19.5104  -42.6934   -8.9750 C   0  0  0  0  0  0  0  0  0  0  0  0
  -20.2361  -41.8168   -9.8334 C   0  0  0  0  0  0  0  0  0  0  0  0
  -21.3477  -42.1047  -10.5464 C   0  0  0  0  0  0  0  0  0  0  0  0
  -21.7689  -43.3368  -10.3854 N   0  0  0  0  0  0  0  0  0  0  0  0
  -18.5729  -41.9690   -8.1210 C   0  0  0  0  0  0  0  0  0  0  0  0
  -19.0089  -42.0861   -6.8288 O   0  0  0  0  0  0  0  0  0  0  0  0
  -17.4236  -41.1913   -8.0222 N   0  0  0  0  0  0  0  0  0  0  0  0
  -17.4428  -39.7066   -8.0033 C   0  0  1  0  0  0  0  0  0  0  0  0
  -18.6320  -38.8971   -7.9653 C   0  0  0  0  0  0  0  0  0  0  0  0
  -16.2532  -39.1702   -7.3281 C   0  0  2  0  0  0  0  0  0  0  0  0
  -16.5299  -38.8284   -5.9610 O   0  0  0  0  0  0  0  0  0  0  0  0
  -15.5360  -37.9965   -7.8614 C   0  0  0  0  0  0  0  0  0  0  0  0
  -14.4778  -38.3723   -8.7726 N   0  0  0  0  0  0  0  0  0  0  0  0
  -14.7350  -37.9332  -10.1281 C   0  0  0  0  0  0  0  0  0  0  0  0
  -15.7838  -38.7346  -10.8068 C   0  0  0  0  0  0  0  0  0  0  0  0
  -15.0394  -36.4530  -10.1342 C   0  0  0  0  0  0  0  0  0  0  0  0
  -13.4429  -38.1156  -10.8583 C   0  0  0  0  0  0  0  0  0  0  0  0
  -13.1747  -38.0386  -12.2083 C   0  0  0  0  0  0  0  0  0  0  0  0
  -11.8356  -38.2804  -12.4089 C   0  0  0  0  0  0  0  0  0  0  0  0
  -11.0768  -38.3045  -13.7011 C   0  0  0  0  0  0  0  0  0  0  0  0
  -10.5391  -36.9278  -14.0285 C   0  0  0  0  0  0  0  0  0  0  0  0
  -11.7628  -36.0346  -14.2624 C   0  0  0  0  0  0  0  0  0  0  0  0
   -9.7256  -36.4626  -12.8601 C   0  0  0  0  0  0  0  0  0  0  0  0
   -9.7160  -36.9126  -15.2726 C   0  0  0  0  0  0  0  0  0  0  0  0
  -11.3278  -38.4942  -11.2102 O   0  0  0  0  0  0  0  0  0  0  0  0
  -12.2342  -38.4050  -10.2966 N   0  0  0  0  0  0  0  0  0  0  0  0
  2  1  1  1
  2  3  1  0
  3  4  1  0
  4  5  1  0
  5  6  1  0
  6  7  1  0
  7  8  1  0
  8  9  1  0
  9 10  1  0
 10 11  1  0
 11 12  1  0
 12 13  2  0
 13 14  1  0
 14 15  2  0
 15 16  1  0
 13 17  1  0
 17 18  2  0
 17 19  1  0
 19 20  1  0
 20 21  1  1
 20 22  1  0
 22 23  1  1
 22 24  1  0
 24 25  1  0
 25 26  1  0
 26 27  1  0
 26 28  1  0
 26 29  1  0
 29 30  1  0
 30 31  2  0
 31 32  1  0
 32 33  1  0
 33 34  1  0
 33 35  1  0
 33 36  1  0
 31 37  1  0
 37 38  1  0
 16 11  2  0
 21  2  1  0
 38 29  2  0
M  END
$$$$
