
     RDKit          3D

 46 50  0  0  0  0  0  0  0  0999 V2000
  -16.6621  -48.1582  -11.6626 C   0  0  0  0  0  0  0  0  0  0  0  0
  -17.3081  -47.0024  -11.0774 N   0  0  0  0  0  0  0  0  0  0  0  0
  -18.1483  -46.1575  -11.8959 C   0  0  0  0  0  0  0  0  0  0  0  0
  -17.1272  -46.6914   -9.7191 C   0  0  0  0  0  0  0  0  0  0  0  0
  -16.4244  -47.4323   -8.9968 O   0  0  0  0  0  0  0  0  0  0  0  0
  -17.7374  -45.5138   -9.0936 C   0  0  0  0  0  0  0  0  0  0  0  0
  -18.6043  -45.6067   -8.0474 C   0  0  0  0  0  0  0  0  0  0  0  0
  -19.2065  -44.4806   -7.4181 C   0  0  0  0  0  0  0  0  0  0  0  0
  -18.8963  -43.2254   -7.8944 C   0  0  0  0  0  0  0  0  0  0  0  0
  -18.0257  -43.0600   -8.9518 C   0  0  0  0  0  0  0  0  0  0  0  0
  -17.4714  -44.2487   -9.5170 C   0  0  0  0  0  0  0  0  0  0  0  0
  -17.5351  -41.8603   -9.6418 C   0  0  0  0  0  0  0  0  0  0  0  0
  -16.2738  -41.9291  -10.0827 O   0  0  0  0  0  0  0  0  0  0  0  0
  -18.0450  -40.6029   -9.9878 N   0  0  0  0  0  0  0  0  0  0  0  0
  -18.6030  -39.5440   -9.1417 C   0  0  1  0  0  0  0  0  0  0  0  0
  -20.0522  -39.3733   -9.4313 C   0  0  0  0  0  0  0  0  0  0  0  0
  -20.9661  -39.2996   -8.2564 C   0  0  0  0  0  0  0  0  0  0  0  0
  -21.5838  -40.2798   -7.5378 C   0  0  0  0  0  0  0  0  0  0  0  0
  -22.4067  -39.9099   -6.4853 C   0  0  0  0  0  0  0  0  0  0  0  0
  -23.1305  -40.6887   -5.6258 O   0  0  0  0  0  0  0  0  0  0  0  0
  -23.4103  -41.8513   -5.0552 C   0  0  0  0  0  0  0  0  0  0  0  0
  -22.5069  -43.0619   -5.2162 C   0  0  0  0  0  0  0  0  0  0  0  0
  -21.2797  -43.2707   -4.9144 C   0  0  0  0  0  0  0  0  0  0  0  0
  -20.3282  -44.4408   -5.0445 C   0  0  0  0  0  0  0  0  0  0  0  0
  -20.0631  -44.9275   -6.3696 N   0  0  0  0  0  0  0  0  0  0  0  0
  -22.5819  -38.5347   -6.1863 C   0  0  0  0  0  0  0  0  0  0  0  0
  -23.4006  -38.1185   -5.1456 F   0  0  0  0  0  0  0  0  0  0  0  0
  -21.9758  -37.5244   -6.8873 C   0  0  0  0  0  0  0  0  0  0  0  0
  -21.1748  -37.9386   -7.9153 C   0  0  0  0  0  0  0  0  0  0  0  0
  -18.1284  -39.5322   -7.7470 C   0  0  2  0  0  0  0  0  0  0  0  0
  -18.7322  -38.4937   -7.0375 O   0  0  0  0  0  0  0  0  0  0  0  0
  -16.6184  -39.1910   -7.8152 C   0  0  0  0  0  0  0  0  0  0  0  0
  -16.3689  -38.1712   -8.7734 N   0  0  0  0  0  0  0  0  0  0  0  0
  -15.2042  -38.4028   -9.5985 C   0  0  0  0  0  0  0  0  0  0  0  0
  -13.9057  -37.9492   -8.9347 C   0  0  0  0  0  0  0  0  0  0  0  0
  -14.4779  -37.2216  -10.1324 C   0  0  0  0  0  0  0  0  0  0  0  0
  -15.1511  -39.5919  -10.4573 C   0  0  0  0  0  0  0  0  0  0  0  0
  -13.9586  -40.1006  -10.9417 C   0  0  0  0  0  0  0  0  0  0  0  0
  -13.8755  -41.2067  -11.7468 C   0  0  0  0  0  0  0  0  0  0  0  0
  -15.0453  -41.8462  -12.0917 C   0  0  0  0  0  0  0  0  0  0  0  0
  -16.2618  -41.4041  -11.6529 C   0  0  0  0  0  0  0  0  0  0  0  0
  -16.2886  -40.2668  -10.8311 C   0  0  0  0  0  0  0  0  0  0  0  0
  -12.5812  -41.7261  -12.2488 C   0  0  0  0  0  0  0  0  0  0  0  0
  -11.8741  -42.5745  -11.2219 C   0  0  0  0  0  0  0  0  0  0  0  0
  -12.8907  -42.6155  -13.4421 C   0  0  0  0  0  0  0  0  0  0  0  0
  -11.6699  -40.6225  -12.7521 C   0  0  0  0  0  0  0  0  0  0  0  0
  1  2  1  0
  2  3  1  0
  2  4  1  0
  4  5  2  0
  4  6  1  0
  6  7  2  0
  7  8  1  0
  8  9  2  0
  9 10  1  0
 10 11  2  0
 10 12  1  0
 12 13  2  0
 12 14  1  0
 14 15  1  0
 15 16  1  1
 16 17  1  0
 17 18  2  0
 18 19  1  0
 19 20  1  0
 20 21  1  0
 21 22  1  0
 22 23  2  0
 23 24  1  0
 24 25  1  0
 19 26  2  0
 26 27  1  0
 26 28  1  0
 28 29  2  0
 15 30  1  0
 30 31  1  1
 30 32  1  0
 32 33  1  0
 33 34  1  0
 34 35  1  0
 35 36  1  0
 34 37  1  0
 37 38  2  0
 38 39  1  0
 39 40  2  0
 40 41  1  0
 41 42  2  0
 39 43  1  0
 43 44  1  0
 43 45  1  0
 43 46  1  0
 11  6  1  0
 25  8  1  0
 29 17  1  0
 36 34  1  0
 42 37  1  0
M  END
$$$$
