
     RDKit          3D

 46 50  0  0  0  0  0  0  0  0999 V2000
  -22.8538  -45.3448   -8.9800 C   0  0  0  0  0  0  0  0  0  0  0  0
  -23.3140  -45.1529   -7.6209 N   0  0  0  0  0  0  0  0  0  0  0  0
  -24.3802  -45.9786   -7.0999 C   0  0  0  0  0  0  0  0  0  0  0  0
  -22.7348  -44.1705   -6.8000 C   0  0  0  0  0  0  0  0  0  0  0  0
  -22.7895  -44.2844   -5.5556 O   0  0  0  0  0  0  0  0  0  0  0  0
  -22.0544  -42.9912   -7.3448 C   0  0  0  0  0  0  0  0  0  0  0  0
  -22.7129  -41.8352   -7.6358 C   0  0  0  0  0  0  0  0  0  0  0  0
  -22.0769  -40.6743   -8.1599 C   0  0  0  0  0  0  0  0  0  0  0  0
  -20.7187  -40.7224   -8.3869 C   0  0  0  0  0  0  0  0  0  0  0  0
  -19.9911  -41.8624   -8.1146 C   0  0  0  0  0  0  0  0  0  0  0  0
  -20.7165  -42.9753   -7.5903 C   0  0  0  0  0  0  0  0  0  0  0  0
  -18.5640  -42.1754   -8.2617 C   0  0  0  0  0  0  0  0  0  0  0  0
  -18.0582  -42.9922   -7.3306 O   0  0  0  0  0  0  0  0  0  0  0  0
  -17.5340  -41.8444   -9.1506 N   0  0  0  0  0  0  0  0  0  0  0  0
  -16.9962  -40.5341   -9.5280 C   0  0  1  0  0  0  0  0  0  0  0  0
  -17.2970  -40.2544  -10.9579 C   0  0  0  0  0  0  0  0  0  0  0  0
  -17.8549  -38.9091  -11.2744 C   0  0  0  0  0  0  0  0  0  0  0  0
  -19.1382  -38.4485  -11.2779 C   0  0  0  0  0  0  0  0  0  0  0  0
  -19.3666  -37.1292  -11.6368 C   0  0  0  0  0  0  0  0  0  0  0  0
  -20.5425  -36.4369  -11.7205 O   0  0  0  0  0  0  0  0  0  0  0  0
  -21.8300  -36.2821  -11.4486 C   0  0  0  0  0  0  0  0  0  0  0  0
  -22.5490  -37.1641  -10.4423 C   0  0  0  0  0  0  0  0  0  0  0  0
  -22.3661  -37.3757   -9.1924 C   0  0  0  0  0  0  0  0  0  0  0  0
  -23.0390  -38.2313   -8.1405 C   0  0  0  0  0  0  0  0  0  0  0  0
  -23.0501  -39.6512   -8.3575 N   0  0  0  0  0  0  0  0  0  0  0  0
  -18.2697  -36.3011  -11.9867 C   0  0  0  0  0  0  0  0  0  0  0  0
  -18.4521  -34.9762  -12.3579 F   0  0  0  0  0  0  0  0  0  0  0  0
  -16.9681  -36.7315  -11.9930 C   0  0  0  0  0  0  0  0  0  0  0  0
  -16.7935  -38.0389  -11.6325 C   0  0  0  0  0  0  0  0  0  0  0  0
  -17.1603  -39.4692   -8.5230 C   0  0  2  0  0  0  0  0  0  0  0  0
  -17.2064  -38.2200   -9.1426 O   0  0  0  0  0  0  0  0  0  0  0  0
  -15.8651  -39.4847   -7.6727 C   0  0  0  0  0  0  0  0  0  0  0  0
  -15.7030  -40.7333   -7.0131 N   0  0  0  0  0  0  0  0  0  0  0  0
  -16.9187  -41.5078   -6.8992 C   0  0  0  0  0  0  0  0  0  0  0  0
  -16.7871  -42.6820   -5.9314 C   0  0  0  0  0  0  0  0  0  0  0  0
  -16.9154  -42.8979   -7.4241 C   0  0  0  0  0  0  0  0  0  0  0  0
  -18.2182  -40.8296   -6.9747 C   0  0  0  0  0  0  0  0  0  0  0  0
  -19.3989  -41.4527   -6.6103 C   0  0  0  0  0  0  0  0  0  0  0  0
  -20.6275  -40.8482   -6.6712 C   0  0  0  0  0  0  0  0  0  0  0  0
  -20.6880  -39.5479   -7.1205 C   0  0  0  0  0  0  0  0  0  0  0  0
  -19.5657  -38.8657   -7.4986 C   0  0  0  0  0  0  0  0  0  0  0  0
  -18.3339  -39.5331   -7.4160 C   0  0  0  0  0  0  0  0  0  0  0  0
  -21.8740  -41.5444   -6.2729 C   0  0  0  0  0  0  0  0  0  0  0  0
  -21.6198  -42.9747   -5.8678 C   0  0  0  0  0  0  0  0  0  0  0  0
  -22.4224  -40.8153   -5.0569 C   0  0  0  0  0  0  0  0  0  0  0  0
  -22.9456  -41.4728   -7.3444 C   0  0  0  0  0  0  0  0  0  0  0  0
  1  2  1  0
  2  3  1  0
  2  4  1  0
  4  5  2  0
  4  6  1  0
  6  7  2  0
  7  8  1  0
  8  9  2  0
  9 10  1  0
 10 11  2  0
 10 12  1  0
 12 13  2  0
 12 14  1  0
 14 15  1  0
 15 16  1  6
 16 17  1  0
 17 18  2  0
 18 19  1  0
 19 20  1  0
 20 21  1  0
 21 22  1  0
 22 23  2  0
 23 24  1  0
 24 25  1  0
 19 26  2  0
 26 27  1  0
 26 28  1  0
 28 29  2  0
 15 30  1  0
 30 31  1  6
 30 32  1  0
 32 33  1  0
 33 34  1  0
 34 35  1  0
 35 36  1  0
 34 37  1  0
 37 38  2  0
 38 39  1  0
 39 40  2  0
 40 41  1  0
 41 42  2  0
 39 43  1  0
 43 44  1  0
 43 45  1  0
 43 46  1  0
 11  6  1  0
 25  8  1  0
 29 17  1  0
 36 34  1  0
 42 37  1  0
M  END
$$$$
