
     RDKit          3D

 46 50  0  0  0  0  0  0  0  0999 V2000
  -19.0279  -48.1386  -11.6716 C   0  0  0  0  0  0  0  0  0  0  0  0
  -19.2045  -46.8853  -10.9690 N   0  0  0  0  0  0  0  0  0  0  0  0
  -20.1410  -45.9055  -11.4717 C   0  0  0  0  0  0  0  0  0  0  0  0
  -18.4741  -46.6095   -9.8007 C   0  0  0  0  0  0  0  0  0  0  0  0
  -17.5838  -47.4008   -9.4191 O   0  0  0  0  0  0  0  0  0  0  0  0
  -18.7116  -45.4116   -8.9889 C   0  0  0  0  0  0  0  0  0  0  0  0
  -19.4198  -45.4437   -7.8260 C   0  0  0  0  0  0  0  0  0  0  0  0
  -19.6605  -44.2980   -7.0159 C   0  0  0  0  0  0  0  0  0  0  0  0
  -19.1496  -43.0877   -7.4315 C   0  0  0  0  0  0  0  0  0  0  0  0
  -18.4235  -42.9847   -8.6000 C   0  0  0  0  0  0  0  0  0  0  0  0
  -18.2337  -44.1887   -9.3444 C   0  0  0  0  0  0  0  0  0  0  0  0
  -17.7813  -41.8408   -9.2599 C   0  0  0  0  0  0  0  0  0  0  0  0
  -16.6428  -42.1178   -9.9056 O   0  0  0  0  0  0  0  0  0  0  0  0
  -18.0424  -40.4737   -9.4129 N   0  0  0  0  0  0  0  0  0  0  0  0
  -18.2246  -39.4276   -8.4024 C   0  0  1  0  0  0  0  0  0  0  0  0
  -19.6255  -38.9281   -8.4355 C   0  0  0  0  0  0  0  0  0  0  0  0
  -20.3235  -38.8035   -7.1247 C   0  0  0  0  0  0  0  0  0  0  0  0
  -21.0354  -39.7111   -6.3978 C   0  0  0  0  0  0  0  0  0  0  0  0
  -21.5971  -39.3034   -5.1979 C   0  0  0  0  0  0  0  0  0  0  0  0
  -22.3464  -40.0097   -4.2985 O   0  0  0  0  0  0  0  0  0  0  0  0
  -22.7940  -41.1473   -3.7875 C   0  0  0  0  0  0  0  0  0  0  0  0
  -22.2149  -42.4917   -4.1935 C   0  0  0  0  0  0  0  0  0  0  0  0
  -21.0350  -42.9837   -4.1152 C   0  0  0  0  0  0  0  0  0  0  0  0
  -20.3961  -44.3023   -4.4955 C   0  0  0  0  0  0  0  0  0  0  0  0
  -20.4371  -44.6764   -5.8817 N   0  0  0  0  0  0  0  0  0  0  0  0
  -21.4175  -37.9658   -4.7619 C   0  0  0  0  0  0  0  0  0  0  0  0
  -21.9666  -37.5127   -3.5704 F   0  0  0  0  0  0  0  0  0  0  0  0
  -20.7077  -37.0287   -5.4671 C   0  0  0  0  0  0  0  0  0  0  0  0
  -20.1735  -37.4777   -6.6431 C   0  0  0  0  0  0  0  0  0  0  0  0
  -17.5660  -39.6762   -7.1081 C   0  0  2  0  0  0  0  0  0  0  0  0
  -17.3701  -38.4757   -6.4247 O   0  0  0  0  0  0  0  0  0  0  0  0
  -16.1545  -40.2181   -7.4472 C   0  0  0  0  0  0  0  0  0  0  0  0
  -15.4071  -39.2645   -8.1905 N   0  0  0  0  0  0  0  0  0  0  0  0
  -14.8484  -39.7762   -9.4221 C   0  0  0  0  0  0  0  0  0  0  0  0
  -13.9356  -40.9814   -9.2053 C   0  0  0  0  0  0  0  0  0  0  0  0
  -13.3845  -39.6394   -9.6373 C   0  0  0  0  0  0  0  0  0  0  0  0
  -15.6519  -39.7424  -10.6499 C   0  0  0  0  0  0  0  0  0  0  0  0
  -16.7073  -38.8630  -10.8181 C   0  0  0  0  0  0  0  0  0  0  0  0
  -17.4776  -38.8082  -11.9505 C   0  0  0  0  0  0  0  0  0  0  0  0
  -17.1832  -39.6777  -12.9769 C   0  0  0  0  0  0  0  0  0  0  0  0
  -16.1567  -40.5753  -12.8857 C   0  0  0  0  0  0  0  0  0  0  0  0
  -15.4003  -40.5883  -11.7036 C   0  0  0  0  0  0  0  0  0  0  0  0
  -18.6016  -37.8534  -12.0988 C   0  0  0  0  0  0  0  0  0  0  0  0
  -19.1019  -37.7830  -13.5197 C   0  0  0  0  0  0  0  0  0  0  0  0
  -19.7423  -38.3708  -11.2375 C   0  0  0  0  0  0  0  0  0  0  0  0
  -18.2581  -36.4690  -11.5820 C   0  0  0  0  0  0  0  0  0  0  0  0
  1  2  1  0
  2  3  1  0
  2  4  1  0
  4  5  2  0
  4  6  1  0
  6  7  2  0
  7  8  1  0
  8  9  2  0
  9 10  1  0
 10 11  2  0
 10 12  1  0
 12 13  2  0
 12 14  1  0
 14 15  1  0
 15 16  1  1
 16 17  1  0
 17 18  2  0
 18 19  1  0
 19 20  1  0
 20 21  1  0
 21 22  1  0
 22 23  2  0
 23 24  1  0
 24 25  1  0
 19 26  2  0
 26 27  1  0
 26 28  1  0
 28 29  2  0
 15 30  1  0
 30 31  1  6
 30 32  1  0
 32 33  1  0
 33 34  1  0
 34 35  1  0
 35 36  1  0
 34 37  1  0
 37 38  2  0
 38 39  1  0
 39 40  2  0
 40 41  1  0
 41 42  2  0
 39 43  1  0
 43 44  1  0
 43 45  1  0
 43 46  1  0
 11  6  1  0
 25  8  1  0
 29 17  1  0
 36 34  1  0
 42 37  1  0
M  END
$$$$
