
     RDKit          3D

 46 50  0  0  0  0  0  0  0  0999 V2000
  -16.1905  -47.5496   -8.1219 C   0  0  0  0  0  0  0  0  0  0  0  0
  -16.7417  -47.9530   -9.3983 N   0  0  0  0  0  0  0  0  0  0  0  0
  -16.4386  -49.2625   -9.9303 C   0  0  0  0  0  0  0  0  0  0  0  0
  -17.5704  -47.0839  -10.1279 C   0  0  0  0  0  0  0  0  0  0  0  0
  -17.9525  -47.4019  -11.2757 O   0  0  0  0  0  0  0  0  0  0  0  0
  -18.0182  -45.7927   -9.5964 C   0  0  0  0  0  0  0  0  0  0  0  0
  -18.7471  -45.6852   -8.4511 C   0  0  0  0  0  0  0  0  0  0  0  0
  -19.1897  -44.4451   -7.9099 C   0  0  0  0  0  0  0  0  0  0  0  0
  -18.8639  -43.2876   -8.5829 C   0  0  0  0  0  0  0  0  0  0  0  0
  -18.1282  -43.3251   -9.7493 C   0  0  0  0  0  0  0  0  0  0  0  0
  -17.7286  -44.6153  -10.2134 C   0  0  0  0  0  0  0  0  0  0  0  0
  -17.6549  -42.2636  -10.6467 C   0  0  0  0  0  0  0  0  0  0  0  0
  -16.4680  -42.4875  -11.2222 O   0  0  0  0  0  0  0  0  0  0  0  0
  -18.1237  -41.0221  -11.0936 N   0  0  0  0  0  0  0  0  0  0  0  0
  -18.4989  -39.8251  -10.3355 C   0  0  1  0  0  0  0  0  0  0  0  0
  -19.9594  -39.5760  -10.4698 C   0  0  0  0  0  0  0  0  0  0  0  0
  -20.7074  -39.2840   -9.2143 C   0  0  0  0  0  0  0  0  0  0  0  0
  -21.2888  -40.1147   -8.3028 C   0  0  0  0  0  0  0  0  0  0  0  0
  -21.9436  -39.5522   -7.2182 C   0  0  0  0  0  0  0  0  0  0  0  0
  -22.5989  -40.1577   -6.1823 O   0  0  0  0  0  0  0  0  0  0  0  0
  -22.8766  -41.2142   -5.4325 C   0  0  0  0  0  0  0  0  0  0  0  0
  -22.0808  -42.5040   -5.5377 C   0  0  0  0  0  0  0  0  0  0  0  0
  -20.8409  -42.7714   -5.3598 C   0  0  0  0  0  0  0  0  0  0  0  0
  -19.9910  -44.0210   -5.4458 C   0  0  0  0  0  0  0  0  0  0  0  0
  -19.9307  -44.6882   -6.7164 N   0  0  0  0  0  0  0  0  0  0  0  0
  -21.9904  -38.1409   -7.0863 C   0  0  0  0  0  0  0  0  0  0  0  0
  -22.6397  -37.5345   -6.0199 F   0  0  0  0  0  0  0  0  0  0  0  0
  -21.4164  -37.2774   -7.9830 C   0  0  0  0  0  0  0  0  0  0  0  0
  -20.7829  -37.8789   -9.0351 C   0  0  0  0  0  0  0  0  0  0  0  0
  -17.8485  -39.6782   -9.0216 C   0  0  2  0  0  0  0  0  0  0  0  0
  -18.0443  -38.3895   -8.5243 O   0  0  0  0  0  0  0  0  0  0  0  0
  -16.3275  -39.8163   -9.2831 C   0  0  0  0  0  0  0  0  0  0  0  0
  -16.0796  -40.4003  -10.5550 N   0  0  0  0  0  0  0  0  0  0  0  0
  -14.6993  -40.3340  -10.9809 C   0  0  0  0  0  0  0  0  0  0  0  0
  -14.1227  -41.7011  -11.3434 C   0  0  0  0  0  0  0  0  0  0  0  0
  -13.6668  -40.9523  -10.1093 C   0  0  0  0  0  0  0  0  0  0  0  0
  -14.2344  -39.1732  -11.7493 C   0  0  0  0  0  0  0  0  0  0  0  0
  -14.5925  -37.8776  -11.4199 C   0  0  0  0  0  0  0  0  0  0  0  0
  -14.1774  -36.7735  -12.1179 C   0  0  0  0  0  0  0  0  0  0  0  0
  -13.3581  -36.9665  -13.2078 C   0  0  0  0  0  0  0  0  0  0  0  0
  -12.9612  -38.2155  -13.5957 C   0  0  0  0  0  0  0  0  0  0  0  0
  -13.4160  -39.3106  -12.8450 C   0  0  0  0  0  0  0  0  0  0  0  0
  -14.5795  -35.3983  -11.7381 C   0  0  0  0  0  0  0  0  0  0  0  0
  -14.4652  -35.1641  -10.2527 C   0  0  0  0  0  0  0  0  0  0  0  0
  -13.6153  -34.4460  -12.4267 C   0  0  0  0  0  0  0  0  0  0  0  0
  -15.9697  -35.0439  -12.2315 C   0  0  0  0  0  0  0  0  0  0  0  0
  1  2  1  0
  2  3  1  0
  2  4  1  0
  4  5  2  0
  4  6  1  0
  6  7  2  0
  7  8  1  0
  8  9  2  0
  9 10  1  0
 10 11  2  0
 10 12  1  0
 12 13  2  0
 12 14  1  0
 14 15  1  0
 15 16  1  1
 16 17  1  0
 17 18  2  0
 18 19  1  0
 19 20  1  0
 20 21  1  0
 21 22  1  0
 22 23  2  0
 23 24  1  0
 24 25  1  0
 19 26  2  0
 26 27  1  0
 26 28  1  0
 28 29  2  0
 15 30  1  0
 30 31  1  6
 30 32  1  0
 32 33  1  0
 33 34  1  0
 34 35  1  0
 35 36  1  0
 34 37  1  0
 37 38  2  0
 38 39  1  0
 39 40  2  0
 40 41  1  0
 41 42  2  0
 39 43  1  0
 43 44  1  0
 43 45  1  0
 43 46  1  0
 11  6  1  0
 25  8  1  0
 29 17  1  0
 36 34  1  0
 42 37  1  0
M  END
$$$$
