
     RDKit          3D

 46 50  0  0  0  0  0  0  0  0999 V2000
  -19.9719  -46.0883  -11.7959 C   0  0  0  0  0  0  0  0  0  0  0  0
  -18.9029  -46.9307  -11.3027 N   0  0  0  0  0  0  0  0  0  0  0  0
  -18.5538  -48.1393  -12.0148 C   0  0  0  0  0  0  0  0  0  0  0  0
  -18.1989  -46.5862  -10.1365 C   0  0  0  0  0  0  0  0  0  0  0  0
  -17.2184  -47.2725   -9.7729 O   0  0  0  0  0  0  0  0  0  0  0  0
  -18.5674  -45.4350   -9.3062 C   0  0  0  0  0  0  0  0  0  0  0  0
  -19.2636  -45.5641   -8.1429 C   0  0  0  0  0  0  0  0  0  0  0  0
  -19.6295  -44.4651   -7.3152 C   0  0  0  0  0  0  0  0  0  0  0  0
  -19.2600  -43.1988   -7.7133 C   0  0  0  0  0  0  0  0  0  0  0  0
  -18.5539  -42.9971   -8.8812 C   0  0  0  0  0  0  0  0  0  0  0  0
  -18.2319  -44.1607   -9.6440 C   0  0  0  0  0  0  0  0  0  0  0  0
  -18.0473  -41.7783   -9.5248 C   0  0  0  0  0  0  0  0  0  0  0  0
  -16.8869  -41.9153  -10.1765 O   0  0  0  0  0  0  0  0  0  0  0  0
  -18.4616  -40.4473   -9.6567 N   0  0  0  0  0  0  0  0  0  0  0  0
  -18.7575  -39.4436   -8.6302 C   0  0  1  0  0  0  0  0  0  0  0  0
  -20.2059  -39.1051   -8.6536 C   0  0  0  0  0  0  0  0  0  0  0  0
  -20.9092  -39.0796   -7.3399 C   0  0  0  0  0  0  0  0  0  0  0  0
  -21.5116  -40.0725   -6.6256 C   0  0  0  0  0  0  0  0  0  0  0  0
  -22.1118  -39.7487   -5.4188 C   0  0  0  0  0  0  0  0  0  0  0  0
  -22.7736  -40.5484   -4.5290 O   0  0  0  0  0  0  0  0  0  0  0  0
  -23.0881  -41.7367   -4.0344 C   0  0  0  0  0  0  0  0  0  0  0  0
  -22.3623  -43.0010   -4.4617 C   0  0  0  0  0  0  0  0  0  0  0  0
  -21.1340  -43.3576   -4.3927 C   0  0  0  0  0  0  0  0  0  0  0  0
  -20.3516  -44.5898   -4.7939 C   0  0  0  0  0  0  0  0  0  0  0  0
  -20.3547  -44.9455   -6.1855 N   0  0  0  0  0  0  0  0  0  0  0  0
  -22.0830  -38.4061   -4.9629 C   0  0  0  0  0  0  0  0  0  0  0  0
  -22.6758  -38.0355   -3.7639 F   0  0  0  0  0  0  0  0  0  0  0  0
  -21.4859  -37.3843   -5.6550 C   0  0  0  0  0  0  0  0  0  0  0  0
  -20.9083  -37.7527   -6.8385 C   0  0  0  0  0  0  0  0  0  0  0  0
  -18.0707  -39.6353   -7.3409 C   0  0  2  0  0  0  0  0  0  0  0  0
  -18.4669  -38.6561   -6.4296 O   0  0  0  0  0  0  0  0  0  0  0  0
  -16.5670  -39.3862   -7.6197 C   0  0  0  0  0  0  0  0  0  0  0  0
  -16.1285  -40.1269   -8.7508 N   0  0  0  0  0  0  0  0  0  0  0  0
  -15.3757  -39.3531   -9.7129 C   0  0  0  0  0  0  0  0  0  0  0  0
  -14.2456  -40.1492  -10.3624 C   0  0  0  0  0  0  0  0  0  0  0  0
  -13.9630  -39.0211   -9.3933 C   0  0  0  0  0  0  0  0  0  0  0  0
  -16.0664  -38.3543  -10.5371 C   0  0  0  0  0  0  0  0  0  0  0  0
  -17.2751  -38.6168  -11.1579 C   0  0  0  0  0  0  0  0  0  0  0  0
  -17.9436  -37.7071  -11.9352 C   0  0  0  0  0  0  0  0  0  0  0  0
  -17.3791  -36.4629  -12.1067 C   0  0  0  0  0  0  0  0  0  0  0  0
  -16.1880  -36.1284  -11.5261 C   0  0  0  0  0  0  0  0  0  0  0  0
  -15.5464  -37.0983  -10.7404 C   0  0  0  0  0  0  0  0  0  0  0  0
  -19.2378  -38.0205  -12.5864 C   0  0  0  0  0  0  0  0  0  0  0  0
  -19.3959  -39.4966  -12.8522 C   0  0  0  0  0  0  0  0  0  0  0  0
  -20.3349  -37.6103  -11.6175 C   0  0  0  0  0  0  0  0  0  0  0  0
  -19.4561  -37.2205  -13.8568 C   0  0  0  0  0  0  0  0  0  0  0  0
  1  2  1  0
  2  3  1  0
  2  4  1  0
  4  5  2  0
  4  6  1  0
  6  7  2  0
  7  8  1  0
  8  9  2  0
  9 10  1  0
 10 11  2  0
 10 12  1  0
 12 13  2  0
 12 14  1  0
 14 15  1  0
 15 16  1  1
 16 17  1  0
 17 18  2  0
 18 19  1  0
 19 20  1  0
 20 21  1  0
 21 22  1  0
 22 23  2  0
 23 24  1  0
 24 25  1  0
 19 26  2  0
 26 27  1  0
 26 28  1  0
 28 29  2  0
 15 30  1  0
 30 31  1  1
 30 32  1  0
 32 33  1  0
 33 34  1  0
 34 35  1  0
 35 36  1  0
 34 37  1  0
 37 38  2  0
 38 39  1  0
 39 40  2  0
 40 41  1  0
 41 42  2  0
 39 43  1  0
 43 44  1  0
 43 45  1  0
 43 46  1  0
 11  6  1  0
 25  8  1  0
 29 17  1  0
 36 34  1  0
 42 37  1  0
M  END
$$$$
