
     RDKit          3D

 46 50  0  0  0  0  0  0  0  0999 V2000
  -22.1834  -46.9506   -5.8567 C   0  0  0  0  0  0  0  0  0  0  0  0
  -21.4068  -45.8041   -6.2790 N   0  0  0  0  0  0  0  0  0  0  0  0
  -21.8493  -44.4711   -5.9370 C   0  0  0  0  0  0  0  0  0  0  0  0
  -20.2247  -45.9727   -7.0196 C   0  0  0  0  0  0  0  0  0  0  0  0
  -19.7682  -47.1207   -7.2150 O   0  0  0  0  0  0  0  0  0  0  0  0
  -19.4835  -44.8415   -7.5866 C   0  0  0  0  0  0  0  0  0  0  0  0
  -19.3317  -44.6641   -8.9283 C   0  0  0  0  0  0  0  0  0  0  0  0
  -18.6226  -43.5729   -9.5056 C   0  0  0  0  0  0  0  0  0  0  0  0
  -18.0563  -42.6440   -8.6599 C   0  0  0  0  0  0  0  0  0  0  0  0
  -18.1717  -42.7641   -7.2904 C   0  0  0  0  0  0  0  0  0  0  0  0
  -18.9023  -43.8914   -6.8056 C   0  0  0  0  0  0  0  0  0  0  0  0
  -17.6740  -41.9339   -6.1861 C   0  0  0  0  0  0  0  0  0  0  0  0
  -18.4715  -41.8697   -5.1139 O   0  0  0  0  0  0  0  0  0  0  0  0
  -16.5397  -41.1548   -5.9274 N   0  0  0  0  0  0  0  0  0  0  0  0
  -15.9923  -40.0100   -6.6610 C   0  0  1  0  0  0  0  0  0  0  0  0
  -14.6788  -40.3710   -7.2590 C   0  0  0  0  0  0  0  0  0  0  0  0
  -14.4701  -40.0048   -8.6885 C   0  0  0  0  0  0  0  0  0  0  0  0
  -14.7803  -40.6679   -9.8387 C   0  0  0  0  0  0  0  0  0  0  0  0
  -14.4471  -40.0826  -11.0502 C   0  0  0  0  0  0  0  0  0  0  0  0
  -14.6443  -40.5372  -12.3245 O   0  0  0  0  0  0  0  0  0  0  0  0
  -15.2321  -41.3362  -13.2029 C   0  0  0  0  0  0  0  0  0  0  0  0
  -16.4188  -42.2068  -12.8268 C   0  0  0  0  0  0  0  0  0  0  0  0
  -17.5864  -41.9297  -12.3791 C   0  0  0  0  0  0  0  0  0  0  0  0
  -18.8045  -42.7393  -11.9887 C   0  0  0  0  0  0  0  0  0  0  0  0
  -18.6464  -43.6927  -10.9261 N   0  0  0  0  0  0  0  0  0  0  0  0
  -13.7992  -38.8211  -11.0612 C   0  0  0  0  0  0  0  0  0  0  0  0
  -13.4421  -38.2008  -12.2504 F   0  0  0  0  0  0  0  0  0  0  0  0
  -13.4738  -38.1274   -9.9244 C   0  0  0  0  0  0  0  0  0  0  0  0
  -13.8220  -38.7448   -8.7550 C   0  0  0  0  0  0  0  0  0  0  0  0
  -16.9685  -39.2378   -7.4493 C   0  0  2  0  0  0  0  0  0  0  0  0
  -16.3686  -38.0962   -7.9814 O   0  0  0  0  0  0  0  0  0  0  0  0
  -18.0310  -38.7386   -6.4379 C   0  0  0  0  0  0  0  0  0  0  0  0
  -19.2853  -38.5348   -7.0748 N   0  0  0  0  0  0  0  0  0  0  0  0
  -20.4300  -38.7859   -6.2278 C   0  0  0  0  0  0  0  0  0  0  0  0
  -20.9752  -37.5178   -5.5738 C   0  0  0  0  0  0  0  0  0  0  0  0
  -20.2748  -38.5875   -4.7634 C   0  0  0  0  0  0  0  0  0  0  0  0
  -21.3940  -39.8266   -6.6043 C   0  0  0  0  0  0  0  0  0  0  0  0
  -21.5791  -40.2219   -7.9177 C   0  0  0  0  0  0  0  0  0  0  0  0
  -22.4720  -41.1882   -8.3018 C   0  0  0  0  0  0  0  0  0  0  0  0
  -23.2261  -41.7986   -7.3246 C   0  0  0  0  0  0  0  0  0  0  0  0
  -23.1006  -41.4626   -6.0058 C   0  0  0  0  0  0  0  0  0  0  0  0
  -22.1712  -40.4666   -5.6686 C   0  0  0  0  0  0  0  0  0  0  0  0
  -22.6457  -41.5886   -9.7184 C   0  0  0  0  0  0  0  0  0  0  0  0
  -22.0326  -42.9361  -10.0059 C   0  0  0  0  0  0  0  0  0  0  0  0
  -24.1407  -41.7036   -9.9687 C   0  0  0  0  0  0  0  0  0  0  0  0
  -22.1208  -40.5434  -10.6846 C   0  0  0  0  0  0  0  0  0  0  0  0
  1  2  1  0
  2  3  1  0
  2  4  1  0
  4  5  2  0
  4  6  1  0
  6  7  2  0
  7  8  1  0
  8  9  2  0
  9 10  1  0
 10 11  2  0
 10 12  1  0
 12 13  2  0
 12 14  1  0
 14 15  1  0
 15 16  1  6
 16 17  1  0
 17 18  2  0
 18 19  1  0
 19 20  1  0
 20 21  1  0
 21 22  1  0
 22 23  2  0
 23 24  1  0
 24 25  1  0
 19 26  2  0
 26 27  1  0
 26 28  1  0
 28 29  2  0
 15 30  1  0
 30 31  1  1
 30 32  1  0
 32 33  1  0
 33 34  1  0
 34 35  1  0
 35 36  1  0
 34 37  1  0
 37 38  2  0
 38 39  1  0
 39 40  2  0
 40 41  1  0
 41 42  2  0
 39 43  1  0
 43 44  1  0
 43 45  1  0
 43 46  1  0
 11  6  1  0
 25  8  1  0
 29 17  1  0
 36 34  1  0
 42 37  1  0
M  END
$$$$
