
     RDKit          3D

 46 50  0  0  0  0  0  0  0  0999 V2000
  -16.1371  -46.9815   -9.2277 C   0  0  0  0  0  0  0  0  0  0  0  0
  -17.2518  -47.5306   -9.9705 N   0  0  0  0  0  0  0  0  0  0  0  0
  -17.1231  -48.8206  -10.6102 C   0  0  0  0  0  0  0  0  0  0  0  0
  -18.4606  -46.8223  -10.0769 C   0  0  0  0  0  0  0  0  0  0  0  0
  -19.3895  -47.2743  -10.7821 O   0  0  0  0  0  0  0  0  0  0  0  0
  -18.6901  -45.5495   -9.3858 C   0  0  0  0  0  0  0  0  0  0  0  0
  -19.5458  -45.4318   -8.3329 C   0  0  0  0  0  0  0  0  0  0  0  0
  -19.7831  -44.2106   -7.6406 C   0  0  0  0  0  0  0  0  0  0  0  0
  -19.1105  -43.0833   -8.0595 C   0  0  0  0  0  0  0  0  0  0  0  0
  -18.2296  -43.1325   -9.1201 C   0  0  0  0  0  0  0  0  0  0  0  0
  -18.0568  -44.4022   -9.7507 C   0  0  0  0  0  0  0  0  0  0  0  0
  -17.4014  -42.1012   -9.7577 C   0  0  0  0  0  0  0  0  0  0  0  0
  -16.2184  -42.5221  -10.2198 O   0  0  0  0  0  0  0  0  0  0  0  0
  -17.5106  -40.7330  -10.0344 N   0  0  0  0  0  0  0  0  0  0  0  0
  -17.7260  -39.6002   -9.1295 C   0  0  1  0  0  0  0  0  0  0  0  0
  -19.0571  -38.9887   -9.3892 C   0  0  0  0  0  0  0  0  0  0  0  0
  -19.9077  -38.7048   -8.1989 C   0  0  0  0  0  0  0  0  0  0  0  0
  -20.7915  -39.4903   -7.5201 C   0  0  0  0  0  0  0  0  0  0  0  0
  -21.4663  -38.9452   -6.4389 C   0  0  0  0  0  0  0  0  0  0  0  0
  -22.3910  -39.5142   -5.6080 O   0  0  0  0  0  0  0  0  0  0  0  0
  -23.0069  -40.5672   -5.0909 C   0  0  0  0  0  0  0  0  0  0  0  0
  -22.5079  -41.9829   -5.3240 C   0  0  0  0  0  0  0  0  0  0  0  0
  -21.4000  -42.5647   -5.0507 C   0  0  0  0  0  0  0  0  0  0  0  0
  -20.8430  -43.9579   -5.2517 C   0  0  0  0  0  0  0  0  0  0  0  0
  -20.7350  -44.4334   -6.6028 N   0  0  0  0  0  0  0  0  0  0  0  0
  -21.2214  -37.5977   -6.0705 C   0  0  0  0  0  0  0  0  0  0  0  0
  -21.8784  -37.0091   -4.9989 F   0  0  0  0  0  0  0  0  0  0  0  0
  -20.3397  -36.7810   -6.7301 C   0  0  0  0  0  0  0  0  0  0  0  0
  -19.6991  -37.3630   -7.7887 C   0  0  0  0  0  0  0  0  0  0  0  0
  -17.2707  -39.8022   -7.7429 C   0  0  2  0  0  0  0  0  0  0  0  0
  -17.0446  -38.5733   -7.1223 O   0  0  0  0  0  0  0  0  0  0  0  0
  -15.8896  -40.4969   -7.8465 C   0  0  0  0  0  0  0  0  0  0  0  0
  -15.5124  -40.6820   -9.2044 N   0  0  0  0  0  0  0  0  0  0  0  0
  -14.1487  -40.3028   -9.4997 C   0  0  0  0  0  0  0  0  0  0  0  0
  -13.2222  -41.5044   -9.6746 C   0  0  0  0  0  0  0  0  0  0  0  0
  -13.1066  -40.5840   -8.4784 C   0  0  0  0  0  0  0  0  0  0  0  0
  -13.8901  -39.1174  -10.3256 C   0  0  0  0  0  0  0  0  0  0  0  0
  -14.8934  -38.4739  -11.0289 C   0  0  0  0  0  0  0  0  0  0  0  0
  -14.6843  -37.3673  -11.8101 C   0  0  0  0  0  0  0  0  0  0  0  0
  -13.4035  -36.8695  -11.8985 C   0  0  0  0  0  0  0  0  0  0  0  0
  -12.3599  -37.4497  -11.2337 C   0  0  0  0  0  0  0  0  0  0  0  0
  -12.6307  -38.5807  -10.4481 C   0  0  0  0  0  0  0  0  0  0  0  0
  -15.7820  -36.7013  -12.5509 C   0  0  0  0  0  0  0  0  0  0  0  0
  -15.4489  -36.5131  -14.0096 C   0  0  0  0  0  0  0  0  0  0  0  0
  -16.9923  -37.6177  -12.4728 C   0  0  0  0  0  0  0  0  0  0  0  0
  -16.1910  -35.3837  -11.9199 C   0  0  0  0  0  0  0  0  0  0  0  0
  1  2  1  0
  2  3  1  0
  2  4  1  0
  4  5  2  0
  4  6  1  0
  6  7  2  0
  7  8  1  0
  8  9  2  0
  9 10  1  0
 10 11  2  0
 10 12  1  0
 12 13  2  0
 12 14  1  0
 14 15  1  0
 15 16  1  1
 16 17  1  0
 17 18  2  0
 18 19  1  0
 19 20  1  0
 20 21  1  0
 21 22  1  0
 22 23  2  0
 23 24  1  0
 24 25  1  0
 19 26  2  0
 26 27  1  0
 26 28  1  0
 28 29  2  0
 15 30  1  0
 30 31  1  6
 30 32  1  0
 32 33  1  0
 33 34  1  0
 34 35  1  0
 35 36  1  0
 34 37  1  0
 37 38  2  0
 38 39  1  0
 39 40  2  0
 40 41  1  0
 41 42  2  0
 39 43  1  0
 43 44  1  0
 43 45  1  0
 43 46  1  0
 11  6  1  0
 25  8  1  0
 29 17  1  0
 36 34  1  0
 42 37  1  0
M  END
$$$$
