
     RDKit          3D

 46 50  0  0  0  0  0  0  0  0999 V2000
  -20.2694  -46.8371   -4.3628 C   0  0  0  0  0  0  0  0  0  0  0  0
  -19.2967  -46.0378   -5.0775 N   0  0  0  0  0  0  0  0  0  0  0  0
  -18.2519  -45.3553   -4.3478 C   0  0  0  0  0  0  0  0  0  0  0  0
  -19.3565  -45.9176   -6.4762 C   0  0  0  0  0  0  0  0  0  0  0  0
  -20.1410  -46.6379   -7.1322 O   0  0  0  0  0  0  0  0  0  0  0  0
  -18.5240  -44.9671   -7.2205 C   0  0  0  0  0  0  0  0  0  0  0  0
  -17.6436  -45.3612   -8.1819 C   0  0  0  0  0  0  0  0  0  0  0  0
  -16.8278  -44.4603   -8.9231 C   0  0  0  0  0  0  0  0  0  0  0  0
  -16.9331  -43.1133   -8.6524 C   0  0  0  0  0  0  0  0  0  0  0  0
  -17.8047  -42.6463   -7.6904 C   0  0  0  0  0  0  0  0  0  0  0  0
  -18.5818  -43.6260   -7.0004 C   0  0  0  0  0  0  0  0  0  0  0  0
  -18.1062  -41.2909   -7.2128 C   0  0  0  0  0  0  0  0  0  0  0  0
  -19.3774  -41.0805   -6.8526 O   0  0  0  0  0  0  0  0  0  0  0  0
  -17.3989  -40.0985   -7.0158 N   0  0  0  0  0  0  0  0  0  0  0  0
  -16.6293  -39.2886   -7.9645 C   0  0  1  0  0  0  0  0  0  0  0  0
  -15.1860  -39.3202   -7.6052 C   0  0  0  0  0  0  0  0  0  0  0  0
  -14.2250  -39.5794   -8.7144 C   0  0  0  0  0  0  0  0  0  0  0  0
  -13.7588  -40.7465   -9.2429 C   0  0  0  0  0  0  0  0  0  0  0  0
  -12.8406  -40.6833  -10.2794 C   0  0  0  0  0  0  0  0  0  0  0  0
  -12.2290  -41.6934  -10.9686 O   0  0  0  0  0  0  0  0  0  0  0  0
  -12.1334  -42.9593  -11.3477 C   0  0  0  0  0  0  0  0  0  0  0  0
  -13.2408  -43.9634  -11.0773 C   0  0  0  0  0  0  0  0  0  0  0  0
  -14.4718  -44.0078  -11.4282 C   0  0  0  0  0  0  0  0  0  0  0  0
  -15.6181  -44.9691  -11.1972 C   0  0  0  0  0  0  0  0  0  0  0  0
  -16.0196  -45.1978   -9.8372 N   0  0  0  0  0  0  0  0  0  0  0  0
  -12.4150  -39.4182  -10.7587 C   0  0  0  0  0  0  0  0  0  0  0  0
  -11.4932  -39.3074  -11.7905 F   0  0  0  0  0  0  0  0  0  0  0  0
  -12.8637  -38.2264  -10.2511 C   0  0  0  0  0  0  0  0  0  0  0  0
  -13.7671  -38.3401   -9.2309 C   0  0  0  0  0  0  0  0  0  0  0  0
  -17.0357  -39.4096   -9.3755 C   0  0  2  0  0  0  0  0  0  0  0  0
  -16.2021  -38.6409  -10.1884 O   0  0  0  0  0  0  0  0  0  0  0  0
  -18.4436  -38.7691   -9.4682 C   0  0  0  0  0  0  0  0  0  0  0  0
  -18.9896  -38.5482   -8.1746 N   0  0  0  0  0  0  0  0  0  0  0  0
  -20.2279  -37.8017   -8.1714 C   0  0  0  0  0  0  0  0  0  0  0  0
  -20.2825  -36.7361   -9.2644 C   0  0  0  0  0  0  0  0  0  0  0  0
  -20.1780  -36.3636   -7.8009 C   0  0  0  0  0  0  0  0  0  0  0  0
  -21.4806  -38.4801   -7.8184 C   0  0  0  0  0  0  0  0  0  0  0  0
  -21.5521  -39.4181   -6.8033 C   0  0  0  0  0  0  0  0  0  0  0  0
  -22.7050  -40.0703   -6.4510 C   0  0  0  0  0  0  0  0  0  0  0  0
  -23.8554  -39.7742   -7.1476 C   0  0  0  0  0  0  0  0  0  0  0  0
  -23.8649  -38.8596   -8.1630 C   0  0  0  0  0  0  0  0  0  0  0  0
  -22.6562  -38.2214   -8.4819 C   0  0  0  0  0  0  0  0  0  0  0  0
  -22.7474  -41.0702   -5.3577 C   0  0  0  0  0  0  0  0  0  0  0  0
  -21.5055  -41.0290   -4.5032 C   0  0  0  0  0  0  0  0  0  0  0  0
  -23.9263  -40.7086   -4.4687 C   0  0  0  0  0  0  0  0  0  0  0  0
  -23.0010  -42.4763   -5.8678 C   0  0  0  0  0  0  0  0  0  0  0  0
  1  2  1  0
  2  3  1  0
  2  4  1  0
  4  5  2  0
  4  6  1  0
  6  7  2  0
  7  8  1  0
  8  9  2  0
  9 10  1  0
 10 11  2  0
 10 12  1  0
 12 13  2  0
 12 14  1  0
 14 15  1  0
 15 16  1  6
 16 17  1  0
 17 18  2  0
 18 19  1  0
 19 20  1  0
 20 21  1  0
 21 22  1  0
 22 23  2  0
 23 24  1  0
 24 25  1  0
 19 26  2  0
 26 27  1  0
 26 28  1  0
 28 29  2  0
 15 30  1  0
 30 31  1  6
 30 32  1  0
 32 33  1  0
 33 34  1  0
 34 35  1  0
 35 36  1  0
 34 37  1  0
 37 38  2  0
 38 39  1  0
 39 40  2  0
 40 41  1  0
 41 42  2  0
 39 43  1  0
 43 44  1  0
 43 45  1  0
 43 46  1  0
 11  6  1  0
 25  8  1  0
 29 17  1  0
 36 34  1  0
 42 37  1  0
M  END
$$$$
