
     RDKit          3D

 46 50  0  0  0  0  0  0  0  0999 V2000
  -20.0366  -48.3748   -8.9461 C   0  0  0  0  0  0  0  0  0  0  0  0
  -19.6786  -46.9845   -9.1325 N   0  0  0  0  0  0  0  0  0  0  0  0
  -20.6944  -46.0242   -9.5008 C   0  0  0  0  0  0  0  0  0  0  0  0
  -18.3515  -46.5567   -8.9590 C   0  0  0  0  0  0  0  0  0  0  0  0
  -17.4978  -47.3424   -8.4917 O   0  0  0  0  0  0  0  0  0  0  0  0
  -17.9097  -45.2023   -9.3066 C   0  0  0  0  0  0  0  0  0  0  0  0
  -16.9636  -44.9618  -10.2562 C   0  0  0  0  0  0  0  0  0  0  0  0
  -16.5204  -43.6580  -10.6172 C   0  0  0  0  0  0  0  0  0  0  0  0
  -17.0787  -42.5777   -9.9691 C   0  0  0  0  0  0  0  0  0  0  0  0
  -18.0419  -42.7506   -8.9966 C   0  0  0  0  0  0  0  0  0  0  0  0
  -18.4224  -44.0957   -8.7040 C   0  0  0  0  0  0  0  0  0  0  0  0
  -18.7838  -41.7923   -8.1676 C   0  0  0  0  0  0  0  0  0  0  0  0
  -20.0435  -42.1393   -7.8802 O   0  0  0  0  0  0  0  0  0  0  0  0
  -18.5274  -40.5569   -7.5604 N   0  0  0  0  0  0  0  0  0  0  0  0
  -18.0997  -39.2849   -8.1500 C   0  0  1  0  0  0  0  0  0  0  0  0
  -16.7281  -38.9452   -7.6846 C   0  0  0  0  0  0  0  0  0  0  0  0
  -15.7551  -38.5118   -8.7270 C   0  0  0  0  0  0  0  0  0  0  0  0
  -14.9243  -39.2319   -9.5332 C   0  0  0  0  0  0  0  0  0  0  0  0
  -14.1013  -38.5482  -10.4146 C   0  0  0  0  0  0  0  0  0  0  0  0
  -13.1906  -39.0301  -11.3133 O   0  0  0  0  0  0  0  0  0  0  0  0
  -12.6711  -40.0077  -12.0413 C   0  0  0  0  0  0  0  0  0  0  0  0
  -13.3602  -41.3539  -12.1851 C   0  0  0  0  0  0  0  0  0  0  0  0
  -14.5062  -41.6933  -12.6455 C   0  0  0  0  0  0  0  0  0  0  0  0
  -15.2472  -43.0020  -12.8179 C   0  0  0  0  0  0  0  0  0  0  0  0
  -15.5228  -43.7620  -11.6305 N   0  0  0  0  0  0  0  0  0  0  0  0
  -14.1455  -37.1313  -10.4545 C   0  0  0  0  0  0  0  0  0  0  0  0
  -13.3355  -36.4055  -11.3169 F   0  0  0  0  0  0  0  0  0  0  0  0
  -14.9688  -36.3769   -9.6592 C   0  0  0  0  0  0  0  0  0  0  0  0
  -15.7607  -37.0955   -8.8070 C   0  0  0  0  0  0  0  0  0  0  0  0
  -18.4628  -39.0890   -9.5644 C   0  0  2  0  0  0  0  0  0  0  0  0
  -18.3189  -37.7479   -9.9213 O   0  0  0  0  0  0  0  0  0  0  0  0
  -19.9768  -39.4041   -9.6616 C   0  0  0  0  0  0  0  0  0  0  0  0
  -20.7570  -38.2954   -9.2345 N   0  0  0  0  0  0  0  0  0  0  0  0
  -21.7681  -38.6224   -8.2539 C   0  0  0  0  0  0  0  0  0  0  0  0
  -23.1022  -39.0166   -8.8843 C   0  0  0  0  0  0  0  0  0  0  0  0
  -22.9391  -37.7166   -8.1263 C   0  0  0  0  0  0  0  0  0  0  0  0
  -21.3777  -39.2949   -7.0091 C   0  0  0  0  0  0  0  0  0  0  0  0
  -22.2432  -40.1202   -6.3125 C   0  0  0  0  0  0  0  0  0  0  0  0
  -21.9101  -40.7603   -5.1472 C   0  0  0  0  0  0  0  0  0  0  0  0
  -20.6428  -40.5702   -4.6431 C   0  0  0  0  0  0  0  0  0  0  0  0
  -19.7317  -39.7701   -5.2735 C   0  0  0  0  0  0  0  0  0  0  0  0
  -20.1259  -39.1389   -6.4634 C   0  0  0  0  0  0  0  0  0  0  0  0
  -22.8616  -41.6384   -4.4255 C   0  0  0  0  0  0  0  0  0  0  0  0
  -24.1441  -41.8371   -5.1936 C   0  0  0  0  0  0  0  0  0  0  0  0
  -22.1960  -42.9981   -4.2874 C   0  0  0  0  0  0  0  0  0  0  0  0
  -23.1493  -41.1487   -3.0187 C   0  0  0  0  0  0  0  0  0  0  0  0
  1  2  1  0
  2  3  1  0
  2  4  1  0
  4  5  2  0
  4  6  1  0
  6  7  2  0
  7  8  1  0
  8  9  2  0
  9 10  1  0
 10 11  2  0
 10 12  1  0
 12 13  2  0
 12 14  1  0
 14 15  1  0
 15 16  1  6
 16 17  1  0
 17 18  2  0
 18 19  1  0
 19 20  1  0
 20 21  1  0
 21 22  1  0
 22 23  2  0
 23 24  1  0
 24 25  1  0
 19 26  2  0
 26 27  1  0
 26 28  1  0
 28 29  2  0
 15 30  1  0
 30 31  1  1
 30 32  1  0
 32 33  1  0
 33 34  1  0
 34 35  1  0
 35 36  1  0
 34 37  1  0
 37 38  2  0
 38 39  1  0
 39 40  2  0
 40 41  1  0
 41 42  2  0
 39 43  1  0
 43 44  1  0
 43 45  1  0
 43 46  1  0
 11  6  1  0
 25  8  1  0
 29 17  1  0
 36 34  1  0
 42 37  1  0
M  END
$$$$
