
     RDKit          3D

 46 50  0  0  0  0  0  0  0  0999 V2000
  -19.0783  -46.1304  -11.5760 C   0  0  0  0  0  0  0  0  0  0  0  0
  -18.2403  -47.0642  -10.8538 N   0  0  0  0  0  0  0  0  0  0  0  0
  -17.9267  -48.3487  -11.4382 C   0  0  0  0  0  0  0  0  0  0  0  0
  -17.7269  -46.7354   -9.5878 C   0  0  0  0  0  0  0  0  0  0  0  0
  -16.8875  -47.4840   -9.0405 O   0  0  0  0  0  0  0  0  0  0  0  0
  -18.1378  -45.5300   -8.8610 C   0  0  0  0  0  0  0  0  0  0  0  0
  -18.9435  -45.5752   -7.7640 C   0  0  0  0  0  0  0  0  0  0  0  0
  -19.3531  -44.4220   -7.0366 C   0  0  0  0  0  0  0  0  0  0  0  0
  -18.9110  -43.1899   -7.4667 C   0  0  0  0  0  0  0  0  0  0  0  0
  -18.0929  -43.0726   -8.5714 C   0  0  0  0  0  0  0  0  0  0  0  0
  -17.7349  -44.2856   -9.2349 C   0  0  0  0  0  0  0  0  0  0  0  0
  -17.4927  -41.9054   -9.2297 C   0  0  0  0  0  0  0  0  0  0  0  0
  -16.2808  -42.1073   -9.7594 O   0  0  0  0  0  0  0  0  0  0  0  0
  -17.8538  -40.5746   -9.4735 N   0  0  0  0  0  0  0  0  0  0  0  0
  -18.2151  -39.5068   -8.5366 C   0  0  1  0  0  0  0  0  0  0  0  0
  -19.6444  -39.1356   -8.7164 C   0  0  0  0  0  0  0  0  0  0  0  0
  -20.4668  -39.0178   -7.4791 C   0  0  0  0  0  0  0  0  0  0  0  0
  -21.1623  -39.9533   -6.7720 C   0  0  0  0  0  0  0  0  0  0  0  0
  -21.8633  -39.5464   -5.6475 C   0  0  0  0  0  0  0  0  0  0  0  0
  -22.6287  -40.2775   -4.7822 O   0  0  0  0  0  0  0  0  0  0  0  0
  -23.0228  -41.4276   -4.2553 C   0  0  0  0  0  0  0  0  0  0  0  0
  -22.2974  -42.7313   -4.5413 C   0  0  0  0  0  0  0  0  0  0  0  0
  -21.0920  -43.1126   -4.3361 C   0  0  0  0  0  0  0  0  0  0  0  0
  -20.3118  -44.3843   -4.5925 C   0  0  0  0  0  0  0  0  0  0  0  0
  -20.1947  -44.8192   -5.9564 N   0  0  0  0  0  0  0  0  0  0  0  0
  -21.8381  -38.1808   -5.2655 C   0  0  0  0  0  0  0  0  0  0  0  0
  -22.5296  -37.7279   -4.1506 F   0  0  0  0  0  0  0  0  0  0  0  0
  -21.1490  -37.2152   -5.9526 C   0  0  0  0  0  0  0  0  0  0  0  0
  -20.4740  -37.6646   -7.0537 C   0  0  0  0  0  0  0  0  0  0  0  0
  -17.6581  -39.6404   -7.1792 C   0  0  2  0  0  0  0  0  0  0  0  0
  -18.2099  -38.6796   -6.3313 O   0  0  0  0  0  0  0  0  0  0  0  0
  -16.1521  -39.2972   -7.3025 C   0  0  0  0  0  0  0  0  0  0  0  0
  -15.4586  -40.3002   -8.0328 N   0  0  0  0  0  0  0  0  0  0  0  0
  -14.5537  -39.7862   -9.0366 C   0  0  0  0  0  0  0  0  0  0  0  0
  -13.2849  -40.6246   -9.1784 C   0  0  0  0  0  0  0  0  0  0  0  0
  -13.2505  -39.2317   -8.5869 C   0  0  0  0  0  0  0  0  0  0  0  0
  -15.0970  -39.1625  -10.2490 C   0  0  0  0  0  0  0  0  0  0  0  0
  -16.4391  -39.2347  -10.5790 C   0  0  0  0  0  0  0  0  0  0  0  0
  -16.9768  -38.6654  -11.7040 C   0  0  0  0  0  0  0  0  0  0  0  0
  -16.1325  -37.9839  -12.5519 C   0  0  0  0  0  0  0  0  0  0  0  0
  -14.7952  -37.8691  -12.2943 C   0  0  0  0  0  0  0  0  0  0  0  0
  -14.2980  -38.4714  -11.1283 C   0  0  0  0  0  0  0  0  0  0  0  0
  -18.4200  -38.7613  -12.0283 C   0  0  0  0  0  0  0  0  0  0  0  0
  -18.9954  -40.1060  -11.6611 C   0  0  0  0  0  0  0  0  0  0  0  0
  -19.1353  -37.7137  -11.1907 C   0  0  0  0  0  0  0  0  0  0  0  0
  -18.7107  -38.4319  -13.4803 C   0  0  0  0  0  0  0  0  0  0  0  0
  1  2  1  0
  2  3  1  0
  2  4  1  0
  4  5  2  0
  4  6  1  0
  6  7  2  0
  7  8  1  0
  8  9  2  0
  9 10  1  0
 10 11  2  0
 10 12  1  0
 12 13  2  0
 12 14  1  0
 14 15  1  0
 15 16  1  1
 16 17  1  0
 17 18  2  0
 18 19  1  0
 19 20  1  0
 20 21  1  0
 21 22  1  0
 22 23  2  0
 23 24  1  0
 24 25  1  0
 19 26  2  0
 26 27  1  0
 26 28  1  0
 28 29  2  0
 15 30  1  0
 30 31  1  1
 30 32  1  0
 32 33  1  0
 33 34  1  0
 34 35  1  0
 35 36  1  0
 34 37  1  0
 37 38  2  0
 38 39  1  0
 39 40  2  0
 40 41  1  0
 41 42  2  0
 39 43  1  0
 43 44  1  0
 43 45  1  0
 43 46  1  0
 11  6  1  0
 25  8  1  0
 29 17  1  0
 36 34  1  0
 42 37  1  0
M  END
$$$$
