
     RDKit          3D

 46 50  0  0  0  0  0  0  0  0999 V2000
  -15.5334  -33.2068  -13.8799 C   0  0  0  0  0  0  0  0  0  0  0  0
  -15.6349  -34.5465  -13.3409 N   0  0  0  0  0  0  0  0  0  0  0  0
  -16.7517  -35.3869  -13.7103 C   0  0  0  0  0  0  0  0  0  0  0  0
  -14.6578  -35.0408  -12.4604 C   0  0  0  0  0  0  0  0  0  0  0  0
  -13.7116  -34.3059  -12.1009 O   0  0  0  0  0  0  0  0  0  0  0  0
  -14.6946  -36.4080  -11.9315 C   0  0  0  0  0  0  0  0  0  0  0  0
  -13.7625  -37.3453  -12.2591 C   0  0  0  0  0  0  0  0  0  0  0  0
  -13.7710  -38.6772  -11.7564 C   0  0  0  0  0  0  0  0  0  0  0  0
  -14.7796  -39.0399  -10.8904 C   0  0  0  0  0  0  0  0  0  0  0  0
  -15.7562  -38.1396  -10.5177 C   0  0  0  0  0  0  0  0  0  0  0  0
  -15.6631  -36.8272  -11.0731 C   0  0  0  0  0  0  0  0  0  0  0  0
  -16.9194  -38.2637   -9.6301 C   0  0  0  0  0  0  0  0  0  0  0  0
  -17.2296  -37.1629   -8.9359 O   0  0  0  0  0  0  0  0  0  0  0  0
  -17.8430  -39.2608   -9.2933 N   0  0  0  0  0  0  0  0  0  0  0  0
  -17.6276  -40.5979   -8.7329 C   0  0  1  0  0  0  0  0  0  0  0  0
  -18.0134  -41.6339   -9.7284 C   0  0  0  0  0  0  0  0  0  0  0  0
  -17.0497  -42.7508   -9.9406 C   0  0  0  0  0  0  0  0  0  0  0  0
  -15.9710  -42.8598  -10.7673 C   0  0  0  0  0  0  0  0  0  0  0  0
  -15.2536  -44.0459  -10.7659 C   0  0  0  0  0  0  0  0  0  0  0  0
  -14.1515  -44.4020  -11.4924 O   0  0  0  0  0  0  0  0  0  0  0  0
  -13.1035  -44.1069  -12.2475 C   0  0  0  0  0  0  0  0  0  0  0  0
  -12.6334  -42.6757  -12.4431 C   0  0  0  0  0  0  0  0  0  0  0  0
  -12.2264  -41.7800  -11.6230 C   0  0  0  0  0  0  0  0  0  0  0  0
  -11.7470  -40.3497  -11.7492 C   0  0  0  0  0  0  0  0  0  0  0  0
  -12.6667  -39.3951  -12.3023 N   0  0  0  0  0  0  0  0  0  0  0  0
  -15.6564  -45.1044   -9.9123 C   0  0  0  0  0  0  0  0  0  0  0  0
  -14.9714  -46.3111   -9.8823 F   0  0  0  0  0  0  0  0  0  0  0  0
  -16.7345  -45.0281   -9.0689 C   0  0  0  0  0  0  0  0  0  0  0  0
  -17.4100  -43.8397   -9.1060 C   0  0  0  0  0  0  0  0  0  0  0  0
  -16.3937  -40.7628   -7.9448 C   0  0  2  0  0  0  0  0  0  0  0  0
  -16.2839  -42.0749   -7.4836 O   0  0  0  0  0  0  0  0  0  0  0  0
  -16.5709  -39.8741   -6.6878 C   0  0  0  0  0  0  0  0  0  0  0  0
  -17.9186  -39.8920   -6.2365 N   0  0  0  0  0  0  0  0  0  0  0  0
  -18.6642  -38.6915   -6.5428 C   0  0  0  0  0  0  0  0  0  0  0  0
  -17.7677  -37.4743   -6.7608 C   0  0  0  0  0  0  0  0  0  0  0  0
  -18.6611  -37.5910   -5.5444 C   0  0  0  0  0  0  0  0  0  0  0  0
  -19.8907  -38.7863   -7.3434 C   0  0  0  0  0  0  0  0  0  0  0  0
  -20.7005  -39.9084   -7.3244 C   0  0  0  0  0  0  0  0  0  0  0  0
  -21.8498  -40.0287   -8.0614 C   0  0  0  0  0  0  0  0  0  0  0  0
  -22.2175  -38.9727   -8.8650 C   0  0  0  0  0  0  0  0  0  0  0  0
  -21.4698  -37.8310   -8.9375 C   0  0  0  0  0  0  0  0  0  0  0  0
  -20.3024  -37.7615   -8.1617 C   0  0  0  0  0  0  0  0  0  0  0  0
  -22.6954  -41.2454   -8.0179 C   0  0  0  0  0  0  0  0  0  0  0  0
  -21.8944  -42.4812   -7.6931 C   0  0  0  0  0  0  0  0  0  0  0  0
  -23.7042  -41.0470   -6.8983 C   0  0  0  0  0  0  0  0  0  0  0  0
  -23.4926  -41.4430   -9.2935 C   0  0  0  0  0  0  0  0  0  0  0  0
  1  2  1  0
  2  3  1  0
  2  4  1  0
  4  5  2  0
  4  6  1  0
  6  7  2  0
  7  8  1  0
  8  9  2  0
  9 10  1  0
 10 11  2  0
 10 12  1  0
 12 13  2  0
 12 14  1  0
 14 15  1  0
 15 16  1  6
 16 17  1  0
 17 18  2  0
 18 19  1  0
 19 20  1  0
 20 21  1  0
 21 22  1  0
 22 23  2  0
 23 24  1  0
 24 25  1  0
 19 26  2  0
 26 27  1  0
 26 28  1  0
 28 29  2  0
 15 30  1  0
 30 31  1  1
 30 32  1  0
 32 33  1  0
 33 34  1  0
 34 35  1  0
 35 36  1  0
 34 37  1  0
 37 38  2  0
 38 39  1  0
 39 40  2  0
 40 41  1  0
 41 42  2  0
 39 43  1  0
 43 44  1  0
 43 45  1  0
 43 46  1  0
 11  6  1  0
 25  8  1  0
 29 17  1  0
 36 34  1  0
 42 37  1  0
M  END
$$$$
