
     RDKit          3D

 46 50  0  0  0  0  0  0  0  0999 V2000
  -25.1092  -40.0669  -10.0704 C   0  0  0  0  0  0  0  0  0  0  0  0
  -23.6869  -40.2714   -9.8941 N   0  0  0  0  0  0  0  0  0  0  0  0
  -23.1603  -40.5624   -8.5796 C   0  0  0  0  0  0  0  0  0  0  0  0
  -22.8100  -40.1902  -10.9890 C   0  0  0  0  0  0  0  0  0  0  0  0
  -23.1837  -40.5760  -12.1186 O   0  0  0  0  0  0  0  0  0  0  0  0
  -21.4467  -39.6637  -10.8677 C   0  0  0  0  0  0  0  0  0  0  0  0
  -21.1602  -38.3380  -10.9900 C   0  0  0  0  0  0  0  0  0  0  0  0
  -19.8477  -37.7993  -10.8714 C   0  0  0  0  0  0  0  0  0  0  0  0
  -18.8078  -38.6676  -10.6200 C   0  0  0  0  0  0  0  0  0  0  0  0
  -19.0282  -40.0228  -10.4854 C   0  0  0  0  0  0  0  0  0  0  0  0
  -20.3784  -40.4685  -10.6196 C   0  0  0  0  0  0  0  0  0  0  0  0
  -18.1181  -41.1447  -10.2225 C   0  0  0  0  0  0  0  0  0  0  0  0
  -18.6284  -42.1338   -9.4800 O   0  0  0  0  0  0  0  0  0  0  0  0
  -16.8008  -41.4875  -10.5511 N   0  0  0  0  0  0  0  0  0  0  0  0
  -15.5461  -40.7763  -10.2897 C   0  0  1  0  0  0  0  0  0  0  0  0
  -14.9462  -40.3170  -11.5713 C   0  0  0  0  0  0  0  0  0  0  0  0
  -14.4758  -38.9038  -11.6223 C   0  0  0  0  0  0  0  0  0  0  0  0
  -15.1355  -37.7491  -11.9228 C   0  0  0  0  0  0  0  0  0  0  0  0
  -14.4262  -36.5583  -11.9060 C   0  0  0  0  0  0  0  0  0  0  0  0
  -14.8492  -35.2848  -12.1681 O   0  0  0  0  0  0  0  0  0  0  0  0
  -15.8030  -34.3781  -12.3220 C   0  0  0  0  0  0  0  0  0  0  0  0
  -17.2489  -34.6646  -11.9550 C   0  0  0  0  0  0  0  0  0  0  0  0
  -17.8122  -34.9908  -10.8520 C   0  0  0  0  0  0  0  0  0  0  0  0
  -19.2327  -35.2869  -10.4204 C   0  0  0  0  0  0  0  0  0  0  0  0
  -19.8979  -36.3871  -11.0609 N   0  0  0  0  0  0  0  0  0  0  0  0
  -13.0463  -36.5723  -11.5789 C   0  0  0  0  0  0  0  0  0  0  0  0
  -12.2959  -35.4050  -11.5553 F   0  0  0  0  0  0  0  0  0  0  0  0
  -12.3529  -37.7141  -11.2711 C   0  0  0  0  0  0  0  0  0  0  0  0
  -13.0946  -38.8625  -11.3014 C   0  0  0  0  0  0  0  0  0  0  0  0
  -15.5597  -39.8764   -9.1233 C   0  0  2  0  0  0  0  0  0  0  0  0
  -14.4154  -40.0685   -8.3486 O   0  0  0  0  0  0  0  0  0  0  0  0
  -16.7565  -40.3311   -8.2503 C   0  0  0  0  0  0  0  0  0  0  0  0
  -16.3135  -41.0903   -7.1333 N   0  0  0  0  0  0  0  0  0  0  0  0
  -17.3010  -42.0067   -6.6080 C   0  0  0  0  0  0  0  0  0  0  0  0
  -16.9083  -42.5908   -5.2525 C   0  0  0  0  0  0  0  0  0  0  0  0
  -16.9372  -43.4436   -6.5028 C   0  0  0  0  0  0  0  0  0  0  0  0
  -18.7257  -41.7538   -6.8538 C   0  0  0  0  0  0  0  0  0  0  0  0
  -19.6310  -41.5653   -5.8242 C   0  0  0  0  0  0  0  0  0  0  0  0
  -20.9669  -41.3297   -6.0204 C   0  0  0  0  0  0  0  0  0  0  0  0
  -21.4321  -41.2780   -7.3154 C   0  0  0  0  0  0  0  0  0  0  0  0
  -20.6000  -41.4544   -8.3851 C   0  0  0  0  0  0  0  0  0  0  0  0
  -19.2413  -41.6927   -8.1265 C   0  0  0  0  0  0  0  0  0  0  0  0
  -21.9104  -41.1317   -4.8944 C   0  0  0  0  0  0  0  0  0  0  0  0
  -21.2479  -41.3416   -3.5560 C   0  0  0  0  0  0  0  0  0  0  0  0
  -22.3761  -39.6858   -4.9525 C   0  0  0  0  0  0  0  0  0  0  0  0
  -23.1515  -41.9951   -5.0198 C   0  0  0  0  0  0  0  0  0  0  0  0
  1  2  1  0
  2  3  1  0
  2  4  1  0
  4  5  2  0
  4  6  1  0
  6  7  2  0
  7  8  1  0
  8  9  2  0
  9 10  1  0
 10 11  2  0
 10 12  1  0
 12 13  2  0
 12 14  1  0
 14 15  1  0
 15 16  1  6
 16 17  1  0
 17 18  2  0
 18 19  1  0
 19 20  1  0
 20 21  1  0
 21 22  1  0
 22 23  2  0
 23 24  1  0
 24 25  1  0
 19 26  2  0
 26 27  1  0
 26 28  1  0
 28 29  2  0
 15 30  1  0
 30 31  1  1
 30 32  1  0
 32 33  1  0
 33 34  1  0
 34 35  1  0
 35 36  1  0
 34 37  1  0
 37 38  2  0
 38 39  1  0
 39 40  2  0
 40 41  1  0
 41 42  2  0
 39 43  1  0
 43 44  1  0
 43 45  1  0
 43 46  1  0
 11  6  1  0
 25  8  1  0
 29 17  1  0
 36 34  1  0
 42 37  1  0
M  END
$$$$
