
     RDKit          3D

 46 50  0  0  0  0  0  0  0  0999 V2000
  -21.3559  -44.8231   -6.4416 C   0  0  0  0  0  0  0  0  0  0  0  0
  -21.5747  -44.3750   -5.0826 N   0  0  0  0  0  0  0  0  0  0  0  0
  -22.4082  -45.1537   -4.1946 C   0  0  0  0  0  0  0  0  0  0  0  0
  -20.9845  -43.1885   -4.6154 C   0  0  0  0  0  0  0  0  0  0  0  0
  -21.1667  -42.8236   -3.4330 O   0  0  0  0  0  0  0  0  0  0  0  0
  -20.1469  -42.3381   -5.4672 C   0  0  0  0  0  0  0  0  0  0  0  0
  -18.8840  -41.9680   -5.1167 C   0  0  0  0  0  0  0  0  0  0  0  0
  -18.0475  -41.1485   -5.9263 C   0  0  0  0  0  0  0  0  0  0  0  0
  -18.5432  -40.7030   -7.1323 C   0  0  0  0  0  0  0  0  0  0  0  0
  -19.8148  -41.0403   -7.5480 C   0  0  0  0  0  0  0  0  0  0  0  0
  -20.5779  -41.8670   -6.6683 C   0  0  0  0  0  0  0  0  0  0  0  0
  -20.5727  -40.7065   -8.7605 C   0  0  0  0  0  0  0  0  0  0  0  0
  -21.3952  -41.6643   -9.2032 O   0  0  0  0  0  0  0  0  0  0  0  0
  -20.6835  -39.6097   -9.6240 N   0  0  0  0  0  0  0  0  0  0  0  0
  -19.6588  -38.9234  -10.4160 C   0  0  1  0  0  0  0  0  0  0  0  0
  -19.4636  -37.5401   -9.9046 C   0  0  0  0  0  0  0  0  0  0  0  0
  -18.0566  -37.0951   -9.6961 C   0  0  0  0  0  0  0  0  0  0  0  0
  -17.2216  -37.2324   -8.6271 C   0  0  0  0  0  0  0  0  0  0  0  0
  -15.9468  -36.6942   -8.7099 C   0  0  0  0  0  0  0  0  0  0  0  0
  -14.9359  -36.6949   -7.7895 O   0  0  0  0  0  0  0  0  0  0  0  0
  -14.3566  -37.1532   -6.6895 C   0  0  0  0  0  0  0  0  0  0  0  0
  -14.8493  -38.4061   -5.9858 C   0  0  0  0  0  0  0  0  0  0  0  0
  -14.9637  -39.6233   -6.3675 C   0  0  0  0  0  0  0  0  0  0  0  0
  -15.4408  -40.9079   -5.7243 C   0  0  0  0  0  0  0  0  0  0  0  0
  -16.8010  -40.9464   -5.2644 N   0  0  0  0  0  0  0  0  0  0  0  0
  -15.5484  -36.0221   -9.8935 C   0  0  0  0  0  0  0  0  0  0  0  0
  -14.2842  -35.4632  -10.0183 F   0  0  0  0  0  0  0  0  0  0  0  0
  -16.3618  -35.8670  -10.9862 C   0  0  0  0  0  0  0  0  0  0  0  0
  -17.6084  -36.4139  -10.8568 C   0  0  0  0  0  0  0  0  0  0  0  0
  -18.4889  -39.7407  -10.7823 C   0  0  2  0  0  0  0  0  0  0  0  0
  -17.6886  -39.0593  -11.6997 O   0  0  0  0  0  0  0  0  0  0  0  0
  -19.0514  -40.9759  -11.5300 C   0  0  0  0  0  0  0  0  0  0  0  0
  -19.7244  -40.5885  -12.7205 N   0  0  0  0  0  0  0  0  0  0  0  0
  -21.1556  -40.4436  -12.5741 C   0  0  0  0  0  0  0  0  0  0  0  0
  -21.8062  -39.7372  -13.7618 C   0  0  0  0  0  0  0  0  0  0  0  0
  -21.7075  -39.0745  -12.4044 C   0  0  0  0  0  0  0  0  0  0  0  0
  -21.9248  -41.4994  -11.9048 C   0  0  0  0  0  0  0  0  0  0  0  0
  -22.8990  -41.2193  -10.9626 C   0  0  0  0  0  0  0  0  0  0  0  0
  -23.6324  -42.1817  -10.3186 C   0  0  0  0  0  0  0  0  0  0  0  0
  -23.3843  -43.5004  -10.6280 C   0  0  0  0  0  0  0  0  0  0  0  0
  -22.4382  -43.8565  -11.5477 C   0  0  0  0  0  0  0  0  0  0  0  0
  -21.7164  -42.8305  -12.1769 C   0  0  0  0  0  0  0  0  0  0  0  0
  -24.6696  -41.8475   -9.3138 C   0  0  0  0  0  0  0  0  0  0  0  0
  -25.7994  -41.0461   -9.9101 C   0  0  0  0  0  0  0  0  0  0  0  0
  -25.2521  -43.1622   -8.8208 C   0  0  0  0  0  0  0  0  0  0  0  0
  -24.0945  -41.1426   -8.0997 C   0  0  0  0  0  0  0  0  0  0  0  0
  1  2  1  0
  2  3  1  0
  2  4  1  0
  4  5  2  0
  4  6  1  0
  6  7  2  0
  7  8  1  0
  8  9  2  0
  9 10  1  0
 10 11  2  0
 10 12  1  0
 12 13  2  0
 12 14  1  0
 14 15  1  0
 15 16  1  1
 16 17  1  0
 17 18  2  0
 18 19  1  0
 19 20  1  0
 20 21  1  0
 21 22  1  0
 22 23  2  0
 23 24  1  0
 24 25  1  0
 19 26  2  0
 26 27  1  0
 26 28  1  0
 28 29  2  0
 15 30  1  0
 30 31  1  6
 30 32  1  0
 32 33  1  0
 33 34  1  0
 34 35  1  0
 35 36  1  0
 34 37  1  0
 37 38  2  0
 38 39  1  0
 39 40  2  0
 40 41  1  0
 41 42  2  0
 39 43  1  0
 43 44  1  0
 43 45  1  0
 43 46  1  0
 11  6  1  0
 25  8  1  0
 29 17  1  0
 36 34  1  0
 42 37  1  0
M  END
$$$$
