
     RDKit          3D

 46 50  0  0  0  0  0  0  0  0999 V2000
  -18.2602  -48.3166  -12.0100 C   0  0  0  0  0  0  0  0  0  0  0  0
  -18.4769  -47.0458  -11.3514 N   0  0  0  0  0  0  0  0  0  0  0  0
  -19.1265  -45.9687  -12.0640 C   0  0  0  0  0  0  0  0  0  0  0  0
  -18.0620  -46.8466  -10.0238 C   0  0  0  0  0  0  0  0  0  0  0  0
  -17.2886  -47.6664   -9.4813 O   0  0  0  0  0  0  0  0  0  0  0  0
  -18.5030  -45.6982   -9.2256 C   0  0  0  0  0  0  0  0  0  0  0  0
  -19.2150  -45.8376   -8.0731 C   0  0  0  0  0  0  0  0  0  0  0  0
  -19.6507  -44.7412   -7.2763 C   0  0  0  0  0  0  0  0  0  0  0  0
  -19.3357  -43.4666   -7.6946 C   0  0  0  0  0  0  0  0  0  0  0  0
  -18.6172  -43.2544   -8.8530 C   0  0  0  0  0  0  0  0  0  0  0  0
  -18.2235  -44.4162   -9.5844 C   0  0  0  0  0  0  0  0  0  0  0  0
  -18.1581  -42.0256   -9.5130 C   0  0  0  0  0  0  0  0  0  0  0  0
  -16.9796  -42.1185  -10.1395 O   0  0  0  0  0  0  0  0  0  0  0  0
  -18.6344  -40.7197   -9.6813 N   0  0  0  0  0  0  0  0  0  0  0  0
  -18.9994  -39.7109   -8.6825 C   0  0  1  0  0  0  0  0  0  0  0  0
  -20.4619  -39.4448   -8.7405 C   0  0  0  0  0  0  0  0  0  0  0  0
  -21.1917  -39.4270   -7.4412 C   0  0  0  0  0  0  0  0  0  0  0  0
  -21.7589  -40.4335   -6.7172 C   0  0  0  0  0  0  0  0  0  0  0  0
  -22.3981  -40.1150   -5.5292 C   0  0  0  0  0  0  0  0  0  0  0  0
  -23.0376  -40.9279   -4.6350 O   0  0  0  0  0  0  0  0  0  0  0  0
  -23.3034  -42.1199   -4.1211 C   0  0  0  0  0  0  0  0  0  0  0  0
  -22.5082  -43.3553   -4.5072 C   0  0  0  0  0  0  0  0  0  0  0  0
  -21.2656  -43.6493   -4.4074 C   0  0  0  0  0  0  0  0  0  0  0  0
  -20.4159  -44.8495   -4.7670 C   0  0  0  0  0  0  0  0  0  0  0  0
  -20.3738  -45.2334   -6.1505 N   0  0  0  0  0  0  0  0  0  0  0  0
  -22.4442  -38.7635   -5.1019 C   0  0  0  0  0  0  0  0  0  0  0  0
  -23.0781  -38.3980   -3.9225 F   0  0  0  0  0  0  0  0  0  0  0  0
  -21.8841  -37.7280   -5.8044 C   0  0  0  0  0  0  0  0  0  0  0  0
  -21.2657  -38.0916   -6.9686 C   0  0  0  0  0  0  0  0  0  0  0  0
  -18.3299  -39.8419   -7.3766 C   0  0  2  0  0  0  0  0  0  0  0  0
  -19.0360  -39.1434   -6.3968 O   0  0  0  0  0  0  0  0  0  0  0  0
  -16.9657  -39.1223   -7.5248 C   0  0  0  0  0  0  0  0  0  0  0  0
  -16.8188  -38.5707   -8.8266 N   0  0  0  0  0  0  0  0  0  0  0  0
  -15.5703  -38.9031   -9.4758 C   0  0  0  0  0  0  0  0  0  0  0  0
  -14.9245  -40.1667   -8.9109 C   0  0  0  0  0  0  0  0  0  0  0  0
  -14.3185  -38.7985   -8.6822 C   0  0  0  0  0  0  0  0  0  0  0  0
  -15.4080  -38.6381  -10.9103 C   0  0  0  0  0  0  0  0  0  0  0  0
  -14.4201  -39.2445  -11.6664 C   0  0  0  0  0  0  0  0  0  0  0  0
  -14.2410  -39.0167  -13.0061 C   0  0  0  0  0  0  0  0  0  0  0  0
  -15.0929  -38.1347  -13.6327 C   0  0  0  0  0  0  0  0  0  0  0  0
  -16.0927  -37.4967  -12.9537 C   0  0  0  0  0  0  0  0  0  0  0  0
  -16.2308  -37.7669  -11.5835 C   0  0  0  0  0  0  0  0  0  0  0  0
  -13.1722  -39.6834  -13.7873 C   0  0  0  0  0  0  0  0  0  0  0  0
  -13.1771  -41.1789  -13.5935 C   0  0  0  0  0  0  0  0  0  0  0  0
  -13.4580  -39.4116  -15.2554 C   0  0  0  0  0  0  0  0  0  0  0  0
  -11.7982  -39.1095  -13.4969 C   0  0  0  0  0  0  0  0  0  0  0  0
  1  2  1  0
  2  3  1  0
  2  4  1  0
  4  5  2  0
  4  6  1  0
  6  7  2  0
  7  8  1  0
  8  9  2  0
  9 10  1  0
 10 11  2  0
 10 12  1  0
 12 13  2  0
 12 14  1  0
 14 15  1  0
 15 16  1  1
 16 17  1  0
 17 18  2  0
 18 19  1  0
 19 20  1  0
 20 21  1  0
 21 22  1  0
 22 23  2  0
 23 24  1  0
 24 25  1  0
 19 26  2  0
 26 27  1  0
 26 28  1  0
 28 29  2  0
 15 30  1  0
 30 31  1  1
 30 32  1  0
 32 33  1  0
 33 34  1  0
 34 35  1  0
 35 36  1  0
 34 37  1  0
 37 38  2  0
 38 39  1  0
 39 40  2  0
 40 41  1  0
 41 42  2  0
 39 43  1  0
 43 44  1  0
 43 45  1  0
 43 46  1  0
 11  6  1  0
 25  8  1  0
 29 17  1  0
 36 34  1  0
 42 37  1  0
M  END
$$$$
