
     RDKit          3D

 46 50  0  0  0  0  0  0  0  0999 V2000
  -19.5470  -48.4063   -8.3125 C   0  0  0  0  0  0  0  0  0  0  0  0
  -19.1097  -47.1074   -8.7788 N   0  0  0  0  0  0  0  0  0  0  0  0
  -19.9615  -46.3342   -9.6542 C   0  0  0  0  0  0  0  0  0  0  0  0
  -17.8635  -46.5883   -8.3892 C   0  0  0  0  0  0  0  0  0  0  0  0
  -17.1096  -47.2606   -7.6517 O   0  0  0  0  0  0  0  0  0  0  0  0
  -17.3943  -45.2658   -8.8150 C   0  0  0  0  0  0  0  0  0  0  0  0
  -16.4641  -45.0995   -9.7956 C   0  0  0  0  0  0  0  0  0  0  0  0
  -15.9952  -43.8282  -10.2322 C   0  0  0  0  0  0  0  0  0  0  0  0
  -16.5100  -42.7017   -9.6282 C   0  0  0  0  0  0  0  0  0  0  0  0
  -17.4549  -42.7989   -8.6277 C   0  0  0  0  0  0  0  0  0  0  0  0
  -17.8638  -44.1166   -8.2587 C   0  0  0  0  0  0  0  0  0  0  0  0
  -18.1523  -41.7800   -7.8330 C   0  0  0  0  0  0  0  0  0  0  0  0
  -19.4138  -42.0774   -7.5012 O   0  0  0  0  0  0  0  0  0  0  0  0
  -17.8497  -40.5230   -7.2953 N   0  0  0  0  0  0  0  0  0  0  0  0
  -17.4023  -39.2946   -7.9581 C   0  0  1  0  0  0  0  0  0  0  0  0
  -16.0120  -38.9696   -7.5402 C   0  0  0  0  0  0  0  0  0  0  0  0
  -15.0520  -38.6161   -8.6240 C   0  0  0  0  0  0  0  0  0  0  0  0
  -14.2590  -39.3984   -9.4100 C   0  0  0  0  0  0  0  0  0  0  0  0
  -13.4386  -38.7829  -10.3426 C   0  0  0  0  0  0  0  0  0  0  0  0
  -12.5617  -39.3343  -11.2349 O   0  0  0  0  0  0  0  0  0  0  0  0
  -12.0849  -40.3613  -11.9230 C   0  0  0  0  0  0  0  0  0  0  0  0
  -12.8122  -41.6936  -11.9832 C   0  0  0  0  0  0  0  0  0  0  0  0
  -13.9769  -42.0243  -12.4009 C   0  0  0  0  0  0  0  0  0  0  0  0
  -14.7558  -43.3192  -12.4903 C   0  0  0  0  0  0  0  0  0  0  0  0
  -15.0241  -44.0105  -11.2600 N   0  0  0  0  0  0  0  0  0  0  0  0
  -13.4465  -37.3691  -10.4539 C   0  0  0  0  0  0  0  0  0  0  0  0
  -12.6376  -36.7103  -11.3694 F   0  0  0  0  0  0  0  0  0  0  0  0
  -14.2313  -36.5533   -9.6806 C   0  0  0  0  0  0  0  0  0  0  0  0
  -15.0222  -37.2061   -8.7760 C   0  0  0  0  0  0  0  0  0  0  0  0
  -17.7923  -39.1604   -9.3725 C   0  0  2  0  0  0  0  0  0  0  0  0
  -17.5109  -37.8741   -9.8337 O   0  0  0  0  0  0  0  0  0  0  0  0
  -19.3348  -39.3048   -9.4031 C   0  0  0  0  0  0  0  0  0  0  0  0
  -19.7286  -40.6353   -9.0945 N   0  0  0  0  0  0  0  0  0  0  0  0
  -20.0728  -40.8466   -7.7061 C   0  0  0  0  0  0  0  0  0  0  0  0
  -18.8731  -40.7167   -6.7698 C   0  0  0  0  0  0  0  0  0  0  0  0
  -19.5347  -42.0537   -7.0269 C   0  0  0  0  0  0  0  0  0  0  0  0
  -21.3777  -40.3960   -7.2077 C   0  0  0  0  0  0  0  0  0  0  0  0
  -21.7753  -40.5914   -5.8965 C   0  0  0  0  0  0  0  0  0  0  0  0
  -22.9870  -40.1850   -5.4013 C   0  0  0  0  0  0  0  0  0  0  0  0
  -23.8558  -39.5466   -6.2580 C   0  0  0  0  0  0  0  0  0  0  0  0
  -23.5352  -39.3172   -7.5666 C   0  0  0  0  0  0  0  0  0  0  0  0
  -22.2814  -39.7546   -8.0208 C   0  0  0  0  0  0  0  0  0  0  0  0
  -23.3822  -40.4098   -3.9904 C   0  0  0  0  0  0  0  0  0  0  0  0
  -22.4065  -39.7887   -3.0226 C   0  0  0  0  0  0  0  0  0  0  0  0
  -24.7244  -39.7251   -3.7893 C   0  0  0  0  0  0  0  0  0  0  0  0
  -23.5901  -41.8788   -3.6739 C   0  0  0  0  0  0  0  0  0  0  0  0
  1  2  1  0
  2  3  1  0
  2  4  1  0
  4  5  2  0
  4  6  1  0
  6  7  2  0
  7  8  1  0
  8  9  2  0
  9 10  1  0
 10 11  2  0
 10 12  1  0
 12 13  2  0
 12 14  1  0
 14 15  1  0
 15 16  1  6
 16 17  1  0
 17 18  2  0
 18 19  1  0
 19 20  1  0
 20 21  1  0
 21 22  1  0
 22 23  2  0
 23 24  1  0
 24 25  1  0
 19 26  2  0
 26 27  1  0
 26 28  1  0
 28 29  2  0
 15 30  1  0
 30 31  1  1
 30 32  1  0
 32 33  1  0
 33 34  1  0
 34 35  1  0
 35 36  1  0
 34 37  1  0
 37 38  2  0
 38 39  1  0
 39 40  2  0
 40 41  1  0
 41 42  2  0
 39 43  1  0
 43 44  1  0
 43 45  1  0
 43 46  1  0
 11  6  1  0
 25  8  1  0
 29 17  1  0
 36 34  1  0
 42 37  1  0
M  END
$$$$
