
     RDKit          3D

 46 50  0  0  0  0  0  0  0  0999 V2000
  -23.1455  -45.4228   -7.4650 C   0  0  0  0  0  0  0  0  0  0  0  0
  -22.0307  -44.4997   -7.4966 N   0  0  0  0  0  0  0  0  0  0  0  0
  -21.8688  -43.5320   -6.4350 C   0  0  0  0  0  0  0  0  0  0  0  0
  -21.1018  -44.5337   -8.5503 C   0  0  0  0  0  0  0  0  0  0  0  0
  -21.0213  -45.5466   -9.2798 O   0  0  0  0  0  0  0  0  0  0  0  0
  -20.2013  -43.4137   -8.8417 C   0  0  0  0  0  0  0  0  0  0  0  0
  -20.2807  -42.6905   -9.9929 C   0  0  0  0  0  0  0  0  0  0  0  0
  -19.4237  -41.5956  -10.2988 C   0  0  0  0  0  0  0  0  0  0  0  0
  -18.4581  -41.2480   -9.3793 C   0  0  0  0  0  0  0  0  0  0  0  0
  -18.3227  -41.9391   -8.1930 C   0  0  0  0  0  0  0  0  0  0  0  0
  -19.2288  -43.0213   -7.9751 C   0  0  0  0  0  0  0  0  0  0  0  0
  -17.3969  -41.7809   -7.0642 C   0  0  0  0  0  0  0  0  0  0  0  0
  -17.9088  -42.0619   -5.8605 O   0  0  0  0  0  0  0  0  0  0  0  0
  -16.0604  -41.4028   -6.8870 N   0  0  0  0  0  0  0  0  0  0  0  0
  -15.3714  -40.1640   -7.2600 C   0  0  1  0  0  0  0  0  0  0  0  0
  -14.3639  -40.4421   -8.3186 C   0  0  0  0  0  0  0  0  0  0  0  0
  -14.3544  -39.5237   -9.4923 C   0  0  0  0  0  0  0  0  0  0  0  0
  -15.0663  -39.5465  -10.6548 C   0  0  0  0  0  0  0  0  0  0  0  0
  -14.8337  -38.5526  -11.5927 C   0  0  0  0  0  0  0  0  0  0  0  0
  -15.4058  -38.3562  -12.8188 O   0  0  0  0  0  0  0  0  0  0  0  0
  -16.3613  -38.5713  -13.7111 C   0  0  0  0  0  0  0  0  0  0  0  0
  -17.6442  -39.3015  -13.3523 C   0  0  0  0  0  0  0  0  0  0  0  0
  -18.5693  -39.0559  -12.5011 C   0  0  0  0  0  0  0  0  0  0  0  0
  -19.8613  -39.7332  -12.0971 C   0  0  0  0  0  0  0  0  0  0  0  0
  -19.7680  -41.0694  -11.5783 N   0  0  0  0  0  0  0  0  0  0  0  0
  -13.8710  -37.5475  -11.3204 C   0  0  0  0  0  0  0  0  0  0  0  0
  -13.6015  -36.5367  -12.2327 F   0  0  0  0  0  0  0  0  0  0  0  0
  -13.1388  -37.4943  -10.1626 C   0  0  0  0  0  0  0  0  0  0  0  0
  -13.4032  -38.4953   -9.2692 C   0  0  0  0  0  0  0  0  0  0  0  0
  -16.2274  -38.9689   -7.3592 C   0  0  2  0  0  0  0  0  0  0  0  0
  -15.5052  -37.8248   -7.0185 O   0  0  0  0  0  0  0  0  0  0  0  0
  -17.3166  -39.1352   -6.2698 C   0  0  0  0  0  0  0  0  0  0  0  0
  -18.5605  -38.6043   -6.7070 N   0  0  0  0  0  0  0  0  0  0  0  0
  -19.6359  -38.7442   -5.7506 C   0  0  0  0  0  0  0  0  0  0  0  0
  -19.9802  -37.4329   -5.0472 C   0  0  0  0  0  0  0  0  0  0  0  0
  -19.3174  -38.5762   -4.3089 C   0  0  0  0  0  0  0  0  0  0  0  0
  -20.7345  -39.6770   -6.0286 C   0  0  0  0  0  0  0  0  0  0  0  0
  -21.4024  -39.6915   -7.2407 C   0  0  0  0  0  0  0  0  0  0  0  0
  -22.4328  -40.5476   -7.5304 C   0  0  0  0  0  0  0  0  0  0  0  0
  -22.8237  -41.4426   -6.5596 C   0  0  0  0  0  0  0  0  0  0  0  0
  -22.2130  -41.4892   -5.3379 C   0  0  0  0  0  0  0  0  0  0  0  0
  -21.1635  -40.5897   -5.0948 C   0  0  0  0  0  0  0  0  0  0  0  0
  -23.1274  -40.5372   -8.8398 C   0  0  0  0  0  0  0  0  0  0  0  0
  -24.2666  -39.5493   -8.8694 C   0  0  0  0  0  0  0  0  0  0  0  0
  -22.1111  -40.0944   -9.8798 C   0  0  0  0  0  0  0  0  0  0  0  0
  -23.6031  -41.9168   -9.2544 C   0  0  0  0  0  0  0  0  0  0  0  0
  1  2  1  0
  2  3  1  0
  2  4  1  0
  4  5  2  0
  4  6  1  0
  6  7  2  0
  7  8  1  0
  8  9  2  0
  9 10  1  0
 10 11  2  0
 10 12  1  0
 12 13  2  0
 12 14  1  0
 14 15  1  0
 15 16  1  6
 16 17  1  0
 17 18  2  0
 18 19  1  0
 19 20  1  0
 20 21  1  0
 21 22  1  0
 22 23  2  0
 23 24  1  0
 24 25  1  0
 19 26  2  0
 26 27  1  0
 26 28  1  0
 28 29  2  0
 15 30  1  0
 30 31  1  1
 30 32  1  0
 32 33  1  0
 33 34  1  0
 34 35  1  0
 35 36  1  0
 34 37  1  0
 37 38  2  0
 38 39  1  0
 39 40  2  0
 40 41  1  0
 41 42  2  0
 39 43  1  0
 43 44  1  0
 43 45  1  0
 43 46  1  0
 11  6  1  0
 25  8  1  0
 29 17  1  0
 36 34  1  0
 42 37  1  0
M  END
$$$$
