
     RDKit          3D

 44 49  0  0  0  0  0  0  0  0999 V2000
  -24.1982  -38.1726   -9.6352 C   0  0  0  0  0  0  0  0  0  0  0  0
  -23.9202  -39.6473   -9.7490 C   0  0  0  0  0  0  0  0  0  0  0  0
  -23.2110  -39.8974  -11.0681 C   0  0  0  0  0  0  0  0  0  0  0  0
  -23.1247  -40.1220   -8.5895 C   0  0  0  0  0  0  0  0  0  0  0  0
  -21.9931  -39.4520   -8.2034 C   0  0  0  0  0  0  0  0  0  0  0  0
  -21.2083  -39.8589   -7.1251 C   0  0  0  0  0  0  0  0  0  0  0  0
  -21.5663  -40.9659   -6.4140 C   0  0  0  0  0  0  0  0  0  0  0  0
  -22.7097  -41.6644   -6.7839 C   0  0  0  0  0  0  0  0  0  0  0  0
  -23.4641  -41.2373   -7.8545 C   0  0  0  0  0  0  0  0  0  0  0  0
  -20.0049  -39.0598   -6.7915 C   0  0  0  0  0  0  0  0  0  0  0  0
  -19.7913  -38.6077   -5.3714 C   0  0  0  0  0  0  0  0  0  0  0  0
  -20.2940  -37.6411   -6.4470 C   0  0  0  0  0  0  0  0  0  0  0  0
  -18.8136  -39.3668   -7.5843 N   0  0  0  0  0  0  0  0  0  0  0  0
  -17.7611  -39.9109   -6.7503 C   0  0  0  0  0  0  0  0  0  0  0  0
  -16.4202  -39.3038   -7.0818 C   0  0  1  0  0  0  0  0  0  0  0  0
  -15.4633  -40.0881   -6.4197 O   0  0  0  0  0  0  0  0  0  0  0  0
  -16.1012  -39.3984   -8.5517 C   0  0  2  0  0  0  0  0  0  0  0  0
  -15.2394  -38.2300   -8.9689 C   0  0  0  0  0  0  0  0  0  0  0  0
  -13.8138  -38.6308   -9.2692 C   0  0  0  0  0  0  0  0  0  0  0  0
  -13.2927  -39.2642  -10.3582 C   0  0  0  0  0  0  0  0  0  0  0  0
  -11.9320  -39.5423  -10.3852 C   0  0  0  0  0  0  0  0  0  0  0  0
  -11.1339  -39.1622   -9.2887 C   0  0  0  0  0  0  0  0  0  0  0  0
  -11.6193  -38.5237   -8.1757 C   0  0  0  0  0  0  0  0  0  0  0  0
  -12.9652  -38.2723   -8.1982 C   0  0  0  0  0  0  0  0  0  0  0  0
  -11.1811  -40.1631  -11.3508 O   0  0  0  0  0  0  0  0  0  0  0  0
  -10.9562  -40.1266  -12.7048 C   0  0  0  0  0  0  0  0  0  0  0  0
  -11.0328  -41.4631  -13.3677 C   0  0  0  0  0  0  0  0  0  0  0  0
   -9.9166  -42.2951  -13.2534 C   0  0  0  0  0  0  0  0  0  0  0  0
   -9.8464  -43.5394  -13.8071 C   0  0  0  0  0  0  0  0  0  0  0  0
  -10.9270  -43.9962  -14.5115 C   0  0  0  0  0  0  0  0  0  0  0  0
  -12.0420  -43.1990  -14.6414 C   0  0  0  0  0  0  0  0  0  0  0  0
  -12.1256  -41.9176  -14.0763 C   0  0  0  0  0  0  0  0  0  0  0  0
  -13.3466  -41.1563  -14.2722 C   0  0  0  0  0  0  0  0  0  0  0  0
  -14.5597  -41.7802  -14.0463 O   0  0  0  0  0  0  0  0  0  0  0  0
  -15.3549  -41.9487  -12.9171 C   0  0  0  0  0  0  0  0  0  0  0  0
  -16.0765  -41.0148  -12.2005 C   0  0  0  0  0  0  0  0  0  0  0  0
  -16.7713  -41.4776  -11.1115 C   0  0  0  0  0  0  0  0  0  0  0  0
  -16.7174  -42.8659  -10.7903 C   0  0  0  0  0  0  0  0  0  0  0  0
  -15.9964  -43.7763  -11.5181 C   0  0  0  0  0  0  0  0  0  0  0  0
  -15.9891  -45.2054  -11.1226 C   0  0  0  0  0  0  0  0  0  0  0  0
  -15.3412  -43.2860  -12.5534 N   0  0  0  0  0  0  0  0  0  0  0  0
  -17.5900  -40.7783  -10.1021 C   0  0  0  0  0  0  0  0  0  0  0  0
  -18.7512  -41.3221   -9.8501 O   0  0  0  0  0  0  0  0  0  0  0  0
  -17.2745  -39.5812   -9.3596 N   0  0  0  0  0  0  0  0  0  0  0  0
  1  2  1  0
  2  3  1  0
  2  4  1  0
  4  5  2  0
  5  6  1  0
  6  7  2  0
  7  8  1  0
  8  9  2  0
  6 10  1  0
 10 11  1  0
 11 12  1  0
 10 13  1  0
 13 14  1  0
 14 15  1  0
 15 16  1  1
 15 17  1  0
 17 18  1  6
 18 19  1  0
 19 20  2  0
 20 21  1  0
 21 22  2  0
 22 23  1  0
 23 24  2  0
 21 25  1  0
 25 26  1  0
 26 27  1  0
 27 28  2  0
 28 29  1  0
 29 30  2  0
 30 31  1  0
 31 32  2  0
 32 33  1  0
 33 34  1  0
 34 35  1  0
 35 36  2  0
 36 37  1  0
 37 38  2  0
 38 39  1  0
 39 40  1  0
 39 41  2  0
 37 42  1  0
 42 43  2  0
 42 44  1  0
  9  4  1  0
 12 10  1  0
 24 19  1  0
 32 27  1  0
 41 35  1  0
 44 17  1  0
M  END
$$$$
