
     RDKit          3D

 44 49  0  0  0  0  0  0  0  0999 V2000
  -21.7085  -38.4582   -5.3519 C   0  0  0  0  0  0  0  0  0  0  0  0
  -22.0913  -39.1722   -6.6202 C   0  0  0  0  0  0  0  0  0  0  0  0
  -21.3552  -38.5173   -7.7755 C   0  0  0  0  0  0  0  0  0  0  0  0
  -21.7903  -40.6218   -6.5172 C   0  0  0  0  0  0  0  0  0  0  0  0
  -20.7451  -41.0605   -5.7468 C   0  0  0  0  0  0  0  0  0  0  0  0
  -20.4174  -42.4099   -5.6204 C   0  0  0  0  0  0  0  0  0  0  0  0
  -21.1564  -43.3451   -6.2827 C   0  0  0  0  0  0  0  0  0  0  0  0
  -22.2224  -42.9279   -7.0711 C   0  0  0  0  0  0  0  0  0  0  0  0
  -22.5208  -41.5871   -7.1760 C   0  0  0  0  0  0  0  0  0  0  0  0
  -19.2676  -42.7755   -4.7590 C   0  0  0  0  0  0  0  0  0  0  0  0
  -18.8073  -44.2083   -4.7138 C   0  0  0  0  0  0  0  0  0  0  0  0
  -19.6330  -43.6016   -3.5762 C   0  0  0  0  0  0  0  0  0  0  0  0
  -18.2466  -41.7377   -4.6091 N   0  0  0  0  0  0  0  0  0  0  0  0
  -17.8588  -41.2011   -5.8978 C   0  0  0  0  0  0  0  0  0  0  0  0
  -18.2469  -39.7494   -6.0344 C   0  0  1  0  0  0  0  0  0  0  0  0
  -17.0605  -39.0537   -6.3131 O   0  0  0  0  0  0  0  0  0  0  0  0
  -19.1616  -39.5136   -7.2087 C   0  0  2  0  0  0  0  0  0  0  0  0
  -19.5136  -38.0476   -7.3024 C   0  0  0  0  0  0  0  0  0  0  0  0
  -18.8529  -37.3597   -8.4743 C   0  0  0  0  0  0  0  0  0  0  0  0
  -19.1568  -37.4061   -9.8024 C   0  0  0  0  0  0  0  0  0  0  0  0
  -18.3715  -36.6886  -10.6959 C   0  0  0  0  0  0  0  0  0  0  0  0
  -17.2873  -35.9367  -10.2030 C   0  0  0  0  0  0  0  0  0  0  0  0
  -16.9490  -35.8639   -8.8756 C   0  0  0  0  0  0  0  0  0  0  0  0
  -17.7535  -36.5880   -8.0367 C   0  0  0  0  0  0  0  0  0  0  0  0
  -18.4699  -36.5779  -12.0596 O   0  0  0  0  0  0  0  0  0  0  0  0
  -19.3977  -36.3166  -13.0373 C   0  0  0  0  0  0  0  0  0  0  0  0
  -19.3973  -37.3093  -14.1536 C   0  0  0  0  0  0  0  0  0  0  0  0
  -18.4045  -37.1724  -15.1266 C   0  0  0  0  0  0  0  0  0  0  0  0
  -18.2839  -38.0049  -16.2000 C   0  0  0  0  0  0  0  0  0  0  0  0
  -19.1832  -39.0280  -16.3299 C   0  0  0  0  0  0  0  0  0  0  0  0
  -20.1732  -39.1886  -15.3866 C   0  0  0  0  0  0  0  0  0  0  0  0
  -20.3071  -38.3387  -14.2784 C   0  0  0  0  0  0  0  0  0  0  0  0
  -21.3865  -38.5933  -13.3410 C   0  0  0  0  0  0  0  0  0  0  0  0
  -21.5796  -39.8854  -12.8881 O   0  0  0  0  0  0  0  0  0  0  0  0
  -21.0591  -40.6156  -11.8242 C   0  0  0  0  0  0  0  0  0  0  0  0
  -21.2618  -40.4615  -10.4672 C   0  0  0  0  0  0  0  0  0  0  0  0
  -20.6014  -41.3374   -9.6429 C   0  0  0  0  0  0  0  0  0  0  0  0
  -19.7666  -42.3399  -10.2188 C   0  0  0  0  0  0  0  0  0  0  0  0
  -19.5822  -42.4765  -11.5700 C   0  0  0  0  0  0  0  0  0  0  0  0
  -18.6983  -43.5450  -12.0951 C   0  0  0  0  0  0  0  0  0  0  0  0
  -20.2332  -41.6104  -12.3234 N   0  0  0  0  0  0  0  0  0  0  0  0
  -20.5361  -41.4390   -8.1720 C   0  0  0  0  0  0  0  0  0  0  0  0
  -20.7154  -42.6388   -7.6862 O   0  0  0  0  0  0  0  0  0  0  0  0
  -20.2979  -40.3919   -7.2072 N   0  0  0  0  0  0  0  0  0  0  0  0
  1  2  1  0
  2  3  1  0
  2  4  1  0
  4  5  2  0
  5  6  1  0
  6  7  2  0
  7  8  1  0
  8  9  2  0
  6 10  1  0
 10 11  1  0
 11 12  1  0
 10 13  1  0
 13 14  1  0
 14 15  1  0
 15 16  1  6
 15 17  1  0
 17 18  1  1
 18 19  1  0
 19 20  2  0
 20 21  1  0
 21 22  2  0
 22 23  1  0
 23 24  2  0
 21 25  1  0
 25 26  1  0
 26 27  1  0
 27 28  2  0
 28 29  1  0
 29 30  2  0
 30 31  1  0
 31 32  2  0
 32 33  1  0
 33 34  1  0
 34 35  1  0
 35 36  2  0
 36 37  1  0
 37 38  2  0
 38 39  1  0
 39 40  1  0
 39 41  2  0
 37 42  1  0
 42 43  2  0
 42 44  1  0
  9  4  1  0
 12 10  1  0
 24 19  1  0
 32 27  1  0
 41 35  1  0
 44 17  1  0
M  END
$$$$
