
     RDKit          3D

 44 49  0  0  0  0  0  0  0  0999 V2000
  -22.4484  -40.8271   -0.8040 C   0  0  0  0  0  0  0  0  0  0  0  0
  -21.5659  -41.8221   -1.5083 C   0  0  0  0  0  0  0  0  0  0  0  0
  -21.6999  -43.1599   -0.8028 C   0  0  0  0  0  0  0  0  0  0  0  0
  -21.9208  -41.9121   -2.9465 C   0  0  0  0  0  0  0  0  0  0  0  0
  -21.0310  -41.5081   -3.9075 C   0  0  0  0  0  0  0  0  0  0  0  0
  -21.3169  -41.5673   -5.2709 C   0  0  0  0  0  0  0  0  0  0  0  0
  -22.5260  -42.0443   -5.6832 C   0  0  0  0  0  0  0  0  0  0  0  0
  -23.4475  -42.4610   -4.7297 C   0  0  0  0  0  0  0  0  0  0  0  0
  -23.1352  -42.3896   -3.3898 C   0  0  0  0  0  0  0  0  0  0  0  0
  -20.2812  -41.1063   -6.2262 C   0  0  0  0  0  0  0  0  0  0  0  0
  -20.6741  -40.7979   -7.6465 C   0  0  0  0  0  0  0  0  0  0  0  0
  -19.9482  -42.0968   -7.2860 C   0  0  0  0  0  0  0  0  0  0  0  0
  -19.2036  -40.3084   -5.6397 N   0  0  0  0  0  0  0  0  0  0  0  0
  -17.9278  -40.6354   -6.2437 C   0  0  0  0  0  0  0  0  0  0  0  0
  -17.2521  -39.4115   -6.8113 C   0  0  1  0  0  0  0  0  0  0  0  0
  -15.8864  -39.7232   -6.8927 O   0  0  0  0  0  0  0  0  0  0  0  0
  -17.7030  -39.1145   -8.2184 C   0  0  2  0  0  0  0  0  0  0  0  0
  -18.3888  -37.7694   -8.2673 C   0  0  0  0  0  0  0  0  0  0  0  0
  -17.5656  -36.7169   -8.9727 C   0  0  0  0  0  0  0  0  0  0  0  0
  -17.3392  -36.5285  -10.3038 C   0  0  0  0  0  0  0  0  0  0  0  0
  -16.5148  -35.4840  -10.7029 C   0  0  0  0  0  0  0  0  0  0  0  0
  -15.9392  -34.6534   -9.7218 C   0  0  0  0  0  0  0  0  0  0  0  0
  -16.1421  -34.8094   -8.3741 C   0  0  0  0  0  0  0  0  0  0  0  0
  -16.9618  -35.8520   -8.0330 C   0  0  0  0  0  0  0  0  0  0  0  0
  -16.1364  -35.0955  -11.9629 O   0  0  0  0  0  0  0  0  0  0  0  0
  -16.6776  -34.8205  -13.1943 C   0  0  0  0  0  0  0  0  0  0  0  0
  -15.9952  -35.5181  -14.3253 C   0  0  0  0  0  0  0  0  0  0  0  0
  -14.7962  -34.9664  -14.7827 C   0  0  0  0  0  0  0  0  0  0  0  0
  -14.0669  -35.4960  -15.8061 C   0  0  0  0  0  0  0  0  0  0  0  0
  -14.5351  -36.6275  -16.4166 C   0  0  0  0  0  0  0  0  0  0  0  0
  -15.7142  -37.1947  -15.9879 C   0  0  0  0  0  0  0  0  0  0  0  0
  -16.4727  -36.6590  -14.9362 C   0  0  0  0  0  0  0  0  0  0  0  0
  -17.7031  -37.3329  -14.5609 C   0  0  0  0  0  0  0  0  0  0  0  0
  -17.6810  -38.7047  -14.3885 O   0  0  0  0  0  0  0  0  0  0  0  0
  -17.4031  -39.5296  -13.3032 C   0  0  0  0  0  0  0  0  0  0  0  0
  -18.1203  -39.7264  -12.1399 C   0  0  0  0  0  0  0  0  0  0  0  0
  -17.5902  -40.6080  -11.2318 C   0  0  0  0  0  0  0  0  0  0  0  0
  -16.3601  -41.2629  -11.5342 C   0  0  0  0  0  0  0  0  0  0  0  0
  -15.6662  -41.0545  -12.6976 C   0  0  0  0  0  0  0  0  0  0  0  0
  -14.3925  -41.7733  -12.9421 C   0  0  0  0  0  0  0  0  0  0  0  0
  -16.2109  -40.1961  -13.5389 N   0  0  0  0  0  0  0  0  0  0  0  0
  -18.0397  -41.0185   -9.8873 C   0  0  0  0  0  0  0  0  0  0  0  0
  -18.0430  -42.3068   -9.6683 O   0  0  0  0  0  0  0  0  0  0  0  0
  -18.4699  -40.1862   -8.7891 N   0  0  0  0  0  0  0  0  0  0  0  0
  1  2  1  0
  2  3  1  0
  2  4  1  0
  4  5  2  0
  5  6  1  0
  6  7  2  0
  7  8  1  0
  8  9  2  0
  6 10  1  0
 10 11  1  0
 11 12  1  0
 10 13  1  0
 13 14  1  0
 14 15  1  0
 15 16  1  6
 15 17  1  0
 17 18  1  1
 18 19  1  0
 19 20  2  0
 20 21  1  0
 21 22  2  0
 22 23  1  0
 23 24  2  0
 21 25  1  0
 25 26  1  0
 26 27  1  0
 27 28  2  0
 28 29  1  0
 29 30  2  0
 30 31  1  0
 31 32  2  0
 32 33  1  0
 33 34  1  0
 34 35  1  0
 35 36  2  0
 36 37  1  0
 37 38  2  0
 38 39  1  0
 39 40  1  0
 39 41  2  0
 37 42  1  0
 42 43  2  0
 42 44  1  0
  9  4  1  0
 12 10  1  0
 24 19  1  0
 32 27  1  0
 41 35  1  0
 44 17  1  0
M  END
$$$$
