
     RDKit          3D

 44 49  0  0  0  0  0  0  0  0999 V2000
  -13.7885  -38.3923  -15.4273 C   0  0  0  0  0  0  0  0  0  0  0  0
  -14.1033  -37.2974  -14.4440 C   0  0  0  0  0  0  0  0  0  0  0  0
  -15.5600  -37.4284  -14.0363 C   0  0  0  0  0  0  0  0  0  0  0  0
  -13.1895  -37.3625  -13.2764 C   0  0  0  0  0  0  0  0  0  0  0  0
  -13.4725  -38.1871  -12.2189 C   0  0  0  0  0  0  0  0  0  0  0  0
  -12.6501  -38.2816  -11.0968 C   0  0  0  0  0  0  0  0  0  0  0  0
  -11.5137  -37.5308  -11.0321 C   0  0  0  0  0  0  0  0  0  0  0  0
  -11.2024  -36.6858  -12.0910 C   0  0  0  0  0  0  0  0  0  0  0  0
  -12.0355  -36.6145  -13.1858 C   0  0  0  0  0  0  0  0  0  0  0  0
  -13.0491  -39.2074  -10.0098 C   0  0  0  0  0  0  0  0  0  0  0  0
  -12.0646  -40.2354   -9.5192 C   0  0  0  0  0  0  0  0  0  0  0  0
  -13.2204  -40.6197  -10.4468 C   0  0  0  0  0  0  0  0  0  0  0  0
  -13.9834  -38.6518   -9.0298 N   0  0  0  0  0  0  0  0  0  0  0  0
  -15.1606  -38.1144   -9.6816 C   0  0  0  0  0  0  0  0  0  0  0  0
  -16.1091  -37.4899   -8.6881 C   0  0  1  0  0  0  0  0  0  0  0  0
  -17.1316  -36.8979   -9.4451 O   0  0  0  0  0  0  0  0  0  0  0  0
  -16.7737  -38.5203   -7.8118 C   0  0  2  0  0  0  0  0  0  0  0  0
  -17.3921  -37.8513   -6.6068 C   0  0  0  0  0  0  0  0  0  0  0  0
  -18.9020  -37.8286   -6.6594 C   0  0  0  0  0  0  0  0  0  0  0  0
  -19.8016  -38.8271   -6.4312 C   0  0  0  0  0  0  0  0  0  0  0  0
  -21.1568  -38.5530   -6.5660 C   0  0  0  0  0  0  0  0  0  0  0  0
  -21.5589  -37.2542   -6.9337 C   0  0  0  0  0  0  0  0  0  0  0  0
  -20.6861  -36.2230   -7.1716 C   0  0  0  0  0  0  0  0  0  0  0  0
  -19.3630  -36.5443   -7.0253 C   0  0  0  0  0  0  0  0  0  0  0  0
  -22.2409  -39.3761   -6.3959 O   0  0  0  0  0  0  0  0  0  0  0  0
  -22.7576  -40.2757   -5.4967 C   0  0  0  0  0  0  0  0  0  0  0  0
  -23.1701  -41.5746   -6.1084 C   0  0  0  0  0  0  0  0  0  0  0  0
  -24.3995  -41.6041   -6.7710 C   0  0  0  0  0  0  0  0  0  0  0  0
  -24.9019  -42.7191   -7.3744 C   0  0  0  0  0  0  0  0  0  0  0  0
  -24.1620  -43.8692   -7.3280 C   0  0  0  0  0  0  0  0  0  0  0  0
  -22.9459  -43.8713   -6.6822 C   0  0  0  0  0  0  0  0  0  0  0  0
  -22.4191  -42.7306   -6.0581 C   0  0  0  0  0  0  0  0  0  0  0  0
  -21.1276  -42.8380   -5.4029 C   0  0  0  0  0  0  0  0  0  0  0  0
  -20.0884  -43.4460   -6.0828 O   0  0  0  0  0  0  0  0  0  0  0  0
  -19.1200  -42.9811   -6.9670 C   0  0  0  0  0  0  0  0  0  0  0  0
  -18.0438  -42.1475   -6.7362 C   0  0  0  0  0  0  0  0  0  0  0  0
  -17.2519  -41.8513   -7.8169 C   0  0  0  0  0  0  0  0  0  0  0  0
  -17.5716  -42.4123   -9.0883 C   0  0  0  0  0  0  0  0  0  0  0  0
  -18.6440  -43.2405   -9.2940 C   0  0  0  0  0  0  0  0  0  0  0  0
  -18.9127  -43.7865  -10.6462 C   0  0  0  0  0  0  0  0  0  0  0  0
  -19.3794  -43.4944   -8.2280 N   0  0  0  0  0  0  0  0  0  0  0  0
  -16.0744  -40.9726   -7.9574 C   0  0  0  0  0  0  0  0  0  0  0  0
  -15.0582  -41.4970   -8.5898 O   0  0  0  0  0  0  0  0  0  0  0  0
  -15.9027  -39.6168   -7.4928 N   0  0  0  0  0  0  0  0  0  0  0  0
  1  2  1  0
  2  3  1  0
  2  4  1  0
  4  5  2  0
  5  6  1  0
  6  7  2  0
  7  8  1  0
  8  9  2  0
  6 10  1  0
 10 11  1  0
 11 12  1  0
 10 13  1  0
 13 14  1  0
 14 15  1  0
 15 16  1  6
 15 17  1  0
 17 18  1  1
 18 19  1  0
 19 20  2  0
 20 21  1  0
 21 22  2  0
 22 23  1  0
 23 24  2  0
 21 25  1  0
 25 26  1  0
 26 27  1  0
 27 28  2  0
 28 29  1  0
 29 30  2  0
 30 31  1  0
 31 32  2  0
 32 33  1  0
 33 34  1  0
 34 35  1  0
 35 36  2  0
 36 37  1  0
 37 38  2  0
 38 39  1  0
 39 40  1  0
 39 41  2  0
 37 42  1  0
 42 43  2  0
 42 44  1  0
  9  4  1  0
 12 10  1  0
 24 19  1  0
 32 27  1  0
 41 35  1  0
 44 17  1  0
M  END
$$$$
