
     RDKit          3D

 44 49  0  0  0  0  0  0  0  0999 V2000
  -14.0407  -42.5039  -14.6456 C   0  0  0  0  0  0  0  0  0  0  0  0
  -14.7332  -42.4404  -13.3109 C   0  0  0  0  0  0  0  0  0  0  0  0
  -15.5146  -43.7279  -13.1187 C   0  0  0  0  0  0  0  0  0  0  0  0
  -13.7513  -42.2160  -12.2210 C   0  0  0  0  0  0  0  0  0  0  0  0
  -13.7552  -41.0415  -11.5144 C   0  0  0  0  0  0  0  0  0  0  0  0
  -12.8518  -40.7792  -10.4851 C   0  0  0  0  0  0  0  0  0  0  0  0
  -11.9200  -41.7180  -10.1541 C   0  0  0  0  0  0  0  0  0  0  0  0
  -11.8936  -42.9184  -10.8545 C   0  0  0  0  0  0  0  0  0  0  0  0
  -12.7995  -43.1476  -11.8667 C   0  0  0  0  0  0  0  0  0  0  0  0
  -12.9454  -39.4763   -9.7839 C   0  0  0  0  0  0  0  0  0  0  0  0
  -11.6848  -38.7113   -9.4797 C   0  0  0  0  0  0  0  0  0  0  0  0
  -12.4212  -39.4968   -8.3913 C   0  0  0  0  0  0  0  0  0  0  0  0
  -14.1494  -38.6970  -10.0754 N   0  0  0  0  0  0  0  0  0  0  0  0
  -15.2963  -39.5630  -10.2595 C   0  0  0  0  0  0  0  0  0  0  0  0
  -16.5715  -38.9014   -9.7979 C   0  0  1  0  0  0  0  0  0  0  0  0
  -17.5388  -39.1999  -10.7696 O   0  0  0  0  0  0  0  0  0  0  0  0
  -17.0779  -39.4841   -8.5036 C   0  0  2  0  0  0  0  0  0  0  0  0
  -17.5304  -38.3766   -7.5813 C   0  0  0  0  0  0  0  0  0  0  0  0
  -19.0320  -38.3224   -7.4228 C   0  0  0  0  0  0  0  0  0  0  0  0
  -19.8657  -39.1202   -6.6968 C   0  0  0  0  0  0  0  0  0  0  0  0
  -21.2320  -38.8721   -6.7334 C   0  0  0  0  0  0  0  0  0  0  0  0
  -21.7132  -37.8061   -7.5181 C   0  0  0  0  0  0  0  0  0  0  0  0
  -20.9082  -36.9812   -8.2619 C   0  0  0  0  0  0  0  0  0  0  0  0
  -19.5708  -37.2669   -8.1919 C   0  0  0  0  0  0  0  0  0  0  0  0
  -22.2607  -39.5246   -6.1026 O   0  0  0  0  0  0  0  0  0  0  0  0
  -22.6206  -39.9833   -4.8595 C   0  0  0  0  0  0  0  0  0  0  0  0
  -23.0872  -41.4023   -4.8493 C   0  0  0  0  0  0  0  0  0  0  0  0
  -24.3987  -41.6439   -5.2651 C   0  0  0  0  0  0  0  0  0  0  0  0
  -24.9573  -42.8873   -5.3064 C   0  0  0  0  0  0  0  0  0  0  0  0
  -24.1921  -43.9539   -4.9201 C   0  0  0  0  0  0  0  0  0  0  0  0
  -22.8955  -43.7473   -4.5053 C   0  0  0  0  0  0  0  0  0  0  0  0
  -22.3102  -42.4732   -4.4588 C   0  0  0  0  0  0  0  0  0  0  0  0
  -20.9352  -42.3625   -4.0050 C   0  0  0  0  0  0  0  0  0  0  0  0
  -19.9919  -43.2241   -4.5336 O   0  0  0  0  0  0  0  0  0  0  0  0
  -19.1730  -43.1757   -5.6574 C   0  0  0  0  0  0  0  0  0  0  0  0
  -18.0943  -42.3570   -5.9267 C   0  0  0  0  0  0  0  0  0  0  0  0
  -17.4746  -42.5341   -7.1381 C   0  0  0  0  0  0  0  0  0  0  0  0
  -17.9622  -43.5347   -8.0294 C   0  0  0  0  0  0  0  0  0  0  0  0
  -19.0337  -44.3387   -7.7399 C   0  0  0  0  0  0  0  0  0  0  0  0
  -19.4830  -45.3588   -8.7178 C   0  0  0  0  0  0  0  0  0  0  0  0
  -19.6006  -44.1304   -6.5666 N   0  0  0  0  0  0  0  0  0  0  0  0
  -16.3506  -41.8223   -7.7771 C   0  0  0  0  0  0  0  0  0  0  0  0
  -15.4249  -42.5877   -8.2920 O   0  0  0  0  0  0  0  0  0  0  0  0
  -16.1447  -40.3997   -7.9090 N   0  0  0  0  0  0  0  0  0  0  0  0
  1  2  1  0
  2  3  1  0
  2  4  1  0
  4  5  2  0
  5  6  1  0
  6  7  2  0
  7  8  1  0
  8  9  2  0
  6 10  1  0
 10 11  1  0
 11 12  1  0
 10 13  1  0
 13 14  1  0
 14 15  1  0
 15 16  1  6
 15 17  1  0
 17 18  1  1
 18 19  1  0
 19 20  2  0
 20 21  1  0
 21 22  2  0
 22 23  1  0
 23 24  2  0
 21 25  1  0
 25 26  1  0
 26 27  1  0
 27 28  2  0
 28 29  1  0
 29 30  2  0
 30 31  1  0
 31 32  2  0
 32 33  1  0
 33 34  1  0
 34 35  1  0
 35 36  2  0
 36 37  1  0
 37 38  2  0
 38 39  1  0
 39 40  1  0
 39 41  2  0
 37 42  1  0
 42 43  2  0
 42 44  1  0
  9  4  1  0
 12 10  1  0
 24 19  1  0
 32 27  1  0
 41 35  1  0
 44 17  1  0
M  END
$$$$
