
     RDKit          3D

 44 49  0  0  0  0  0  0  0  0999 V2000
  -23.4580  -44.5414   -6.6711 C   0  0  0  0  0  0  0  0  0  0  0  0
  -22.6965  -43.6828   -5.6976 C   0  0  0  0  0  0  0  0  0  0  0  0
  -21.5508  -44.5045   -5.1337 C   0  0  0  0  0  0  0  0  0  0  0  0
  -22.2208  -42.4402   -6.3549 C   0  0  0  0  0  0  0  0  0  0  0  0
  -21.6570  -41.4350   -5.6133 C   0  0  0  0  0  0  0  0  0  0  0  0
  -21.1989  -40.2466   -6.1811 C   0  0  0  0  0  0  0  0  0  0  0  0
  -21.3079  -40.0600   -7.5274 C   0  0  0  0  0  0  0  0  0  0  0  0
  -21.8758  -41.0635   -8.3036 C   0  0  0  0  0  0  0  0  0  0  0  0
  -22.3193  -42.2263   -7.7129 C   0  0  0  0  0  0  0  0  0  0  0  0
  -20.6032  -39.2251   -5.2868 C   0  0  0  0  0  0  0  0  0  0  0  0
  -20.4628  -39.5239   -3.8179 C   0  0  0  0  0  0  0  0  0  0  0  0
  -21.5715  -38.6068   -4.3409 C   0  0  0  0  0  0  0  0  0  0  0  0
  -19.5770  -38.3815   -5.9011 N   0  0  0  0  0  0  0  0  0  0  0  0
  -18.2779  -39.0207   -5.8454 C   0  0  0  0  0  0  0  0  0  0  0  0
  -17.2961  -38.3658   -6.7855 C   0  0  1  0  0  0  0  0  0  0  0  0
  -16.0190  -38.6980   -6.3080 O   0  0  0  0  0  0  0  0  0  0  0  0
  -17.3851  -38.9267   -8.1815 C   0  0  2  0  0  0  0  0  0  0  0  0
  -18.1375  -37.9691   -9.0752 C   0  0  0  0  0  0  0  0  0  0  0  0
  -17.2436  -37.2785  -10.0787 C   0  0  0  0  0  0  0  0  0  0  0  0
  -16.6924  -37.7516  -11.2324 C   0  0  0  0  0  0  0  0  0  0  0  0
  -15.8769  -36.9115  -11.9801 C   0  0  0  0  0  0  0  0  0  0  0  0
  -15.6449  -35.5993  -11.5241 C   0  0  0  0  0  0  0  0  0  0  0  0
  -16.1805  -35.0858  -10.3702 C   0  0  0  0  0  0  0  0  0  0  0  0
  -16.9764  -35.9528   -9.6702 C   0  0  0  0  0  0  0  0  0  0  0  0
  -15.2137  -37.1499  -13.1570 O   0  0  0  0  0  0  0  0  0  0  0  0
  -15.4338  -37.6585  -14.4131 C   0  0  0  0  0  0  0  0  0  0  0  0
  -14.4268  -38.6760  -14.8396 C   0  0  0  0  0  0  0  0  0  0  0  0
  -13.1970  -38.2001  -15.3003 C   0  0  0  0  0  0  0  0  0  0  0  0
  -12.1862  -39.0128  -15.7216 C   0  0  0  0  0  0  0  0  0  0  0  0
  -12.3881  -40.3659  -15.6909 C   0  0  0  0  0  0  0  0  0  0  0  0
  -13.5901  -40.8652  -15.2416 C   0  0  0  0  0  0  0  0  0  0  0  0
  -14.6368  -40.0390  -14.8058 C   0  0  0  0  0  0  0  0  0  0  0  0
  -15.8657  -40.6653  -14.3516 C   0  0  0  0  0  0  0  0  0  0  0  0
  -15.7820  -41.7194  -13.4607 O   0  0  0  0  0  0  0  0  0  0  0  0
  -15.7339  -41.7991  -12.0725 C   0  0  0  0  0  0  0  0  0  0  0  0
  -16.7126  -41.5197  -11.1396 C   0  0  0  0  0  0  0  0  0  0  0  0
  -16.3711  -41.6850   -9.8210 C   0  0  0  0  0  0  0  0  0  0  0  0
  -15.0573  -42.1322   -9.4932 C   0  0  0  0  0  0  0  0  0  0  0  0
  -14.1018  -42.4066  -10.4366 C   0  0  0  0  0  0  0  0  0  0  0  0
  -12.7562  -42.8688  -10.0188 C   0  0  0  0  0  0  0  0  0  0  0  0
  -14.4731  -42.2299  -11.6905 N   0  0  0  0  0  0  0  0  0  0  0  0
  -17.1230  -41.4367   -8.5755 C   0  0  0  0  0  0  0  0  0  0  0  0
  -17.0824  -42.4026   -7.6962 O   0  0  0  0  0  0  0  0  0  0  0  0
  -17.8894  -40.2712   -8.2041 N   0  0  0  0  0  0  0  0  0  0  0  0
  1  2  1  0
  2  3  1  0
  2  4  1  0
  4  5  2  0
  5  6  1  0
  6  7  2  0
  7  8  1  0
  8  9  2  0
  6 10  1  0
 10 11  1  0
 11 12  1  0
 10 13  1  0
 13 14  1  0
 14 15  1  0
 15 16  1  1
 15 17  1  0
 17 18  1  6
 18 19  1  0
 19 20  2  0
 20 21  1  0
 21 22  2  0
 22 23  1  0
 23 24  2  0
 21 25  1  0
 25 26  1  0
 26 27  1  0
 27 28  2  0
 28 29  1  0
 29 30  2  0
 30 31  1  0
 31 32  2  0
 32 33  1  0
 33 34  1  0
 34 35  1  0
 35 36  2  0
 36 37  1  0
 37 38  2  0
 38 39  1  0
 39 40  1  0
 39 41  2  0
 37 42  1  0
 42 43  2  0
 42 44  1  0
  9  4  1  0
 12 10  1  0
 24 19  1  0
 32 27  1  0
 41 35  1  0
 44 17  1  0
M  END
$$$$
