
     RDKit          3D

 44 49  0  0  0  0  0  0  0  0999 V2000
  -19.9474  -40.8479   -1.7933 C   0  0  0  0  0  0  0  0  0  0  0  0
  -19.4893  -42.0944   -2.5014 C   0  0  0  0  0  0  0  0  0  0  0  0
  -19.7440  -43.2808   -1.5887 C   0  0  0  0  0  0  0  0  0  0  0  0
  -20.1780  -42.2383   -3.8081 C   0  0  0  0  0  0  0  0  0  0  0  0
  -21.3734  -41.6075   -4.0356 C   0  0  0  0  0  0  0  0  0  0  0  0
  -22.0629  -41.7140   -5.2429 C   0  0  0  0  0  0  0  0  0  0  0  0
  -21.5414  -42.4718   -6.2494 C   0  0  0  0  0  0  0  0  0  0  0  0
  -20.3302  -43.1225   -6.0457 C   0  0  0  0  0  0  0  0  0  0  0  0
  -19.6731  -42.9979   -4.8413 C   0  0  0  0  0  0  0  0  0  0  0  0
  -23.3478  -40.9879   -5.3840 C   0  0  0  0  0  0  0  0  0  0  0  0
  -24.4609  -41.2642   -4.4086 C   0  0  0  0  0  0  0  0  0  0  0  0
  -24.4832  -41.8426   -5.8259 C   0  0  0  0  0  0  0  0  0  0  0  0
  -23.2398  -39.6268   -5.9109 N   0  0  0  0  0  0  0  0  0  0  0  0
  -21.8653  -39.1689   -5.8877 C   0  0  0  0  0  0  0  0  0  0  0  0
  -21.5533  -38.2884   -7.0726 C   0  0  1  0  0  0  0  0  0  0  0  0
  -20.8668  -37.1764   -6.5614 O   0  0  0  0  0  0  0  0  0  0  0  0
  -20.6143  -38.9552   -8.0447 C   0  0  2  0  0  0  0  0  0  0  0  0
  -20.9621  -38.5508   -9.4580 C   0  0  0  0  0  0  0  0  0  0  0  0
  -19.9405  -37.6208  -10.0700 C   0  0  0  0  0  0  0  0  0  0  0  0
  -18.6996  -37.8879  -10.5673 C   0  0  0  0  0  0  0  0  0  0  0  0
  -17.9354  -36.8391  -11.0630 C   0  0  0  0  0  0  0  0  0  0  0  0
  -18.4651  -35.5343  -11.0366 C   0  0  0  0  0  0  0  0  0  0  0  0
  -19.7079  -35.2243  -10.5454 C   0  0  0  0  0  0  0  0  0  0  0  0
  -20.4207  -36.2923  -10.0692 C   0  0  0  0  0  0  0  0  0  0  0  0
  -16.6756  -36.8497  -11.6058 O   0  0  0  0  0  0  0  0  0  0  0  0
  -15.9329  -37.5188  -12.5470 C   0  0  0  0  0  0  0  0  0  0  0  0
  -14.6021  -37.9819  -12.0510 C   0  0  0  0  0  0  0  0  0  0  0  0
  -13.5799  -37.0318  -11.9899 C   0  0  0  0  0  0  0  0  0  0  0  0
  -12.3171  -37.3128  -11.5586 C   0  0  0  0  0  0  0  0  0  0  0  0
  -12.0374  -38.5932  -11.1651 C   0  0  0  0  0  0  0  0  0  0  0  0
  -13.0245  -39.5519  -11.2140 C   0  0  0  0  0  0  0  0  0  0  0  0
  -14.3269  -39.2745  -11.6557 C   0  0  0  0  0  0  0  0  0  0  0  0
  -15.2950  -40.3569  -11.6698 C   0  0  0  0  0  0  0  0  0  0  0  0
  -15.4078  -41.1593  -10.5495 O   0  0  0  0  0  0  0  0  0  0  0  0
  -16.1609  -41.0752   -9.3826 C   0  0  0  0  0  0  0  0  0  0  0  0
  -17.5242  -41.1993   -9.2031 C   0  0  0  0  0  0  0  0  0  0  0  0
  -17.9913  -41.0596   -7.9205 C   0  0  0  0  0  0  0  0  0  0  0  0
  -17.0649  -40.8065   -6.8663 C   0  0  0  0  0  0  0  0  0  0  0  0
  -15.7142  -40.6899   -7.0672 C   0  0  0  0  0  0  0  0  0  0  0  0
  -14.8123  -40.4266   -5.9201 C   0  0  0  0  0  0  0  0  0  0  0  0
  -15.3110  -40.8273   -8.3162 N   0  0  0  0  0  0  0  0  0  0  0  0
  -19.3602  -41.0752   -7.3690 C   0  0  0  0  0  0  0  0  0  0  0  0
  -19.5273  -41.8215   -6.3093 O   0  0  0  0  0  0  0  0  0  0  0  0
  -20.5297  -40.3747   -7.8435 N   0  0  0  0  0  0  0  0  0  0  0  0
  1  2  1  0
  2  3  1  0
  2  4  1  0
  4  5  2  0
  5  6  1  0
  6  7  2  0
  7  8  1  0
  8  9  2  0
  6 10  1  0
 10 11  1  0
 11 12  1  0
 10 13  1  0
 13 14  1  0
 14 15  1  0
 15 16  1  1
 15 17  1  0
 17 18  1  6
 18 19  1  0
 19 20  2  0
 20 21  1  0
 21 22  2  0
 22 23  1  0
 23 24  2  0
 21 25  1  0
 25 26  1  0
 26 27  1  0
 27 28  2  0
 28 29  1  0
 29 30  2  0
 30 31  1  0
 31 32  2  0
 32 33  1  0
 33 34  1  0
 34 35  1  0
 35 36  2  0
 36 37  1  0
 37 38  2  0
 38 39  1  0
 39 40  1  0
 39 41  2  0
 37 42  1  0
 42 43  2  0
 42 44  1  0
  9  4  1  0
 12 10  1  0
 24 19  1  0
 32 27  1  0
 41 35  1  0
 44 17  1  0
M  END
$$$$
