
     RDKit          3D

 44 49  0  0  0  0  0  0  0  0999 V2000
  -11.8623  -43.7384  -12.9669 C   0  0  0  0  0  0  0  0  0  0  0  0
  -12.3966  -42.5252  -13.6793 C   0  0  0  0  0  0  0  0  0  0  0  0
  -13.7939  -42.8447  -14.1804 C   0  0  0  0  0  0  0  0  0  0  0  0
  -12.3825  -41.3423  -12.7832 C   0  0  0  0  0  0  0  0  0  0  0  0
  -12.6410  -41.4828  -11.4445 C   0  0  0  0  0  0  0  0  0  0  0  0
  -12.6448  -40.4038  -10.5613 C   0  0  0  0  0  0  0  0  0  0  0  0
  -12.3824  -39.1508  -11.0308 C   0  0  0  0  0  0  0  0  0  0  0  0
  -12.1168  -38.9796  -12.3844 C   0  0  0  0  0  0  0  0  0  0  0  0
  -12.1207  -40.0658  -13.2318 C   0  0  0  0  0  0  0  0  0  0  0  0
  -12.9348  -40.6679   -9.1315 C   0  0  0  0  0  0  0  0  0  0  0  0
  -11.9497  -40.2192   -8.0851 C   0  0  0  0  0  0  0  0  0  0  0  0
  -12.0462  -41.6870   -8.5095 C   0  0  0  0  0  0  0  0  0  0  0  0
  -14.3528  -40.6501   -8.7698 N   0  0  0  0  0  0  0  0  0  0  0  0
  -14.8755  -39.2989   -8.7852 C   0  0  0  0  0  0  0  0  0  0  0  0
  -15.5062  -38.9323   -7.4644 C   0  0  1  0  0  0  0  0  0  0  0  0
  -16.2543  -37.7687   -7.6997 O   0  0  0  0  0  0  0  0  0  0  0  0
  -16.4850  -39.9766   -6.9927 C   0  0  2  0  0  0  0  0  0  0  0  0
  -16.9972  -39.6198   -5.6171 C   0  0  0  0  0  0  0  0  0  0  0  0
  -18.4389  -39.1674   -5.6273 C   0  0  0  0  0  0  0  0  0  0  0  0
  -19.5848  -39.8962   -5.7462 C   0  0  0  0  0  0  0  0  0  0  0  0
  -20.8050  -39.2322   -5.7482 C   0  0  0  0  0  0  0  0  0  0  0  0
  -20.8207  -37.8290   -5.6277 C   0  0  0  0  0  0  0  0  0  0  0  0
  -19.6911  -37.0602   -5.5059 C   0  0  0  0  0  0  0  0  0  0  0  0
  -18.5150  -37.7618   -5.5090 C   0  0  0  0  0  0  0  0  0  0  0  0
  -22.0776  -39.7329   -5.8561 O   0  0  0  0  0  0  0  0  0  0  0  0
  -22.8816  -40.7081   -5.3200 C   0  0  0  0  0  0  0  0  0  0  0  0
  -23.5729  -41.5519   -6.3406 C   0  0  0  0  0  0  0  0  0  0  0  0
  -24.7111  -41.0139   -6.9458 C   0  0  0  0  0  0  0  0  0  0  0  0
  -25.4411  -41.6706   -7.8922 C   0  0  0  0  0  0  0  0  0  0  0  0
  -25.0364  -42.9226   -8.2681 C   0  0  0  0  0  0  0  0  0  0  0  0
  -23.9181  -43.4795   -7.6894 C   0  0  0  0  0  0  0  0  0  0  0  0
  -23.1595  -42.8135   -6.7152 C   0  0  0  0  0  0  0  0  0  0  0  0
  -21.9971  -43.4889   -6.1661 C   0  0  0  0  0  0  0  0  0  0  0  0
  -21.1052  -44.0865   -7.0375 O   0  0  0  0  0  0  0  0  0  0  0  0
  -19.9827  -43.6308   -7.7215 C   0  0  0  0  0  0  0  0  0  0  0  0
  -18.7462  -43.2562   -7.2346 C   0  0  0  0  0  0  0  0  0  0  0  0
  -17.8225  -42.8361   -8.1583 C   0  0  0  0  0  0  0  0  0  0  0  0
  -18.1787  -42.8160   -9.5390 C   0  0  0  0  0  0  0  0  0  0  0  0
  -19.4121  -43.1954  -10.0006 C   0  0  0  0  0  0  0  0  0  0  0  0
  -19.7091  -43.1480  -11.4526 C   0  0  0  0  0  0  0  0  0  0  0  0
  -20.2691  -43.5878   -9.0769 N   0  0  0  0  0  0  0  0  0  0  0  0
  -16.4478  -42.3213   -8.0052 C   0  0  0  0  0  0  0  0  0  0  0  0
  -15.5597  -42.8538   -8.8022 O   0  0  0  0  0  0  0  0  0  0  0  0
  -15.9615  -41.3099   -7.0973 N   0  0  0  0  0  0  0  0  0  0  0  0
  1  2  1  0
  2  3  1  0
  2  4  1  0
  4  5  2  0
  5  6  1  0
  6  7  2  0
  7  8  1  0
  8  9  2  0
  6 10  1  0
 10 11  1  0
 11 12  1  0
 10 13  1  0
 13 14  1  0
 14 15  1  0
 15 16  1  6
 15 17  1  0
 17 18  1  1
 18 19  1  0
 19 20  2  0
 20 21  1  0
 21 22  2  0
 22 23  1  0
 23 24  2  0
 21 25  1  0
 25 26  1  0
 26 27  1  0
 27 28  2  0
 28 29  1  0
 29 30  2  0
 30 31  1  0
 31 32  2  0
 32 33  1  0
 33 34  1  0
 34 35  1  0
 35 36  2  0
 36 37  1  0
 37 38  2  0
 38 39  1  0
 39 40  1  0
 39 41  2  0
 37 42  1  0
 42 43  2  0
 42 44  1  0
  9  4  1  0
 12 10  1  0
 24 19  1  0
 32 27  1  0
 41 35  1  0
 44 17  1  0
M  END
$$$$
