
     RDKit          3D

 38 40  0  0  0  0  0  0  0  0999 V2000
  -14.5019  -35.3189   -9.8613 C   0  0  0  0  0  0  0  0  0  0  0  0
  -14.3849  -36.7036   -9.3183 C   0  0  2  0  0  0  0  0  0  0  0  0
  -13.4376  -37.5783  -10.0629 C   0  0  0  0  0  0  0  0  0  0  0  0
  -12.3384  -36.8511  -10.7705 C   0  0  0  0  0  0  0  0  0  0  0  0
  -12.5320  -36.7553  -12.2686 C   0  0  0  0  0  0  0  0  0  0  0  0
  -11.5369  -37.6688  -13.0032 C   0  0  0  0  0  0  0  0  0  0  0  0
  -11.9737  -39.0780  -12.6757 C   0  0  0  0  0  0  0  0  0  0  0  0
  -11.2359  -40.1369  -13.4191 C   0  0  0  0  0  0  0  0  0  0  0  0
  -11.9543  -41.4568  -13.1609 C   0  0  0  0  0  0  0  0  0  0  0  0
  -12.5711  -41.4928  -11.7784 C   0  0  0  0  0  0  0  0  0  0  0  0
  -13.5700  -42.9433  -11.6451 S   0  0  0  0  0  6  0  0  0  0  0  0
  -14.4449  -42.9997  -12.8623 O   0  0  0  0  0  0  0  0  0  0  0  0
  -12.6116  -44.1212  -11.8014 O   0  0  0  0  0  0  0  0  0  0  0  0
  -14.4169  -43.1336  -10.1509 C   0  0  0  0  0  0  0  0  0  0  0  0
  -14.7882  -41.8935   -9.3956 C   0  0  1  0  0  0  0  0  0  0  0  0
  -13.5964  -41.3545   -8.6894 C   0  0  0  0  0  0  0  0  0  0  0  0
  -15.5965  -40.9832  -10.1764 C   0  0  0  0  0  0  0  0  0  0  0  0
  -15.8545  -41.3539  -11.3767 O   0  0  0  0  0  0  0  0  0  0  0  0
  -16.1578  -39.7409   -9.8392 N   0  0  0  0  0  0  0  0  0  0  0  0
  -15.6989  -38.7828   -8.8712 C   0  0  1  0  0  0  0  0  0  0  0  0
  -15.7785  -37.3515   -9.3337 C   0  0  0  0  0  0  0  0  0  0  0  0
  -16.5319  -38.9114   -7.6064 C   0  0  2  0  0  0  0  0  0  0  0  0
  -15.9471  -39.8329   -6.7277 O   0  0  0  0  0  0  0  0  0  0  0  0
  -17.8961  -39.4438   -7.9962 C   0  0  0  0  0  0  0  0  0  0  0  0
  -18.7752  -38.2745   -8.0534 N   0  0  0  0  0  0  0  0  0  0  0  0
  -20.1396  -38.8044   -8.1198 C   0  0  0  0  0  0  0  0  0  0  0  0
  -21.2672  -37.8489   -8.2509 C   0  0  0  0  0  0  0  0  0  0  0  0
  -20.7859  -38.6578   -9.4387 C   0  0  0  0  0  0  0  0  0  0  0  0
  -20.3157  -40.0148   -7.2995 C   0  0  0  0  0  0  0  0  0  0  0  0
  -21.1066  -40.0328   -6.1979 C   0  0  0  0  0  0  0  0  0  0  0  0
  -21.2396  -41.2043   -5.4580 C   0  0  0  0  0  0  0  0  0  0  0  0
  -20.5809  -42.3592   -5.8200 C   0  0  0  0  0  0  0  0  0  0  0  0
  -19.7871  -42.3053   -6.9423 C   0  0  0  0  0  0  0  0  0  0  0  0
  -19.6491  -41.1646   -7.6747 C   0  0  0  0  0  0  0  0  0  0  0  0
  -22.1258  -41.1500   -4.2609 C   0  0  0  0  0  0  0  0  0  0  0  0
  -22.4239  -42.5869   -3.8674 C   0  0  0  0  0  0  0  0  0  0  0  0
  -23.3742  -40.3957   -4.6470 C   0  0  0  0  0  0  0  0  0  0  0  0
  -21.4627  -40.4293   -3.1058 C   0  0  0  0  0  0  0  0  0  0  0  0
  2  1  1  6
  2  3  1  0
  3  4  1  0
  4  5  1  0
  5  6  1  0
  6  7  1  0
  7  8  1  0
  8  9  1  0
  9 10  1  0
 10 11  1  0
 11 12  2  0
 11 13  2  0
 11 14  1  0
 14 15  1  0
 15 16  1  6
 15 17  1  0
 17 18  2  0
 17 19  1  0
 19 20  1  0
 20 21  1  6
 20 22  1  0
 22 23  1  1
 22 24  1  0
 24 25  1  0
 25 26  1  0
 26 27  1  0
 27 28  1  0
 26 29  1  0
 29 30  2  0
 30 31  1  0
 31 32  2  0
 32 33  1  0
 33 34  2  0
 31 35  1  0
 35 36  1  0
 35 37  1  0
 35 38  1  0
 21  2  1  0
 28 26  1  0
 34 29  1  0
M  END
$$$$
