
     RDKit          3D

 38 40  0  0  0  0  0  0  0  0999 V2000
  -14.7526  -35.0505  -11.1351 C   0  0  0  0  0  0  0  0  0  0  0  0
  -14.3454  -36.2992  -10.4274 C   0  0  2  0  0  0  0  0  0  0  0  0
  -13.5547  -37.2478  -11.2593 C   0  0  0  0  0  0  0  0  0  0  0  0
  -12.7766  -36.6106  -12.3667 C   0  0  0  0  0  0  0  0  0  0  0  0
  -13.3858  -36.8105  -13.7377 C   0  0  0  0  0  0  0  0  0  0  0  0
  -12.5425  -37.7926  -14.5675 C   0  0  0  0  0  0  0  0  0  0  0  0
  -12.7214  -39.1354  -13.8976 C   0  0  0  0  0  0  0  0  0  0  0  0
  -12.1112  -40.2754  -14.6367 C   0  0  0  0  0  0  0  0  0  0  0  0
  -12.5876  -41.5587  -13.9650 C   0  0  0  0  0  0  0  0  0  0  0  0
  -12.7907  -41.3649  -12.4770 C   0  0  0  0  0  0  0  0  0  0  0  0
  -13.5559  -42.8146  -11.8197 S   0  0  0  0  0  6  0  0  0  0  0  0
  -14.7224  -43.1466  -12.7026 O   0  0  0  0  0  0  0  0  0  0  0  0
  -12.5601  -43.9484  -12.0500 O   0  0  0  0  0  0  0  0  0  0  0  0
  -13.9319  -42.7631  -10.1338 C   0  0  0  0  0  0  0  0  0  0  0  0
  -14.2078  -41.4239   -9.5202 C   0  0  1  0  0  0  0  0  0  0  0  0
  -12.9305  -40.6987   -9.2913 C   0  0  0  0  0  0  0  0  0  0  0  0
  -15.2912  -40.7218  -10.1721 C   0  0  0  0  0  0  0  0  0  0  0  0
  -15.8308  -41.3262  -11.1662 O   0  0  0  0  0  0  0  0  0  0  0  0
  -15.8645  -39.4695   -9.8975 N   0  0  0  0  0  0  0  0  0  0  0  0
  -15.2589  -38.3227   -9.2782 C   0  0  1  0  0  0  0  0  0  0  0  0
  -15.6130  -37.0111   -9.9288 C   0  0  0  0  0  0  0  0  0  0  0  0
  -15.6915  -38.2534   -7.8228 C   0  0  2  0  0  0  0  0  0  0  0  0
  -14.6009  -38.4948   -6.9769 O   0  0  0  0  0  0  0  0  0  0  0  0
  -16.7135  -39.3468   -7.5854 C   0  0  0  0  0  0  0  0  0  0  0  0
  -18.0036  -38.6640   -7.4715 N   0  0  0  0  0  0  0  0  0  0  0  0
  -18.9072  -39.6234   -6.8314 C   0  0  0  0  0  0  0  0  0  0  0  0
  -18.3703  -40.9479   -6.4325 C   0  0  0  0  0  0  0  0  0  0  0  0
  -18.6250  -39.8654   -5.4028 C   0  0  0  0  0  0  0  0  0  0  0  0
  -20.2841  -39.5321   -7.3458 C   0  0  0  0  0  0  0  0  0  0  0  0
  -21.0558  -40.6296   -7.5449 C   0  0  0  0  0  0  0  0  0  0  0  0
  -22.3519  -40.4876   -8.0321 C   0  0  0  0  0  0  0  0  0  0  0  0
  -22.8772  -39.2468   -8.3207 C   0  0  0  0  0  0  0  0  0  0  0  0
  -22.0670  -38.1556   -8.1071 C   0  0  0  0  0  0  0  0  0  0  0  0
  -20.7969  -38.2818   -7.6305 C   0  0  0  0  0  0  0  0  0  0  0  0
  -23.1415  -41.7368   -8.2250 C   0  0  0  0  0  0  0  0  0  0  0  0
  -24.6069  -41.3565   -8.0974 C   0  0  0  0  0  0  0  0  0  0  0  0
  -22.7144  -42.7192   -7.1624 C   0  0  0  0  0  0  0  0  0  0  0  0
  -22.8888  -42.3544   -9.5845 C   0  0  0  0  0  0  0  0  0  0  0  0
  2  1  1  6
  2  3  1  0
  3  4  1  0
  4  5  1  0
  5  6  1  0
  6  7  1  0
  7  8  1  0
  8  9  1  0
  9 10  1  0
 10 11  1  0
 11 12  2  0
 11 13  2  0
 11 14  1  0
 14 15  1  0
 15 16  1  6
 15 17  1  0
 17 18  2  0
 17 19  1  0
 19 20  1  0
 20 21  1  6
 20 22  1  0
 22 23  1  1
 22 24  1  0
 24 25  1  0
 25 26  1  0
 26 27  1  0
 27 28  1  0
 26 29  1  0
 29 30  2  0
 30 31  1  0
 31 32  2  0
 32 33  1  0
 33 34  2  0
 31 35  1  0
 35 36  1  0
 35 37  1  0
 35 38  1  0
 21  2  1  0
 28 26  1  0
 34 29  1  0
M  END
$$$$
