
     RDKit          3D

 38 40  0  0  0  0  0  0  0  0999 V2000
  -20.1282  -37.0046   -6.1518 C   0  0  0  0  0  0  0  0  0  0  0  0
  -19.5106  -38.0064   -7.0688 C   0  0  2  0  0  0  0  0  0  0  0  0
  -20.3038  -39.2549   -7.2397 C   0  0  0  0  0  0  0  0  0  0  0  0
  -21.7762  -39.0948   -7.0293 C   0  0  0  0  0  0  0  0  0  0  0  0
  -22.2695  -39.6421   -5.7072 C   0  0  0  0  0  0  0  0  0  0  0  0
  -23.0848  -40.9276   -5.9231 C   0  0  0  0  0  0  0  0  0  0  0  0
  -22.0839  -41.9608   -6.3865 C   0  0  0  0  0  0  0  0  0  0  0  0
  -22.6358  -43.3390   -6.5052 C   0  0  0  0  0  0  0  0  0  0  0  0
  -21.4592  -44.2803   -6.7389 C   0  0  0  0  0  0  0  0  0  0  0  0
  -20.3558  -43.6060   -7.5268 C   0  0  0  0  0  0  0  0  0  0  0  0
  -18.9497  -44.6744   -7.5544 S   0  0  0  0  0  6  0  0  0  0  0  0
  -18.7015  -45.1268   -6.1458 O   0  0  0  0  0  0  0  0  0  0  0  0
  -19.4008  -45.9325   -8.2920 O   0  0  0  0  0  0  0  0  0  0  0  0
  -17.5525  -44.0515   -8.3581 C   0  0  0  0  0  0  0  0  0  0  0  0
  -17.3670  -42.5645   -8.3850 C   0  0  1  0  0  0  0  0  0  0  0  0
  -18.2637  -41.9605   -9.4052 C   0  0  0  0  0  0  0  0  0  0  0  0
  -17.3359  -41.9801   -7.0625 C   0  0  0  0  0  0  0  0  0  0  0  0
  -17.4864  -42.7981   -6.0863 O   0  0  0  0  0  0  0  0  0  0  0  0
  -17.1654  -40.6464   -6.6568 N   0  0  0  0  0  0  0  0  0  0  0  0
  -17.4876  -39.4432   -7.3735 C   0  0  1  0  0  0  0  0  0  0  0  0
  -18.1196  -38.3704   -6.5258 C   0  0  0  0  0  0  0  0  0  0  0  0
  -16.2191  -38.8692   -7.9831 C   0  0  2  0  0  0  0  0  0  0  0  0
  -16.5247  -37.7850   -8.8165 O   0  0  0  0  0  0  0  0  0  0  0  0
  -15.5816  -39.9458   -8.8379 C   0  0  0  0  0  0  0  0  0  0  0  0
  -14.2233  -40.1114   -8.3171 N   0  0  0  0  0  0  0  0  0  0  0  0
  -13.4117  -40.5539   -9.4538 C   0  0  0  0  0  0  0  0  0  0  0  0
  -12.0961  -41.1849   -9.1845 C   0  0  0  0  0  0  0  0  0  0  0  0
  -13.2960  -42.0196   -9.5850 C   0  0  0  0  0  0  0  0  0  0  0  0
  -13.5613  -39.6790  -10.6290 C   0  0  0  0  0  0  0  0  0  0  0  0
  -13.3276  -38.3442  -10.5710 C   0  0  0  0  0  0  0  0  0  0  0  0
  -13.4826  -37.5623  -11.7121 C   0  0  0  0  0  0  0  0  0  0  0  0
  -13.8718  -38.1155  -12.9125 C   0  0  0  0  0  0  0  0  0  0  0  0
  -14.1005  -39.4719  -12.9354 C   0  0  0  0  0  0  0  0  0  0  0  0
  -13.9521  -40.2478  -11.8253 C   0  0  0  0  0  0  0  0  0  0  0  0
  -13.2076  -36.1040  -11.5739 C   0  0  0  0  0  0  0  0  0  0  0  0
  -14.3632  -35.5100  -10.7865 C   0  0  0  0  0  0  0  0  0  0  0  0
  -13.1067  -35.5218  -12.9622 C   0  0  0  0  0  0  0  0  0  0  0  0
  -11.9051  -35.8465  -10.8455 C   0  0  0  0  0  0  0  0  0  0  0  0
  2  1  1  1
  2  3  1  0
  3  4  1  0
  4  5  1  0
  5  6  1  0
  6  7  1  0
  7  8  1  0
  8  9  1  0
  9 10  1  0
 10 11  1  0
 11 12  2  0
 11 13  2  0
 11 14  1  0
 14 15  1  0
 15 16  1  6
 15 17  1  0
 17 18  2  0
 17 19  1  0
 19 20  1  0
 20 21  1  1
 20 22  1  0
 22 23  1  6
 22 24  1  0
 24 25  1  0
 25 26  1  0
 26 27  1  0
 27 28  1  0
 26 29  1  0
 29 30  2  0
 30 31  1  0
 31 32  2  0
 32 33  1  0
 33 34  2  0
 31 35  1  0
 35 36  1  0
 35 37  1  0
 35 38  1  0
 21  2  1  0
 28 26  1  0
 34 29  1  0
M  END
$$$$
