
     RDKit          3D

 38 40  0  0  0  0  0  0  0  0999 V2000
  -19.6897  -36.6747   -7.0385 C   0  0  0  0  0  0  0  0  0  0  0  0
  -19.4615  -37.9176   -7.8316 C   0  0  2  0  0  0  0  0  0  0  0  0
  -20.3923  -39.0336   -7.5076 C   0  0  0  0  0  0  0  0  0  0  0  0
  -21.7209  -38.6046   -6.9702 C   0  0  0  0  0  0  0  0  0  0  0  0
  -21.8722  -38.8053   -5.4777 C   0  0  0  0  0  0  0  0  0  0  0  0
  -22.8406  -39.9623   -5.1818 C   0  0  0  0  0  0  0  0  0  0  0  0
  -22.1215  -41.2103   -5.6393 C   0  0  0  0  0  0  0  0  0  0  0  0
  -22.8205  -42.4805   -5.2984 C   0  0  0  0  0  0  0  0  0  0  0  0
  -21.8594  -43.6238   -5.6055 C   0  0  0  0  0  0  0  0  0  0  0  0
  -20.9622  -43.2954   -6.7803 C   0  0  0  0  0  0  0  0  0  0  0  0
  -19.7368  -44.5592   -6.9234 S   0  0  0  0  0  6  0  0  0  0  0  0
  -19.1468  -44.7694   -5.5603 O   0  0  0  0  0  0  0  0  0  0  0  0
  -20.5028  -45.8466   -7.2171 O   0  0  0  0  0  0  0  0  0  0  0  0
  -18.5689  -44.3304   -8.1763 C   0  0  0  0  0  0  0  0  0  0  0  0
  -18.2496  -42.9243   -8.5853 C   0  0  1  0  0  0  0  0  0  0  0  0
  -19.3328  -42.3904   -9.4520 C   0  0  0  0  0  0  0  0  0  0  0  0
  -17.7865  -42.1118   -7.4821 C   0  0  0  0  0  0  0  0  0  0  0  0
  -17.7361  -42.6950   -6.3410 O   0  0  0  0  0  0  0  0  0  0  0  0
  -17.3744  -40.7697   -7.4458 N   0  0  0  0  0  0  0  0  0  0  0  0
  -17.7633  -39.6889   -8.3095 C   0  0  1  0  0  0  0  0  0  0  0  0
  -18.0178  -38.3881   -7.5939 C   0  0  0  0  0  0  0  0  0  0  0  0
  -16.6681  -39.4501   -9.3360 C   0  0  2  0  0  0  0  0  0  0  0  0
  -17.2239  -39.2606  -10.6082 O   0  0  0  0  0  0  0  0  0  0  0  0
  -15.7984  -40.6899   -9.3900 C   0  0  0  0  0  0  0  0  0  0  0  0
  -14.5591  -40.3338   -8.6966 N   0  0  0  0  0  0  0  0  0  0  0  0
  -13.4799  -40.5838   -9.6555 C   0  0  0  0  0  0  0  0  0  0  0  0
  -12.1099  -40.8211   -9.1373 C   0  0  0  0  0  0  0  0  0  0  0  0
  -12.9634  -41.9666   -9.6435 C   0  0  0  0  0  0  0  0  0  0  0  0
  -13.6529  -39.8308  -10.9093 C   0  0  0  0  0  0  0  0  0  0  0  0
  -13.1572  -38.5794  -11.0754 C   0  0  0  0  0  0  0  0  0  0  0  0
  -13.3478  -37.9118  -12.2818 C   0  0  0  0  0  0  0  0  0  0  0  0
  -14.0349  -38.4961  -13.3234 C   0  0  0  0  0  0  0  0  0  0  0  0
  -14.5241  -39.7658  -13.1207 C   0  0  0  0  0  0  0  0  0  0  0  0
  -14.3439  -40.4295  -11.9445 C   0  0  0  0  0  0  0  0  0  0  0  0
  -12.7745  -36.5405  -12.3927 C   0  0  0  0  0  0  0  0  0  0  0  0
  -13.1062  -36.0353  -13.7866 C   0  0  0  0  0  0  0  0  0  0  0  0
  -11.2866  -36.6445  -12.1648 C   0  0  0  0  0  0  0  0  0  0  0  0
  -13.3585  -35.6041  -11.3556 C   0  0  0  0  0  0  0  0  0  0  0  0
  2  1  1  1
  2  3  1  0
  3  4  1  0
  4  5  1  0
  5  6  1  0
  6  7  1  0
  7  8  1  0
  8  9  1  0
  9 10  1  0
 10 11  1  0
 11 12  2  0
 11 13  2  0
 11 14  1  0
 14 15  1  0
 15 16  1  1
 15 17  1  0
 17 18  2  0
 17 19  1  0
 19 20  1  0
 20 21  1  1
 20 22  1  0
 22 23  1  6
 22 24  1  0
 24 25  1  0
 25 26  1  0
 26 27  1  0
 27 28  1  0
 26 29  1  0
 29 30  2  0
 30 31  1  0
 31 32  2  0
 32 33  1  0
 33 34  2  0
 31 35  1  0
 35 36  1  0
 35 37  1  0
 35 38  1  0
 21  2  1  0
 28 26  1  0
 34 29  1  0
M  END
$$$$
