
     RDKit          3D

 38 40  0  0  0  0  0  0  0  0999 V2000
  -20.8014  -37.7154   -5.6087 C   0  0  0  0  0  0  0  0  0  0  0  0
  -20.3616  -38.6197   -6.7108 C   0  0  2  0  0  0  0  0  0  0  0  0
  -21.0864  -39.9191   -6.7665 C   0  0  0  0  0  0  0  0  0  0  0  0
  -22.4694  -39.8894   -6.1972 C   0  0  0  0  0  0  0  0  0  0  0  0
  -22.5851  -40.5362   -4.8337 C   0  0  0  0  0  0  0  0  0  0  0  0
  -23.3398  -41.8723   -4.9299 C   0  0  0  0  0  0  0  0  0  0  0  0
  -22.4158  -42.7978   -5.6874 C   0  0  0  0  0  0  0  0  0  0  0  0
  -22.8856  -44.2093   -5.7591 C   0  0  0  0  0  0  0  0  0  0  0  0
  -21.7415  -45.0398   -6.3304 C   0  0  0  0  0  0  0  0  0  0  0  0
  -20.9134  -44.2418   -7.3155 C   0  0  0  0  0  0  0  0  0  0  0  0
  -19.4882  -45.1898   -7.7509 S   0  0  0  0  0  6  0  0  0  0  0  0
  -18.8720  -45.6859   -6.4764 O   0  0  0  0  0  0  0  0  0  0  0  0
  -20.0205  -46.4446   -8.4384 O   0  0  0  0  0  0  0  0  0  0  0  0
  -18.3763  -44.4184   -8.8255 C   0  0  0  0  0  0  0  0  0  0  0  0
  -18.3039  -42.9217   -8.7994 C   0  0  1  0  0  0  0  0  0  0  0  0
  -19.4622  -42.3456   -9.5316 C   0  0  0  0  0  0  0  0  0  0  0  0
  -17.9887  -42.3991   -7.4882 C   0  0  0  0  0  0  0  0  0  0  0  0
  -17.8395  -43.2714   -6.5599 O   0  0  0  0  0  0  0  0  0  0  0  0
  -17.8143  -41.0765   -7.0495 N   0  0  0  0  0  0  0  0  0  0  0  0
  -18.3830  -39.8712   -7.5874 C   0  0  1  0  0  0  0  0  0  0  0  0
  -18.8586  -38.8942   -6.5442 C   0  0  0  0  0  0  0  0  0  0  0  0
  -17.3446  -39.1680   -8.4461 C   0  0  2  0  0  0  0  0  0  0  0  0
  -17.8811  -38.8529   -9.7016 O   0  0  0  0  0  0  0  0  0  0  0  0
  -16.1898  -40.1251   -8.6623 C   0  0  0  0  0  0  0  0  0  0  0  0
  -15.2284  -39.4023   -9.4971 N   0  0  0  0  0  0  0  0  0  0  0  0
  -14.6494  -40.4036  -10.3965 C   0  0  0  0  0  0  0  0  0  0  0  0
  -14.1664  -41.6823   -9.8193 C   0  0  0  0  0  0  0  0  0  0  0  0
  -15.4778  -41.6122  -10.5756 C   0  0  0  0  0  0  0  0  0  0  0  0
  -13.9101  -39.7965  -11.5162 C   0  0  0  0  0  0  0  0  0  0  0  0
  -13.6111  -38.4741  -11.5527 C   0  0  0  0  0  0  0  0  0  0  0  0
  -12.9087  -37.9510  -12.6345 C   0  0  0  0  0  0  0  0  0  0  0  0
  -12.5047  -38.7510  -13.6812 C   0  0  0  0  0  0  0  0  0  0  0  0
  -12.8248  -40.0872  -13.6117 C   0  0  0  0  0  0  0  0  0  0  0  0
  -13.5118  -40.6109  -12.5581 C   0  0  0  0  0  0  0  0  0  0  0  0
  -12.6148  -36.4901  -12.6062 C   0  0  0  0  0  0  0  0  0  0  0  0
  -13.9504  -35.7701  -12.6844 C   0  0  0  0  0  0  0  0  0  0  0  0
  -11.7298  -36.1764  -13.7872 C   0  0  0  0  0  0  0  0  0  0  0  0
  -11.8899  -36.0894  -11.3384 C   0  0  0  0  0  0  0  0  0  0  0  0
  2  1  1  1
  2  3  1  0
  3  4  1  0
  4  5  1  0
  5  6  1  0
  6  7  1  0
  7  8  1  0
  8  9  1  0
  9 10  1  0
 10 11  1  0
 11 12  2  0
 11 13  2  0
 11 14  1  0
 14 15  1  0
 15 16  1  1
 15 17  1  0
 17 18  2  0
 17 19  1  0
 19 20  1  0
 20 21  1  1
 20 22  1  0
 22 23  1  6
 22 24  1  0
 24 25  1  0
 25 26  1  0
 26 27  1  0
 27 28  1  0
 26 29  1  0
 29 30  2  0
 30 31  1  0
 31 32  2  0
 32 33  1  0
 33 34  2  0
 31 35  1  0
 35 36  1  0
 35 37  1  0
 35 38  1  0
 21  2  1  0
 28 26  1  0
 34 29  1  0
M  END
$$$$
