
     RDKit          3D

 38 40  0  0  0  0  0  0  0  0999 V2000
  -20.3582  -37.5134   -5.5352 C   0  0  0  0  0  0  0  0  0  0  0  0
  -19.7895  -38.3569   -6.6265 C   0  0  2  0  0  0  0  0  0  0  0  0
  -20.5192  -39.6334   -6.8611 C   0  0  0  0  0  0  0  0  0  0  0  0
  -21.9649  -39.6075   -6.4776 C   0  0  0  0  0  0  0  0  0  0  0  0
  -22.2697  -40.3354   -5.1860 C   0  0  0  0  0  0  0  0  0  0  0  0
  -23.0243  -41.6452   -5.4671 C   0  0  0  0  0  0  0  0  0  0  0  0
  -22.0216  -42.5425   -6.1552 C   0  0  0  0  0  0  0  0  0  0  0  0
  -22.4982  -43.9356   -6.3795 C   0  0  0  0  0  0  0  0  0  0  0  0
  -21.3008  -44.7549   -6.8484 C   0  0  0  0  0  0  0  0  0  0  0  0
  -20.3379  -43.9162   -7.6623 C   0  0  0  0  0  0  0  0  0  0  0  0
  -18.8815  -44.8676   -7.9674 S   0  0  0  0  0  6  0  0  0  0  0  0
  -18.4469  -45.4564   -6.6579 O   0  0  0  0  0  0  0  0  0  0  0  0
  -19.3362  -46.0645   -8.7988 O   0  0  0  0  0  0  0  0  0  0  0  0
  -17.6259  -44.0564   -8.8343 C   0  0  0  0  0  0  0  0  0  0  0  0
  -17.5358  -42.5663   -8.7017 C   0  0  1  0  0  0  0  0  0  0  0  0
  -18.5784  -41.9191   -9.5407 C   0  0  0  0  0  0  0  0  0  0  0  0
  -17.3897  -42.1340   -7.3293 C   0  0  0  0  0  0  0  0  0  0  0  0
  -17.3774  -43.0658   -6.4482 O   0  0  0  0  0  0  0  0  0  0  0  0
  -17.2556  -40.8457   -6.7866 N   0  0  0  0  0  0  0  0  0  0  0  0
  -17.7305  -39.5965   -7.3151 C   0  0  1  0  0  0  0  0  0  0  0  0
  -18.3259  -38.6758   -6.2822 C   0  0  0  0  0  0  0  0  0  0  0  0
  -16.5774  -38.8651   -7.9825 C   0  0  2  0  0  0  0  0  0  0  0  0
  -17.0509  -37.7603   -8.7025 O   0  0  0  0  0  0  0  0  0  0  0  0
  -15.9269  -39.8159   -8.9670 C   0  0  0  0  0  0  0  0  0  0  0  0
  -14.6690  -40.2310   -8.3433 N   0  0  0  0  0  0  0  0  0  0  0  0
  -13.6222  -39.9432   -9.3272 C   0  0  0  0  0  0  0  0  0  0  0  0
  -12.2036  -40.0282   -8.9006 C   0  0  0  0  0  0  0  0  0  0  0  0
  -12.8343  -41.1213   -9.7398 C   0  0  0  0  0  0  0  0  0  0  0  0
  -14.0218  -38.9014  -10.2884 C   0  0  0  0  0  0  0  0  0  0  0  0
  -13.1149  -38.2012  -11.0142 C   0  0  0  0  0  0  0  0  0  0  0  0
  -13.5461  -37.2275  -11.9105 C   0  0  0  0  0  0  0  0  0  0  0  0
  -14.8857  -36.9535  -12.0813 C   0  0  0  0  0  0  0  0  0  0  0  0
  -15.7778  -37.6822  -11.3291 C   0  0  0  0  0  0  0  0  0  0  0  0
  -15.3679  -38.6379  -10.4487 C   0  0  0  0  0  0  0  0  0  0  0  0
  -12.4938  -36.4991  -12.6742 C   0  0  0  0  0  0  0  0  0  0  0  0
  -13.1658  -35.2954  -13.3128 C   0  0  0  0  0  0  0  0  0  0  0  0
  -11.9320  -37.4490  -13.7031 C   0  0  0  0  0  0  0  0  0  0  0  0
  -11.3662  -36.0389  -11.7740 C   0  0  0  0  0  0  0  0  0  0  0  0
  2  1  1  1
  2  3  1  0
  3  4  1  0
  4  5  1  0
  5  6  1  0
  6  7  1  0
  7  8  1  0
  8  9  1  0
  9 10  1  0
 10 11  1  0
 11 12  2  0
 11 13  2  0
 11 14  1  0
 14 15  1  0
 15 16  1  1
 15 17  1  0
 17 18  2  0
 17 19  1  0
 19 20  1  0
 20 21  1  1
 20 22  1  0
 22 23  1  6
 22 24  1  0
 24 25  1  0
 25 26  1  0
 26 27  1  0
 27 28  1  0
 26 29  1  0
 29 30  2  0
 30 31  1  0
 31 32  2  0
 32 33  1  0
 33 34  2  0
 31 35  1  0
 35 36  1  0
 35 37  1  0
 35 38  1  0
 21  2  1  0
 28 26  1  0
 34 29  1  0
M  END
$$$$
