
     RDKit          3D

 38 40  0  0  0  0  0  0  0  0999 V2000
  -20.8463  -37.7299   -6.5507 C   0  0  0  0  0  0  0  0  0  0  0  0
  -19.9813  -38.6264   -7.3718 C   0  0  2  0  0  0  0  0  0  0  0  0
  -20.5224  -40.0008   -7.5589 C   0  0  0  0  0  0  0  0  0  0  0  0
  -22.0128  -40.1030   -7.4796 C   0  0  0  0  0  0  0  0  0  0  0  0
  -22.5182  -40.6978   -6.1828 C   0  0  0  0  0  0  0  0  0  0  0  0
  -23.0704  -42.1139   -6.4150 C   0  0  0  0  0  0  0  0  0  0  0  0
  -21.8649  -42.9612   -6.7510 C   0  0  0  0  0  0  0  0  0  0  0  0
  -22.1512  -44.4187   -6.8606 C   0  0  0  0  0  0  0  0  0  0  0  0
  -20.8105  -45.1384   -6.9568 C   0  0  0  0  0  0  0  0  0  0  0  0
  -19.7776  -44.2960   -7.6754 C   0  0  0  0  0  0  0  0  0  0  0  0
  -18.2079  -45.0946   -7.5419 S   0  0  0  0  0  6  0  0  0  0  0  0
  -18.0112  -45.4607   -6.1006 O   0  0  0  0  0  0  0  0  0  0  0  0
  -18.3611  -46.4308   -8.2640 O   0  0  0  0  0  0  0  0  0  0  0  0
  -16.8765  -44.2503   -8.2495 C   0  0  0  0  0  0  0  0  0  0  0  0
  -16.9554  -42.7553   -8.3201 C   0  0  1  0  0  0  0  0  0  0  0  0
  -17.8495  -42.3473   -9.4353 C   0  0  0  0  0  0  0  0  0  0  0  0
  -17.1473  -42.1429   -7.0240 C   0  0  0  0  0  0  0  0  0  0  0  0
  -17.2377  -42.9507   -6.0320 O   0  0  0  0  0  0  0  0  0  0  0  0
  -17.2526  -40.7909   -6.6589 N   0  0  0  0  0  0  0  0  0  0  0  0
  -17.7169  -39.6829   -7.4477 C   0  0  1  0  0  0  0  0  0  0  0  0
  -18.6024  -38.7210   -6.6997 C   0  0  0  0  0  0  0  0  0  0  0  0
  -16.5204  -38.9052   -7.9708 C   0  0  2  0  0  0  0  0  0  0  0  0
  -16.8633  -37.5626   -8.1785 O   0  0  0  0  0  0  0  0  0  0  0  0
  -16.1271  -39.4957   -9.3098 C   0  0  0  0  0  0  0  0  0  0  0  0
  -14.7346  -39.9224   -9.1599 N   0  0  0  0  0  0  0  0  0  0  0  0
  -14.0197  -39.3611  -10.3091 C   0  0  0  0  0  0  0  0  0  0  0  0
  -12.5624  -39.6119  -10.4308 C   0  0  0  0  0  0  0  0  0  0  0  0
  -13.5594  -40.3647  -11.2888 C   0  0  0  0  0  0  0  0  0  0  0  0
  -14.5617  -38.0578  -10.7295 C   0  0  0  0  0  0  0  0  0  0  0  0
  -14.2341  -37.4872  -11.9155 C   0  0  0  0  0  0  0  0  0  0  0  0
  -14.7758  -36.2537  -12.2653 C   0  0  0  0  0  0  0  0  0  0  0  0
  -15.6460  -35.5897  -11.4283 C   0  0  0  0  0  0  0  0  0  0  0  0
  -15.9563  -36.1971  -10.2335 C   0  0  0  0  0  0  0  0  0  0  0  0
  -15.4327  -37.4043   -9.8800 C   0  0  0  0  0  0  0  0  0  0  0  0
  -14.3718  -35.6881  -13.5837 C   0  0  0  0  0  0  0  0  0  0  0  0
  -13.0160  -36.2842  -13.9225 C   0  0  0  0  0  0  0  0  0  0  0  0
  -14.3134  -34.1871  -13.4415 C   0  0  0  0  0  0  0  0  0  0  0  0
  -15.3691  -36.0327  -14.6700 C   0  0  0  0  0  0  0  0  0  0  0  0
  2  1  1  1
  2  3  1  0
  3  4  1  0
  4  5  1  0
  5  6  1  0
  6  7  1  0
  7  8  1  0
  8  9  1  0
  9 10  1  0
 10 11  1  0
 11 12  2  0
 11 13  2  0
 11 14  1  0
 14 15  1  0
 15 16  1  6
 15 17  1  0
 17 18  2  0
 17 19  1  0
 19 20  1  0
 20 21  1  1
 20 22  1  0
 22 23  1  6
 22 24  1  0
 24 25  1  0
 25 26  1  0
 26 27  1  0
 27 28  1  0
 26 29  1  0
 29 30  2  0
 30 31  1  0
 31 32  2  0
 32 33  1  0
 33 34  2  0
 31 35  1  0
 35 36  1  0
 35 37  1  0
 35 38  1  0
 21  2  1  0
 28 26  1  0
 34 29  1  0
M  END
$$$$
