
     RDKit          3D

 38 40  0  0  0  0  0  0  0  0999 V2000
  -18.7779  -37.1850   -7.3028 C   0  0  0  0  0  0  0  0  0  0  0  0
  -18.3012  -38.5229   -7.7594 C   0  0  2  0  0  0  0  0  0  0  0  0
  -19.3638  -39.5635   -7.8297 C   0  0  0  0  0  0  0  0  0  0  0  0
  -20.7443  -39.0340   -8.0572 C   0  0  0  0  0  0  0  0  0  0  0  0
  -21.6159  -39.0428   -6.8198 C   0  0  0  0  0  0  0  0  0  0  0  0
  -22.7011  -40.1265   -6.9290 C   0  0  0  0  0  0  0  0  0  0  0  0
  -21.9599  -41.4413   -6.8535 C   0  0  0  0  0  0  0  0  0  0  0  0
  -22.8420  -42.6391   -6.7807 C   0  0  0  0  0  0  0  0  0  0  0  0
  -21.9540  -43.8381   -6.4662 C   0  0  0  0  0  0  0  0  0  0  0  0
  -20.5759  -43.6839   -7.0744 C   0  0  0  0  0  0  0  0  0  0  0  0
  -19.5473  -44.9892   -6.4767 S   0  0  0  0  0  6  0  0  0  0  0  0
  -19.7115  -45.0442   -4.9866 O   0  0  0  0  0  0  0  0  0  0  0  0
  -20.1819  -46.2814   -6.9847 O   0  0  0  0  0  0  0  0  0  0  0  0
  -17.9041  -44.9510   -7.0102 C   0  0  0  0  0  0  0  0  0  0  0  0
  -17.3081  -43.6164   -7.3413 C   0  0  1  0  0  0  0  0  0  0  0  0
  -17.7861  -43.1647   -8.6744 C   0  0  0  0  0  0  0  0  0  0  0  0
  -17.3697  -42.6859   -6.2358 C   0  0  0  0  0  0  0  0  0  0  0  0
  -17.9281  -43.1234   -5.1674 O   0  0  0  0  0  0  0  0  0  0  0  0
  -16.9139  -41.3618   -6.1297 N   0  0  0  0  0  0  0  0  0  0  0  0
  -16.7421  -40.3866   -7.1713 C   0  0  1  0  0  0  0  0  0  0  0  0
  -17.1993  -39.0001   -6.8002 C   0  0  0  0  0  0  0  0  0  0  0  0
  -15.2711  -40.3082   -7.5454 C   0  0  2  0  0  0  0  0  0  0  0  0
  -14.5205  -39.8061   -6.4740 O   0  0  0  0  0  0  0  0  0  0  0  0
  -15.1330  -39.3395   -8.7025 C   0  0  0  0  0  0  0  0  0  0  0  0
  -13.7428  -39.4513   -9.1479 N   0  0  0  0  0  0  0  0  0  0  0  0
  -13.8041  -39.9438  -10.5264 C   0  0  0  0  0  0  0  0  0  0  0  0
  -12.8057  -40.9492  -10.9666 C   0  0  0  0  0  0  0  0  0  0  0  0
  -14.2326  -41.3509  -10.6513 C   0  0  0  0  0  0  0  0  0  0  0  0
  -14.2489  -38.9099  -11.4761 C   0  0  0  0  0  0  0  0  0  0  0  0
  -15.1653  -37.9675  -11.1421 C   0  0  0  0  0  0  0  0  0  0  0  0
  -15.5503  -37.0115  -12.0776 C   0  0  0  0  0  0  0  0  0  0  0  0
  -15.0185  -36.9976  -13.3487 C   0  0  0  0  0  0  0  0  0  0  0  0
  -14.0919  -37.9678  -13.6535 C   0  0  0  0  0  0  0  0  0  0  0  0
  -13.7070  -38.9088  -12.7464 C   0  0  0  0  0  0  0  0  0  0  0  0
  -16.5606  -36.0069  -11.6401 C   0  0  0  0  0  0  0  0  0  0  0  0
  -16.2571  -34.7208  -12.3897 C   0  0  0  0  0  0  0  0  0  0  0  0
  -16.4257  -35.8399  -10.1466 C   0  0  0  0  0  0  0  0  0  0  0  0
  -17.9718  -36.4604  -11.9506 C   0  0  0  0  0  0  0  0  0  0  0  0
  2  1  1  1
  2  3  1  0
  3  4  1  0
  4  5  1  0
  5  6  1  0
  6  7  1  0
  7  8  1  0
  8  9  1  0
  9 10  1  0
 10 11  1  0
 11 12  2  0
 11 13  2  0
 11 14  1  0
 14 15  1  0
 15 16  1  6
 15 17  1  0
 17 18  2  0
 17 19  1  0
 19 20  1  0
 20 21  1  1
 20 22  1  0
 22 23  1  1
 22 24  1  0
 24 25  1  0
 25 26  1  0
 26 27  1  0
 27 28  1  0
 26 29  1  0
 29 30  2  0
 30 31  1  0
 31 32  2  0
 32 33  1  0
 33 34  2  0
 31 35  1  0
 35 36  1  0
 35 37  1  0
 35 38  1  0
 21  2  1  0
 28 26  1  0
 34 29  1  0
M  END
$$$$
