
     RDKit          3D

 38 40  0  0  0  0  0  0  0  0999 V2000
  -20.5418  -37.2158   -6.4288 C   0  0  0  0  0  0  0  0  0  0  0  0
  -20.0357  -38.2260   -7.4031 C   0  0  2  0  0  0  0  0  0  0  0  0
  -20.8184  -39.4921   -7.4389 C   0  0  0  0  0  0  0  0  0  0  0  0
  -22.2508  -39.3542   -7.0301 C   0  0  0  0  0  0  0  0  0  0  0  0
  -22.5456  -39.8815   -5.6422 C   0  0  0  0  0  0  0  0  0  0  0  0
  -23.3557  -41.1860   -5.7188 C   0  0  0  0  0  0  0  0  0  0  0  0
  -22.4067  -42.2106   -6.2964 C   0  0  0  0  0  0  0  0  0  0  0  0
  -22.9406  -43.6010   -6.3114 C   0  0  0  0  0  0  0  0  0  0  0  0
  -21.7879  -44.5256   -6.6875 C   0  0  0  0  0  0  0  0  0  0  0  0
  -20.8181  -43.8486   -7.6331 C   0  0  0  0  0  0  0  0  0  0  0  0
  -19.4071  -44.8916   -7.8344 S   0  0  0  0  0  6  0  0  0  0  0  0
  -18.9577  -45.3086   -6.4653 O   0  0  0  0  0  0  0  0  0  0  0  0
  -19.9290  -46.1735   -8.4784 O   0  0  0  0  0  0  0  0  0  0  0  0
  -18.1474  -44.2611   -8.8353 C   0  0  0  0  0  0  0  0  0  0  0  0
  -17.9986  -42.7719   -8.9159 C   0  0  1  0  0  0  0  0  0  0  0  0
  -19.0399  -42.2067   -9.8136 C   0  0  0  0  0  0  0  0  0  0  0  0
  -17.7979  -42.1583   -7.6218 C   0  0  0  0  0  0  0  0  0  0  0  0
  -17.7951  -42.9575   -6.6187 O   0  0  0  0  0  0  0  0  0  0  0  0
  -17.6011  -40.8133   -7.2690 N   0  0  0  0  0  0  0  0  0  0  0  0
  -18.0442  -39.6320   -7.9571 C   0  0  1  0  0  0  0  0  0  0  0  0
  -18.5758  -38.5527   -7.0508 C   0  0  0  0  0  0  0  0  0  0  0  0
  -16.8842  -39.0485   -8.7470 C   0  0  2  0  0  0  0  0  0  0  0  0
  -17.2962  -38.7113  -10.0431 O   0  0  0  0  0  0  0  0  0  0  0  0
  -15.8136  -40.1146   -8.8634 C   0  0  0  0  0  0  0  0  0  0  0  0
  -14.5366  -39.4021   -8.7900 N   0  0  0  0  0  0  0  0  0  0  0  0
  -14.0176  -39.3721  -10.1598 C   0  0  0  0  0  0  0  0  0  0  0  0
  -13.8072  -40.6587  -10.8681 C   0  0  0  0  0  0  0  0  0  0  0  0
  -14.9952  -39.7744  -11.1900 C   0  0  0  0  0  0  0  0  0  0  0  0
  -13.0684  -38.2677  -10.3799 C   0  0  0  0  0  0  0  0  0  0  0  0
  -12.8141  -37.7682  -11.6149 C   0  0  0  0  0  0  0  0  0  0  0  0
  -11.9084  -36.7224  -11.7677 C   0  0  0  0  0  0  0  0  0  0  0  0
  -11.2562  -36.1752  -10.6843 C   0  0  0  0  0  0  0  0  0  0  0  0
  -11.5377  -36.7059   -9.4466 C   0  0  0  0  0  0  0  0  0  0  0  0
  -12.4222  -37.7294   -9.2844 C   0  0  0  0  0  0  0  0  0  0  0  0
  -11.6797  -36.2241  -13.1536 C   0  0  0  0  0  0  0  0  0  0  0  0
  -10.5916  -37.0936  -13.7608 C   0  0  0  0  0  0  0  0  0  0  0  0
  -11.2641  -34.7767  -13.0589 C   0  0  0  0  0  0  0  0  0  0  0  0
  -12.9357  -36.3129  -13.9949 C   0  0  0  0  0  0  0  0  0  0  0  0
  2  1  1  1
  2  3  1  0
  3  4  1  0
  4  5  1  0
  5  6  1  0
  6  7  1  0
  7  8  1  0
  8  9  1  0
  9 10  1  0
 10 11  1  0
 11 12  2  0
 11 13  2  0
 11 14  1  0
 14 15  1  0
 15 16  1  1
 15 17  1  0
 17 18  2  0
 17 19  1  0
 19 20  1  0
 20 21  1  1
 20 22  1  0
 22 23  1  6
 22 24  1  0
 24 25  1  0
 25 26  1  0
 26 27  1  0
 27 28  1  0
 26 29  1  0
 29 30  2  0
 30 31  1  0
 31 32  2  0
 32 33  1  0
 33 34  2  0
 31 35  1  0
 35 36  1  0
 35 37  1  0
 35 38  1  0
 21  2  1  0
 28 26  1  0
 34 29  1  0
M  END
$$$$
