
     RDKit          3D

 38 40  0  0  0  0  0  0  0  0999 V2000
  -19.7630  -36.9339   -7.2484 C   0  0  0  0  0  0  0  0  0  0  0  0
  -19.5477  -38.1744   -8.0489 C   0  0  2  0  0  0  0  0  0  0  0  0
  -20.4576  -39.2992   -7.6972 C   0  0  0  0  0  0  0  0  0  0  0  0
  -21.7729  -38.8829   -7.1189 C   0  0  0  0  0  0  0  0  0  0  0  0
  -21.8764  -39.0856   -5.6225 C   0  0  0  0  0  0  0  0  0  0  0  0
  -22.8244  -40.2518   -5.2978 C   0  0  0  0  0  0  0  0  0  0  0  0
  -22.1079  -41.4928   -5.7780 C   0  0  0  0  0  0  0  0  0  0  0  0
  -22.7841  -42.7696   -5.4166 C   0  0  0  0  0  0  0  0  0  0  0  0
  -21.8223  -43.9037   -5.7538 C   0  0  0  0  0  0  0  0  0  0  0  0
  -20.9648  -43.5665   -6.9554 C   0  0  0  0  0  0  0  0  0  0  0  0
  -19.7325  -44.8186   -7.1370 S   0  0  0  0  0  6  0  0  0  0  0  0
  -19.0989  -45.0237   -5.7928 O   0  0  0  0  0  0  0  0  0  0  0  0
  -20.4950  -46.1130   -7.4079 O   0  0  0  0  0  0  0  0  0  0  0  0
  -18.6059  -44.5783   -8.4251 C   0  0  0  0  0  0  0  0  0  0  0  0
  -18.3125  -43.1692   -8.8428 C   0  0  1  0  0  0  0  0  0  0  0  0
  -19.4268  -42.6451   -9.6755 C   0  0  0  0  0  0  0  0  0  0  0  0
  -17.8234  -42.3527   -7.7538 C   0  0  0  0  0  0  0  0  0  0  0  0
  -17.7324  -42.9358   -6.6152 O   0  0  0  0  0  0  0  0  0  0  0  0
  -17.4230  -41.0069   -7.7293 N   0  0  0  0  0  0  0  0  0  0  0  0
  -17.8484  -39.9294   -8.5799 C   0  0  1  0  0  0  0  0  0  0  0  0
  -18.0930  -38.6313   -7.8560 C   0  0  0  0  0  0  0  0  0  0  0  0
  -16.7876  -39.6800   -9.6395 C   0  0  2  0  0  0  0  0  0  0  0  0
  -17.3422  -39.7906  -10.9215 O   0  0  0  0  0  0  0  0  0  0  0  0
  -15.7252  -40.7514   -9.4999 C   0  0  0  0  0  0  0  0  0  0  0  0
  -14.4786  -40.0374   -9.2172 N   0  0  0  0  0  0  0  0  0  0  0  0
  -13.4402  -40.7287   -9.9857 C   0  0  0  0  0  0  0  0  0  0  0  0
  -12.5273  -41.6559   -9.2726 C   0  0  0  0  0  0  0  0  0  0  0  0
  -13.6582  -42.1810  -10.1341 C   0  0  0  0  0  0  0  0  0  0  0  0
  -12.9117  -39.9066  -11.0874 C   0  0  0  0  0  0  0  0  0  0  0  0
  -12.8323  -38.5550  -11.0073 C   0  0  0  0  0  0  0  0  0  0  0  0
  -12.3233  -37.8250  -12.0775 C   0  0  0  0  0  0  0  0  0  0  0  0
  -11.8932  -38.4470  -13.2294 C   0  0  0  0  0  0  0  0  0  0  0  0
  -11.9882  -39.8187  -13.2766 C   0  0  0  0  0  0  0  0  0  0  0  0
  -12.4845  -40.5442  -12.2356 C   0  0  0  0  0  0  0  0  0  0  0  0
  -12.2651  -36.3443  -11.9181 C   0  0  0  0  0  0  0  0  0  0  0  0
  -11.3215  -36.0620  -10.7613 C   0  0  0  0  0  0  0  0  0  0  0  0
  -13.6658  -35.8565  -11.6412 C   0  0  0  0  0  0  0  0  0  0  0  0
  -11.7556  -35.6659  -13.1725 C   0  0  0  0  0  0  0  0  0  0  0  0
  2  1  1  1
  2  3  1  0
  3  4  1  0
  4  5  1  0
  5  6  1  0
  6  7  1  0
  7  8  1  0
  8  9  1  0
  9 10  1  0
 10 11  1  0
 11 12  2  0
 11 13  2  0
 11 14  1  0
 14 15  1  0
 15 16  1  1
 15 17  1  0
 17 18  2  0
 17 19  1  0
 19 20  1  0
 20 21  1  1
 20 22  1  0
 22 23  1  6
 22 24  1  0
 24 25  1  0
 25 26  1  0
 26 27  1  0
 27 28  1  0
 26 29  1  0
 29 30  2  0
 30 31  1  0
 31 32  2  0
 32 33  1  0
 33 34  2  0
 31 35  1  0
 35 36  1  0
 35 37  1  0
 35 38  1  0
 21  2  1  0
 28 26  1  0
 34 29  1  0
M  END
$$$$
