
     RDKit          3D

 38 40  0  0  0  0  0  0  0  0999 V2000
  -16.4704  -35.6932  -10.7934 C   0  0  0  0  0  0  0  0  0  0  0  0
  -15.8702  -36.8055  -10.0007 C   0  0  2  0  0  0  0  0  0  0  0  0
  -14.9972  -37.7200  -10.7871 C   0  0  0  0  0  0  0  0  0  0  0  0
  -14.3597  -37.0973  -11.9886 C   0  0  0  0  0  0  0  0  0  0  0  0
  -14.9958  -37.5044  -13.3003 C   0  0  0  0  0  0  0  0  0  0  0  0
  -14.0662  -38.4451  -14.0845 C   0  0  0  0  0  0  0  0  0  0  0  0
  -14.0354  -39.7292  -13.2884 C   0  0  0  0  0  0  0  0  0  0  0  0
  -13.3116  -40.8470  -13.9554 C   0  0  0  0  0  0  0  0  0  0  0  0
  -13.5833  -42.1104  -13.1462 C   0  0  0  0  0  0  0  0  0  0  0  0
  -13.7457  -41.8025  -11.6725 C   0  0  0  0  0  0  0  0  0  0  0  0
  -14.2818  -43.2687  -10.8467 S   0  0  0  0  0  6  0  0  0  0  0  0
  -15.4309  -43.8310  -11.6301 O   0  0  0  0  0  0  0  0  0  0  0  0
  -13.1549  -44.2820  -11.0298 O   0  0  0  0  0  0  0  0  0  0  0  0
  -14.5877  -43.1045   -9.1538 C   0  0  0  0  0  0  0  0  0  0  0  0
  -15.0125  -41.7592   -8.6480 C   0  0  1  0  0  0  0  0  0  0  0  0
  -13.8344  -40.8573   -8.5562 C   0  0  0  0  0  0  0  0  0  0  0  0
  -16.2070  -41.2679   -9.2987 C   0  0  0  0  0  0  0  0  0  0  0  0
  -16.7040  -42.0292  -10.2034 O   0  0  0  0  0  0  0  0  0  0  0  0
  -16.9295  -40.0792   -9.1057 N   0  0  0  0  0  0  0  0  0  0  0  0
  -16.4555  -38.8100   -8.6262 C   0  0  1  0  0  0  0  0  0  0  0  0
  -17.0089  -37.6232   -9.3707 C   0  0  0  0  0  0  0  0  0  0  0  0
  -16.8299  -38.6575   -7.1610 C   0  0  2  0  0  0  0  0  0  0  0  0
  -15.9063  -39.3283   -6.3484 O   0  0  0  0  0  0  0  0  0  0  0  0
  -18.1848  -39.3039   -6.9540 C   0  0  0  0  0  0  0  0  0  0  0  0
  -18.7872  -38.6041   -5.8179 N   0  0  0  0  0  0  0  0  0  0  0  0
  -20.0948  -39.2318   -5.6108 C   0  0  0  0  0  0  0  0  0  0  0  0
  -20.3431  -39.9529   -4.3381 C   0  0  0  0  0  0  0  0  0  0  0  0
  -20.9285  -38.5768   -4.5839 C   0  0  0  0  0  0  0  0  0  0  0  0
  -20.6722  -39.7587   -6.8590 C   0  0  0  0  0  0  0  0  0  0  0  0
  -21.9031  -40.3265   -6.9030 C   0  0  0  0  0  0  0  0  0  0  0  0
  -22.4027  -40.8077   -8.1097 C   0  0  0  0  0  0  0  0  0  0  0  0
  -21.6707  -40.7213   -9.2740 C   0  0  0  0  0  0  0  0  0  0  0  0
  -20.4265  -40.1398   -9.1931 C   0  0  0  0  0  0  0  0  0  0  0  0
  -19.9267  -39.6650   -8.0178 C   0  0  0  0  0  0  0  0  0  0  0  0
  -23.7623  -41.4177   -8.0825 C   0  0  0  0  0  0  0  0  0  0  0  0
  -24.5826  -40.6222   -7.0813 C   0  0  0  0  0  0  0  0  0  0  0  0
  -23.6099  -42.8619   -7.6729 C   0  0  0  0  0  0  0  0  0  0  0  0
  -24.4255  -41.3681   -9.4431 C   0  0  0  0  0  0  0  0  0  0  0  0
  2  1  1  6
  2  3  1  0
  3  4  1  0
  4  5  1  0
  5  6  1  0
  6  7  1  0
  7  8  1  0
  8  9  1  0
  9 10  1  0
 10 11  1  0
 11 12  2  0
 11 13  2  0
 11 14  1  0
 14 15  1  0
 15 16  1  6
 15 17  1  0
 17 18  2  0
 17 19  1  0
 19 20  1  0
 20 21  1  6
 20 22  1  0
 22 23  1  1
 22 24  1  0
 24 25  1  0
 25 26  1  0
 26 27  1  0
 27 28  1  0
 26 29  1  0
 29 30  2  0
 30 31  1  0
 31 32  2  0
 32 33  1  0
 33 34  2  0
 31 35  1  0
 35 36  1  0
 35 37  1  0
 35 38  1  0
 21  2  1  0
 28 26  1  0
 34 29  1  0
M  END
$$$$
