
     RDKit          3D

 38 40  0  0  0  0  0  0  0  0999 V2000
  -19.3107  -37.0531   -6.7039 C   0  0  0  0  0  0  0  0  0  0  0  0
  -18.5885  -37.9935   -7.6095 C   0  0  2  0  0  0  0  0  0  0  0  0
  -19.4681  -38.9668   -8.3136 C   0  0  0  0  0  0  0  0  0  0  0  0
  -20.8742  -38.5014   -8.5240 C   0  0  0  0  0  0  0  0  0  0  0  0
  -21.8781  -39.1418   -7.5898 C   0  0  0  0  0  0  0  0  0  0  0  0
  -22.7688  -40.1373   -8.3512 C   0  0  0  0  0  0  0  0  0  0  0  0
  -21.8548  -41.2794   -8.7311 C   0  0  0  0  0  0  0  0  0  0  0  0
  -22.5512  -42.4433   -9.3464 C   0  0  0  0  0  0  0  0  0  0  0  0
  -21.5394  -43.5802   -9.4391 C   0  0  0  0  0  0  0  0  0  0  0  0
  -20.1361  -43.0584   -9.6662 C   0  0  0  0  0  0  0  0  0  0  0  0
  -19.0048  -44.4080   -9.5312 S   0  0  0  0  0  6  0  0  0  0  0  0
  -19.3382  -45.1494   -8.2705 O   0  0  0  0  0  0  0  0  0  0  0  0
  -19.3739  -45.3711  -10.6566 O   0  0  0  0  0  0  0  0  0  0  0  0
  -17.3332  -44.0023   -9.6969 C   0  0  0  0  0  0  0  0  0  0  0  0
  -16.9067  -42.6217   -9.2994 C   0  0  1  0  0  0  0  0  0  0  0  0
  -17.2816  -41.6504  -10.3604 C   0  0  0  0  0  0  0  0  0  0  0  0
  -17.2395  -42.3060   -7.9277 C   0  0  0  0  0  0  0  0  0  0  0  0
  -17.8518  -43.2250   -7.2755 O   0  0  0  0  0  0  0  0  0  0  0  0
  -17.0020  -41.1452   -7.1739 N   0  0  0  0  0  0  0  0  0  0  0  0
  -16.8524  -39.7921   -7.6347 C   0  0  1  0  0  0  0  0  0  0  0  0
  -17.5522  -38.7682   -6.7799 C   0  0  0  0  0  0  0  0  0  0  0  0
  -15.3750  -39.4371   -7.6724 C   0  0  2  0  0  0  0  0  0  0  0  0
  -15.1027  -38.3847   -6.7884 O   0  0  0  0  0  0  0  0  0  0  0  0
  -15.0427  -38.9639   -9.0731 C   0  0  0  0  0  0  0  0  0  0  0  0
  -13.5806  -38.9445   -9.1473 N   0  0  0  0  0  0  0  0  0  0  0  0
  -13.2479  -37.9924  -10.2100 C   0  0  0  0  0  0  0  0  0  0  0  0
  -13.4310  -36.5434   -9.9486 C   0  0  0  0  0  0  0  0  0  0  0  0
  -12.0517  -37.1712   -9.9389 C   0  0  0  0  0  0  0  0  0  0  0  0
  -13.5376  -38.5219  -11.5534 C   0  0  0  0  0  0  0  0  0  0  0  0
  -13.8001  -37.7115  -12.6088 C   0  0  0  0  0  0  0  0  0  0  0  0
  -14.0665  -38.2636  -13.8584 C   0  0  0  0  0  0  0  0  0  0  0  0
  -14.0705  -39.6277  -14.0532 C   0  0  0  0  0  0  0  0  0  0  0  0
  -13.8004  -40.4198  -12.9612 C   0  0  0  0  0  0  0  0  0  0  0  0
  -13.5381  -39.8912  -11.7332 C   0  0  0  0  0  0  0  0  0  0  0  0
  -14.3452  -37.3125  -14.9715 C   0  0  0  0  0  0  0  0  0  0  0  0
  -15.8367  -37.0246  -14.9425 C   0  0  0  0  0  0  0  0  0  0  0  0
  -13.9188  -37.9739  -16.2589 C   0  0  0  0  0  0  0  0  0  0  0  0
  -13.5707  -36.0210  -14.8114 C   0  0  0  0  0  0  0  0  0  0  0  0
  2  1  1  1
  2  3  1  0
  3  4  1  0
  4  5  1  0
  5  6  1  0
  6  7  1  0
  7  8  1  0
  8  9  1  0
  9 10  1  0
 10 11  1  0
 11 12  2  0
 11 13  2  0
 11 14  1  0
 14 15  1  0
 15 16  1  6
 15 17  1  0
 17 18  2  0
 17 19  1  0
 19 20  1  0
 20 21  1  1
 20 22  1  0
 22 23  1  1
 22 24  1  0
 24 25  1  0
 25 26  1  0
 26 27  1  0
 27 28  1  0
 26 29  1  0
 29 30  2  0
 30 31  1  0
 31 32  2  0
 32 33  1  0
 33 34  2  0
 31 35  1  0
 35 36  1  0
 35 37  1  0
 35 38  1  0
 21  2  1  0
 28 26  1  0
 34 29  1  0
M  END
$$$$
