
     RDKit          3D

 38 40  0  0  0  0  0  0  0  0999 V2000
  -19.8872  -37.3945   -6.0779 C   0  0  0  0  0  0  0  0  0  0  0  0
  -19.2507  -38.4519   -6.9162 C   0  0  2  0  0  0  0  0  0  0  0  0
  -20.1042  -39.6497   -7.1481 C   0  0  0  0  0  0  0  0  0  0  0  0
  -21.5762  -39.3908   -7.0862 C   0  0  0  0  0  0  0  0  0  0  0  0
  -22.2314  -39.8791   -5.8121 C   0  0  0  0  0  0  0  0  0  0  0  0
  -23.1050  -41.1134   -6.0904 C   0  0  0  0  0  0  0  0  0  0  0  0
  -22.1341  -42.2178   -6.4391 C   0  0  0  0  0  0  0  0  0  0  0  0
  -22.7617  -43.5597   -6.5934 C   0  0  0  0  0  0  0  0  0  0  0  0
  -21.6327  -44.5793   -6.6974 C   0  0  0  0  0  0  0  0  0  0  0  0
  -20.4155  -43.9932   -7.3814 C   0  0  0  0  0  0  0  0  0  0  0  0
  -19.0872  -45.1504   -7.2559 S   0  0  0  0  0  6  0  0  0  0  0  0
  -19.0082  -45.5901   -5.8238 O   0  0  0  0  0  0  0  0  0  0  0  0
  -19.5463  -46.3911   -8.0177 O   0  0  0  0  0  0  0  0  0  0  0  0
  -17.5801  -44.6349   -7.9259 C   0  0  0  0  0  0  0  0  0  0  0  0
  -17.2949  -43.1638   -7.9540 C   0  0  1  0  0  0  0  0  0  0  0  0
  -18.0458  -42.5233   -9.0656 C   0  0  0  0  0  0  0  0  0  0  0  0
  -17.3545  -42.5567   -6.6427 C   0  0  0  0  0  0  0  0  0  0  0  0
  -17.6533  -43.3439   -5.6754 O   0  0  0  0  0  0  0  0  0  0  0  0
  -17.1366  -41.2291   -6.2398 N   0  0  0  0  0  0  0  0  0  0  0  0
  -17.3070  -40.0219   -7.0007 C   0  0  1  0  0  0  0  0  0  0  0  0
  -17.9465  -38.8941   -6.2338 C   0  0  0  0  0  0  0  0  0  0  0  0
  -15.9499  -39.5430   -7.4896 C   0  0  2  0  0  0  0  0  0  0  0  0
  -16.0975  -38.4306   -8.3287 O   0  0  0  0  0  0  0  0  0  0  0  0
  -15.3251  -40.6581   -8.3036 C   0  0  0  0  0  0  0  0  0  0  0  0
  -14.0172  -40.1539   -8.7262 N   0  0  0  0  0  0  0  0  0  0  0  0
  -13.7307  -40.8108  -10.0042 C   0  0  0  0  0  0  0  0  0  0  0  0
  -12.8206  -41.9826  -10.0123 C   0  0  0  0  0  0  0  0  0  0  0  0
  -14.3205  -42.1569  -10.1422 C   0  0  0  0  0  0  0  0  0  0  0  0
  -13.6900  -39.8622  -11.1300 C   0  0  0  0  0  0  0  0  0  0  0  0
  -13.2122  -38.6000  -10.9950 C   0  0  0  0  0  0  0  0  0  0  0  0
  -13.1949  -37.7435  -12.0920 C   0  0  0  0  0  0  0  0  0  0  0  0
  -13.6560  -38.1491  -13.3254 C   0  0  0  0  0  0  0  0  0  0  0  0
  -14.1337  -39.4353  -13.4265 C   0  0  0  0  0  0  0  0  0  0  0  0
  -14.1557  -40.2831  -12.3601 C   0  0  0  0  0  0  0  0  0  0  0  0
  -12.6550  -36.3722  -11.8695 C   0  0  0  0  0  0  0  0  0  0  0  0
  -13.6408  -35.4026  -12.4993 C   0  0  0  0  0  0  0  0  0  0  0  0
  -11.2951  -36.3026  -12.5195 C   0  0  0  0  0  0  0  0  0  0  0  0
  -12.5029  -36.0628  -10.3949 C   0  0  0  0  0  0  0  0  0  0  0  0
  2  1  1  1
  2  3  1  0
  3  4  1  0
  4  5  1  0
  5  6  1  0
  6  7  1  0
  7  8  1  0
  8  9  1  0
  9 10  1  0
 10 11  1  0
 11 12  2  0
 11 13  2  0
 11 14  1  0
 14 15  1  0
 15 16  1  6
 15 17  1  0
 17 18  2  0
 17 19  1  0
 19 20  1  0
 20 21  1  1
 20 22  1  0
 22 23  1  6
 22 24  1  0
 24 25  1  0
 25 26  1  0
 26 27  1  0
 27 28  1  0
 26 29  1  0
 29 30  2  0
 30 31  1  0
 31 32  2  0
 32 33  1  0
 33 34  2  0
 31 35  1  0
 35 36  1  0
 35 37  1  0
 35 38  1  0
 21  2  1  0
 28 26  1  0
 34 29  1  0
M  END
$$$$
