
     RDKit          3D

 38 40  0  0  0  0  0  0  0  0999 V2000
  -14.5321  -36.1620  -10.3033 C   0  0  0  0  0  0  0  0  0  0  0  0
  -14.3614  -37.4885   -9.6420 C   0  0  2  0  0  0  0  0  0  0  0  0
  -13.7180  -38.5237  -10.4972 C   0  0  0  0  0  0  0  0  0  0  0  0
  -12.8122  -37.9844  -11.5585 C   0  0  0  0  0  0  0  0  0  0  0  0
  -13.4066  -38.0241  -12.9499 C   0  0  0  0  0  0  0  0  0  0  0  0
  -12.7171  -39.1014  -13.8033 C   0  0  0  0  0  0  0  0  0  0  0  0
  -13.1386  -40.4198  -13.1967 C   0  0  0  0  0  0  0  0  0  0  0  0
  -12.7079  -41.6167  -13.9715 C   0  0  0  0  0  0  0  0  0  0  0  0
  -13.4126  -42.8262  -13.3669 C   0  0  0  0  0  0  0  0  0  0  0  0
  -13.6230  -42.6595  -11.8767 C   0  0  0  0  0  0  0  0  0  0  0  0
  -14.6398  -43.9835  -11.3000 S   0  0  0  0  0  6  0  0  0  0  0  0
  -15.8196  -44.0782  -12.2216 O   0  0  0  0  0  0  0  0  0  0  0  0
  -13.8428  -45.2596  -11.5580 O   0  0  0  0  0  0  0  0  0  0  0  0
  -15.0501  -43.9355   -9.6220 C   0  0  0  0  0  0  0  0  0  0  0  0
  -15.1142  -42.5941   -8.9567 C   0  0  1  0  0  0  0  0  0  0  0  0
  -13.7403  -42.1053   -8.6686 C   0  0  0  0  0  0  0  0  0  0  0  0
  -16.0449  -41.6936   -9.6006 C   0  0  0  0  0  0  0  0  0  0  0  0
  -16.6496  -42.1582  -10.6317 O   0  0  0  0  0  0  0  0  0  0  0  0
  -16.4069  -40.3741   -9.2841 N   0  0  0  0  0  0  0  0  0  0  0  0
  -15.6350  -39.3717   -8.6024 C   0  0  1  0  0  0  0  0  0  0  0  0
  -15.7445  -37.9945   -9.2026 C   0  0  0  0  0  0  0  0  0  0  0  0
  -16.0915  -39.2874   -7.1551 C   0  0  2  0  0  0  0  0  0  0  0  0
  -14.9856  -39.2506   -6.2954 O   0  0  0  0  0  0  0  0  0  0  0  0
  -16.8824  -40.5410   -6.8397 C   0  0  0  0  0  0  0  0  0  0  0  0
  -18.0195  -40.5333   -7.7619 N   0  0  0  0  0  0  0  0  0  0  0  0
  -19.1853  -40.9142   -6.9604 C   0  0  0  0  0  0  0  0  0  0  0  0
  -19.2536  -42.2928   -6.4161 C   0  0  0  0  0  0  0  0  0  0  0  0
  -18.8980  -41.1182   -5.5269 C   0  0  0  0  0  0  0  0  0  0  0  0
  -20.4232  -40.2610   -7.4184 C   0  0  0  0  0  0  0  0  0  0  0  0
  -21.2554  -39.6111   -6.5671 C   0  0  0  0  0  0  0  0  0  0  0  0
  -22.4128  -39.0091   -7.0523 C   0  0  0  0  0  0  0  0  0  0  0  0
  -22.7387  -39.0570   -8.3903 C   0  0  0  0  0  0  0  0  0  0  0  0
  -21.8726  -39.7243   -9.2252 C   0  0  0  0  0  0  0  0  0  0  0  0
  -20.7367  -40.3174   -8.7622 C   0  0  0  0  0  0  0  0  0  0  0  0
  -23.2788  -38.3123   -6.0594 C   0  0  0  0  0  0  0  0  0  0  0  0
  -22.8094  -38.7486   -4.6819 C   0  0  0  0  0  0  0  0  0  0  0  0
  -24.7064  -38.7195   -6.3289 C   0  0  0  0  0  0  0  0  0  0  0  0
  -23.1734  -36.8068   -6.1837 C   0  0  0  0  0  0  0  0  0  0  0  0
  2  1  1  6
  2  3  1  0
  3  4  1  0
  4  5  1  0
  5  6  1  0
  6  7  1  0
  7  8  1  0
  8  9  1  0
  9 10  1  0
 10 11  1  0
 11 12  2  0
 11 13  2  0
 11 14  1  0
 14 15  1  0
 15 16  1  6
 15 17  1  0
 17 18  2  0
 17 19  1  0
 19 20  1  0
 20 21  1  6
 20 22  1  0
 22 23  1  1
 22 24  1  0
 24 25  1  0
 25 26  1  0
 26 27  1  0
 27 28  1  0
 26 29  1  0
 29 30  2  0
 30 31  1  0
 31 32  2  0
 32 33  1  0
 33 34  2  0
 31 35  1  0
 35 36  1  0
 35 37  1  0
 35 38  1  0
 21  2  1  0
 28 26  1  0
 34 29  1  0
M  END
$$$$
