
     RDKit          3D

 38 40  0  0  0  0  0  0  0  0999 V2000
  -12.0605  -36.2834   -9.1271 C   0  0  0  0  0  0  0  0  0  0  0  0
  -12.9202  -37.5027   -9.1083 C   0  0  2  0  0  0  0  0  0  0  0  0
  -12.8468  -38.3262  -10.3466 C   0  0  0  0  0  0  0  0  0  0  0  0
  -11.5600  -38.2096  -11.1006 C   0  0  0  0  0  0  0  0  0  0  0  0
  -11.6578  -37.3654  -12.3530 C   0  0  0  0  0  0  0  0  0  0  0  0
  -11.5762  -38.2481  -13.6093 C   0  0  0  0  0  0  0  0  0  0  0  0
  -12.8578  -39.0490  -13.6171 C   0  0  0  0  0  0  0  0  0  0  0  0
  -13.0631  -39.8655  -14.8457 C   0  0  0  0  0  0  0  0  0  0  0  0
  -14.4885  -40.4048  -14.7991 C   0  0  0  0  0  0  0  0  0  0  0  0
  -14.9391  -40.6625  -13.3766 C   0  0  0  0  0  0  0  0  0  0  0  0
  -16.6598  -41.0604  -13.3944 S   0  0  0  0  0  6  0  0  0  0  0  0
  -17.3522  -40.0230  -14.2279 O   0  0  0  0  0  0  0  0  0  0  0  0
  -16.7778  -42.3497  -14.2030 O   0  0  0  0  0  0  0  0  0  0  0  0
  -17.3818  -41.3278  -11.8473 C   0  0  0  0  0  0  0  0  0  0  0  0
  -16.7859  -40.6221  -10.6670 C   0  0  1  0  0  0  0  0  0  0  0  0
  -15.5395  -41.3112  -10.2411 C   0  0  0  0  0  0  0  0  0  0  0  0
  -16.7577  -39.1853  -10.8292 C   0  0  0  0  0  0  0  0  0  0  0  0
  -17.2188  -38.7390  -11.9396 O   0  0  0  0  0  0  0  0  0  0  0  0
  -16.3046  -38.1768   -9.9632 N   0  0  0  0  0  0  0  0  0  0  0  0
  -15.2973  -38.2584   -8.9414 C   0  0  1  0  0  0  0  0  0  0  0  0
  -14.3771  -37.0672   -8.8853 C   0  0  0  0  0  0  0  0  0  0  0  0
  -15.9703  -38.3923   -7.5852 C   0  0  2  0  0  0  0  0  0  0  0  0
  -15.5536  -39.5681   -6.9470 O   0  0  0  0  0  0  0  0  0  0  0  0
  -17.4652  -38.4927   -7.8121 C   0  0  0  0  0  0  0  0  0  0  0  0
  -17.9864  -39.2595   -6.6789 N   0  0  0  0  0  0  0  0  0  0  0  0
  -19.4456  -39.2053   -6.7983 C   0  0  0  0  0  0  0  0  0  0  0  0
  -20.2673  -39.9491   -5.8118 C   0  0  0  0  0  0  0  0  0  0  0  0
  -20.1161  -38.4435   -5.7264 C   0  0  0  0  0  0  0  0  0  0  0  0
  -19.8952  -39.1339   -8.1989 C   0  0  0  0  0  0  0  0  0  0  0  0
  -20.5380  -40.1628   -8.8053 C   0  0  0  0  0  0  0  0  0  0  0  0
  -20.9431  -40.0430  -10.1315 C   0  0  0  0  0  0  0  0  0  0  0  0
  -20.7054  -38.8931  -10.8525 C   0  0  0  0  0  0  0  0  0  0  0  0
  -20.0512  -37.8696  -10.2065 C   0  0  0  0  0  0  0  0  0  0  0  0
  -19.6498  -37.9749   -8.9088 C   0  0  0  0  0  0  0  0  0  0  0  0
  -21.6445  -41.2132  -10.7317 C   0  0  0  0  0  0  0  0  0  0  0  0
  -22.9771  -40.7067  -11.2570 C   0  0  0  0  0  0  0  0  0  0  0  0
  -21.8170  -42.2503   -9.6494 C   0  0  0  0  0  0  0  0  0  0  0  0
  -20.8459  -41.8240  -11.8642 C   0  0  0  0  0  0  0  0  0  0  0  0
  2  1  1  6
  2  3  1  0
  3  4  1  0
  4  5  1  0
  5  6  1  0
  6  7  1  0
  7  8  1  0
  8  9  1  0
  9 10  1  0
 10 11  1  0
 11 12  2  0
 11 13  2  0
 11 14  1  0
 14 15  1  0
 15 16  1  6
 15 17  1  0
 17 18  2  0
 17 19  1  0
 19 20  1  0
 20 21  1  1
 20 22  1  0
 22 23  1  6
 22 24  1  0
 24 25  1  0
 25 26  1  0
 26 27  1  0
 27 28  1  0
 26 29  1  0
 29 30  2  0
 30 31  1  0
 31 32  2  0
 32 33  1  0
 33 34  2  0
 31 35  1  0
 35 36  1  0
 35 37  1  0
 35 38  1  0
 21  2  1  0
 28 26  1  0
 34 29  1  0
M  END
$$$$
