
     RDKit          3D

 38 40  0  0  0  0  0  0  0  0999 V2000
  -13.8851  -35.6909  -10.4784 C   0  0  0  0  0  0  0  0  0  0  0  0
  -13.9327  -37.0613   -9.8906 C   0  0  2  0  0  0  0  0  0  0  0  0
  -13.2586  -38.1059  -10.7101 C   0  0  0  0  0  0  0  0  0  0  0  0
  -12.1584  -37.5994  -11.5880 C   0  0  0  0  0  0  0  0  0  0  0  0
  -12.5351  -37.5070  -13.0511 C   0  0  0  0  0  0  0  0  0  0  0  0
  -11.8196  -38.5978  -13.8649 C   0  0  0  0  0  0  0  0  0  0  0  0
  -12.4412  -39.9006  -13.4173 C   0  0  0  0  0  0  0  0  0  0  0  0
  -12.0027  -41.0897  -14.1997 C   0  0  0  0  0  0  0  0  0  0  0  0
  -12.8934  -42.2570  -13.7883 C   0  0  0  0  0  0  0  0  0  0  0  0
  -13.3132  -42.1514  -12.3373 C   0  0  0  0  0  0  0  0  0  0  0  0
  -14.5168  -43.4010  -12.0070 S   0  0  0  0  0  6  0  0  0  0  0  0
  -15.5461  -43.3325  -13.0961 O   0  0  0  0  0  0  0  0  0  0  0  0
  -13.8034  -44.7319  -12.2309 O   0  0  0  0  0  0  0  0  0  0  0  0
  -15.1723  -43.4044  -10.4081 C   0  0  0  0  0  0  0  0  0  0  0  0
  -15.2206  -42.1009   -9.6701 C   0  0  1  0  0  0  0  0  0  0  0  0
  -13.8694  -41.7621   -9.1511 C   0  0  0  0  0  0  0  0  0  0  0  0
  -15.9607  -41.0820  -10.3813 C   0  0  0  0  0  0  0  0  0  0  0  0
  -16.4392  -41.4303  -11.5190 O   0  0  0  0  0  0  0  0  0  0  0  0
  -16.2511  -39.7529  -10.0328 N   0  0  0  0  0  0  0  0  0  0  0  0
  -15.5082  -38.8672   -9.1790 C   0  0  1  0  0  0  0  0  0  0  0  0
  -15.4052  -37.4555   -9.6942 C   0  0  0  0  0  0  0  0  0  0  0  0
  -16.1708  -38.8177   -7.8120 C   0  0  2  0  0  0  0  0  0  0  0  0
  -15.4118  -39.5315   -6.8751 O   0  0  0  0  0  0  0  0  0  0  0  0
  -17.5237  -39.4913   -7.9227 C   0  0  0  0  0  0  0  0  0  0  0  0
  -18.2167  -39.1949   -6.6675 N   0  0  0  0  0  0  0  0  0  0  0  0
  -19.6393  -39.1106   -7.0078 C   0  0  0  0  0  0  0  0  0  0  0  0
  -20.6270  -38.9887   -5.9073 C   0  0  0  0  0  0  0  0  0  0  0  0
  -20.2484  -37.7902   -6.7541 C   0  0  0  0  0  0  0  0  0  0  0  0
  -19.9836  -39.9087   -8.1967 C   0  0  0  0  0  0  0  0  0  0  0  0
  -20.2383  -39.3390   -9.4009 C   0  0  0  0  0  0  0  0  0  0  0  0
  -20.5580  -40.1397  -10.4937 C   0  0  0  0  0  0  0  0  0  0  0  0
  -20.6234  -41.5115  -10.3824 C   0  0  0  0  0  0  0  0  0  0  0  0
  -20.3595  -42.0556   -9.1466 C   0  0  0  0  0  0  0  0  0  0  0  0
  -20.0453  -41.2825   -8.0696 C   0  0  0  0  0  0  0  0  0  0  0  0
  -20.8244  -39.4448  -11.7850 C   0  0  0  0  0  0  0  0  0  0  0  0
  -21.4783  -38.1164  -11.4443 C   0  0  0  0  0  0  0  0  0  0  0  0
  -21.7297  -40.3303  -12.6052 C   0  0  0  0  0  0  0  0  0  0  0  0
  -19.5485  -39.2031  -12.5642 C   0  0  0  0  0  0  0  0  0  0  0  0
  2  1  1  6
  2  3  1  0
  3  4  1  0
  4  5  1  0
  5  6  1  0
  6  7  1  0
  7  8  1  0
  8  9  1  0
  9 10  1  0
 10 11  1  0
 11 12  2  0
 11 13  2  0
 11 14  1  0
 14 15  1  0
 15 16  1  6
 15 17  1  0
 17 18  2  0
 17 19  1  0
 19 20  1  0
 20 21  1  6
 20 22  1  0
 22 23  1  1
 22 24  1  0
 24 25  1  0
 25 26  1  0
 26 27  1  0
 27 28  1  0
 26 29  1  0
 29 30  2  0
 30 31  1  0
 31 32  2  0
 32 33  1  0
 33 34  2  0
 31 35  1  0
 35 36  1  0
 35 37  1  0
 35 38  1  0
 21  2  1  0
 28 26  1  0
 34 29  1  0
M  END
$$$$
