
     RDKit          3D

 38 40  0  0  0  0  0  0  0  0999 V2000
  -15.8237  -35.2356  -10.7403 C   0  0  0  0  0  0  0  0  0  0  0  0
  -15.2545  -36.4390  -10.0668 C   0  0  2  0  0  0  0  0  0  0  0  0
  -14.0654  -37.0206  -10.7484 C   0  0  0  0  0  0  0  0  0  0  0  0
  -13.2677  -36.0460  -11.5557 C   0  0  0  0  0  0  0  0  0  0  0  0
  -13.4734  -36.1745  -13.0497 C   0  0  0  0  0  0  0  0  0  0  0  0
  -12.2263  -36.7754  -13.7188 C   0  0  0  0  0  0  0  0  0  0  0  0
  -12.1697  -38.2082  -13.2413 C   0  0  0  0  0  0  0  0  0  0  0  0
  -11.1165  -39.0319  -13.8975 C   0  0  0  0  0  0  0  0  0  0  0  0
  -11.3548  -40.4817  -13.4896 C   0  0  0  0  0  0  0  0  0  0  0  0
  -11.9323  -40.5785  -12.0931 C   0  0  0  0  0  0  0  0  0  0  0  0
  -12.3907  -42.2567  -11.7885 S   0  0  0  0  0  6  0  0  0  0  0  0
  -13.1895  -42.7256  -12.9685 O   0  0  0  0  0  0  0  0  0  0  0  0
  -11.0933  -43.0584  -11.8552 O   0  0  0  0  0  0  0  0  0  0  0  0
  -13.1343  -42.5633  -10.2590 C   0  0  0  0  0  0  0  0  0  0  0  0
  -13.9026  -41.4466   -9.6195 C   0  0  1  0  0  0  0  0  0  0  0  0
  -12.9630  -40.4725   -9.0046 C   0  0  0  0  0  0  0  0  0  0  0  0
  -14.9636  -40.9421  -10.4628 C   0  0  0  0  0  0  0  0  0  0  0  0
  -15.0762  -41.4987  -11.6127 O   0  0  0  0  0  0  0  0  0  0  0  0
  -15.9093  -39.9294  -10.2339 N   0  0  0  0  0  0  0  0  0  0  0  0
  -15.8020  -38.7793   -9.3789 C   0  0  1  0  0  0  0  0  0  0  0  0
  -16.3519  -37.5114   -9.9781 C   0  0  0  0  0  0  0  0  0  0  0  0
  -16.5518  -39.0468   -8.0841 C   0  0  2  0  0  0  0  0  0  0  0  0
  -15.6668  -39.4787   -7.0874 O   0  0  0  0  0  0  0  0  0  0  0  0
  -17.5434  -40.1639   -8.3395 C   0  0  0  0  0  0  0  0  0  0  0  0
  -18.8414  -39.5086   -8.5116 N   0  0  0  0  0  0  0  0  0  0  0  0
  -19.7390  -40.5361   -9.0454 C   0  0  0  0  0  0  0  0  0  0  0  0
  -19.8312  -40.7041  -10.5168 C   0  0  0  0  0  0  0  0  0  0  0  0
  -19.0492  -41.6843   -9.6656 C   0  0  0  0  0  0  0  0  0  0  0  0
  -20.9503  -40.7089   -8.2257 C   0  0  0  0  0  0  0  0  0  0  0  0
  -21.2181  -39.9191   -7.1561 C   0  0  0  0  0  0  0  0  0  0  0  0
  -22.3785  -40.1241   -6.4153 C   0  0  0  0  0  0  0  0  0  0  0  0
  -23.2723  -41.1199   -6.7442 C   0  0  0  0  0  0  0  0  0  0  0  0
  -22.9693  -41.9022   -7.8346 C   0  0  0  0  0  0  0  0  0  0  0  0
  -21.8367  -41.7112   -8.5676 C   0  0  0  0  0  0  0  0  0  0  0  0
  -22.6076  -39.2178   -5.2545 C   0  0  0  0  0  0  0  0  0  0  0  0
  -21.3682  -38.3491   -5.1220 C   0  0  0  0  0  0  0  0  0  0  0  0
  -22.8309  -40.0792   -4.0360 C   0  0  0  0  0  0  0  0  0  0  0  0
  -23.8269  -38.3434   -5.4589 C   0  0  0  0  0  0  0  0  0  0  0  0
  2  1  1  6
  2  3  1  0
  3  4  1  0
  4  5  1  0
  5  6  1  0
  6  7  1  0
  7  8  1  0
  8  9  1  0
  9 10  1  0
 10 11  1  0
 11 12  2  0
 11 13  2  0
 11 14  1  0
 14 15  1  0
 15 16  1  6
 15 17  1  0
 17 18  2  0
 17 19  1  0
 19 20  1  0
 20 21  1  6
 20 22  1  0
 22 23  1  1
 22 24  1  0
 24 25  1  0
 25 26  1  0
 26 27  1  0
 27 28  1  0
 26 29  1  0
 29 30  2  0
 30 31  1  0
 31 32  2  0
 32 33  1  0
 33 34  2  0
 31 35  1  0
 35 36  1  0
 35 37  1  0
 35 38  1  0
 21  2  1  0
 28 26  1  0
 34 29  1  0
M  END
$$$$
