
     RDKit          3D

 38 40  0  0  0  0  0  0  0  0999 V2000
  -19.7012  -37.5276   -5.6692 C   0  0  0  0  0  0  0  0  0  0  0  0
  -19.1289  -38.3899   -6.7439 C   0  0  2  0  0  0  0  0  0  0  0  0
  -19.9665  -39.5688   -7.0979 C   0  0  0  0  0  0  0  0  0  0  0  0
  -21.4300  -39.3969   -6.8404 C   0  0  0  0  0  0  0  0  0  0  0  0
  -21.9271  -40.1317   -5.6141 C   0  0  0  0  0  0  0  0  0  0  0  0
  -22.7887  -41.3394   -6.0181 C   0  0  0  0  0  0  0  0  0  0  0  0
  -21.8292  -42.3172   -6.6563 C   0  0  0  0  0  0  0  0  0  0  0  0
  -22.4296  -43.6404   -6.9835 C   0  0  0  0  0  0  0  0  0  0  0  0
  -21.2888  -44.5699   -7.3832 C   0  0  0  0  0  0  0  0  0  0  0  0
  -20.1718  -43.8145   -8.0721 C   0  0  0  0  0  0  0  0  0  0  0  0
  -18.8038  -44.9097   -8.2923 S   0  0  0  0  0  6  0  0  0  0  0  0
  -18.5556  -45.5886   -6.9779 O   0  0  0  0  0  0  0  0  0  0  0  0
  -19.3062  -46.0189   -9.2130 O   0  0  0  0  0  0  0  0  0  0  0  0
  -17.3949  -44.2121   -9.0098 C   0  0  0  0  0  0  0  0  0  0  0  0
  -17.1585  -42.7466   -8.8031 C   0  0  1  0  0  0  0  0  0  0  0  0
  -18.0453  -41.9591   -9.6993 C   0  0  0  0  0  0  0  0  0  0  0  0
  -17.0926  -42.3818   -7.4052 C   0  0  0  0  0  0  0  0  0  0  0  0
  -17.2603  -43.3396   -6.5690 O   0  0  0  0  0  0  0  0  0  0  0  0
  -16.8716  -41.1361   -6.7955 N   0  0  0  0  0  0  0  0  0  0  0  0
  -17.1602  -39.8242   -7.3065 C   0  0  1  0  0  0  0  0  0  0  0  0
  -17.7453  -38.8804   -6.2887 C   0  0  0  0  0  0  0  0  0  0  0  0
  -15.8795  -39.2016   -7.8379 C   0  0  2  0  0  0  0  0  0  0  0  0
  -16.1731  -38.0981   -8.6499 O   0  0  0  0  0  0  0  0  0  0  0  0
  -15.1774  -40.2348   -8.6958 C   0  0  0  0  0  0  0  0  0  0  0  0
  -13.7572  -39.8807   -8.6582 N   0  0  0  0  0  0  0  0  0  0  0  0
  -13.1833  -40.4020   -9.9014 C   0  0  0  0  0  0  0  0  0  0  0  0
  -11.8307  -41.0104   -9.8591 C   0  0  0  0  0  0  0  0  0  0  0  0
  -13.0733  -41.8731   -9.9509 C   0  0  0  0  0  0  0  0  0  0  0  0
  -13.5794  -39.6132  -11.0803 C   0  0  0  0  0  0  0  0  0  0  0  0
  -13.6874  -38.2617  -11.0430 C   0  0  0  0  0  0  0  0  0  0  0  0
  -14.0643  -37.5638  -12.1867 C   0  0  0  0  0  0  0  0  0  0  0  0
  -14.3338  -38.2178  -13.3692 C   0  0  0  0  0  0  0  0  0  0  0  0
  -14.2147  -39.5884  -13.3714 C   0  0  0  0  0  0  0  0  0  0  0  0
  -13.8464  -40.2826  -12.2584 C   0  0  0  0  0  0  0  0  0  0  0  0
  -14.1613  -36.0810  -12.0717 C   0  0  0  0  0  0  0  0  0  0  0  0
  -15.6259  -35.7195  -12.2519 C   0  0  0  0  0  0  0  0  0  0  0  0
  -13.2907  -35.4787  -13.1469 C   0  0  0  0  0  0  0  0  0  0  0  0
  -13.6745  -35.5910  -10.7240 C   0  0  0  0  0  0  0  0  0  0  0  0
  2  1  1  1
  2  3  1  0
  3  4  1  0
  4  5  1  0
  5  6  1  0
  6  7  1  0
  7  8  1  0
  8  9  1  0
  9 10  1  0
 10 11  1  0
 11 12  2  0
 11 13  2  0
 11 14  1  0
 14 15  1  0
 15 16  1  1
 15 17  1  0
 17 18  2  0
 17 19  1  0
 19 20  1  0
 20 21  1  1
 20 22  1  0
 22 23  1  6
 22 24  1  0
 24 25  1  0
 25 26  1  0
 26 27  1  0
 27 28  1  0
 26 29  1  0
 29 30  2  0
 30 31  1  0
 31 32  2  0
 32 33  1  0
 33 34  2  0
 31 35  1  0
 35 36  1  0
 35 37  1  0
 35 38  1  0
 21  2  1  0
 28 26  1  0
 34 29  1  0
M  END
$$$$
