
     RDKit          3D

 33 33  0  0  0  0  0  0  0  0999 V2000
  -12.9942  -36.0216  -14.2441 C   0  0  0  0  0  0  0  0  0  0  0  0
  -12.2910  -36.3588  -12.9521 C   0  0  0  0  0  0  0  0  0  0  0  0
  -13.0991  -35.7869  -11.8148 C   0  0  0  0  0  0  0  0  0  0  0  0
  -14.2547  -36.6926  -11.5212 C   0  0  0  0  0  0  0  0  0  0  0  0
  -13.9808  -37.4579  -10.3420 N   0  0  0  0  0  0  0  0  0  0  0  0
  -14.0513  -38.8858  -10.4648 C   0  0  0  0  0  0  0  0  0  0  0  0
  -14.1447  -39.4723  -11.5702 O   0  0  0  0  0  0  0  0  0  0  0  0
  -14.0088  -39.6684   -9.2024 C   0  0  2  0  0  0  0  0  0  0  0  0
  -12.6878  -40.3759   -9.1530 C   0  0  0  0  0  0  0  0  0  0  0  0
  -15.1879  -40.6199   -9.2195 C   0  0  0  0  0  0  0  0  0  0  0  0
  -16.4329  -39.8364   -8.9403 C   0  0  2  0  0  0  0  0  0  0  0  0
  -16.1176  -38.7304   -8.1531 O   0  0  0  0  0  0  0  0  0  0  0  0
  -17.4885  -40.6252   -8.2103 C   0  0  2  0  0  0  0  0  0  0  0  0
  -18.3477  -39.5919   -7.4729 C   0  0  0  0  0  0  0  0  0  0  0  0
  -19.1701  -38.7624   -8.3763 C   0  0  2  0  0  0  0  0  0  0  0  0
  -18.9006  -37.2719   -8.1289 C   0  0  0  0  0  0  0  0  0  0  0  0
  -20.6655  -38.9435   -8.1925 C   0  0  0  0  0  0  0  0  0  0  0  0
  -21.1544  -38.4388   -6.8714 C   0  0  0  0  0  0  0  0  0  0  0  0
  -21.8808  -39.5057   -6.0803 C   0  0  0  0  0  0  0  0  0  0  0  0
  -23.2184  -39.8496   -6.6610 C   0  0  0  0  0  0  0  0  0  0  0  0
  -23.7598  -41.0653   -5.9621 C   0  0  0  0  0  0  0  0  0  0  0  0
  -23.7661  -42.2953   -6.8433 C   0  0  0  0  0  0  0  0  0  0  0  0
  -22.3420  -42.7651   -7.0488 C   0  0  0  0  0  0  0  0  0  0  0  0
  -22.2627  -44.1600   -7.6027 C   0  0  0  0  0  0  0  0  0  0  0  0
  -20.5823  -44.6995   -7.5450 S   0  0  0  0  0  6  0  0  0  0  0  0
  -20.3906  -45.7602   -8.5858 O   0  0  0  0  0  0  0  0  0  0  0  0
  -20.2825  -45.3172   -6.1886 O   0  0  0  0  0  0  0  0  0  0  0  0
  -19.4547  -43.3376   -7.8409 C   0  0  0  0  0  0  0  0  0  0  0  0
  -18.0602  -43.6919   -7.4054 C   0  0  1  0  0  0  0  0  0  0  0  0
  -17.1769  -44.0801   -8.5984 C   0  0  0  0  0  0  0  0  0  0  0  0
  -17.4169  -42.6010   -6.6087 C   0  0  0  0  0  0  0  0  0  0  0  0
  -17.3799  -42.7643   -5.3576 O   0  0  0  0  0  0  0  0  0  0  0  0
  -16.8649  -41.4301   -7.1803 N   0  0  0  0  0  0  0  0  0  0  0  0
  1  2  1  0
  2  3  1  0
  3  4  1  0
  4  5  1  0
  5  6  1  0
  6  7  2  0
  6  8  1  0
  8  9  1  6
  8 10  1  0
 10 11  1  0
 11 12  1  1
 11 13  1  0
 13 14  1  1
 14 15  1  0
 15 16  1  1
 15 17  1  0
 17 18  1  0
 18 19  1  0
 19 20  1  0
 20 21  1  0
 21 22  1  0
 22 23  1  0
 23 24  1  0
 24 25  1  0
 25 26  2  0
 25 27  2  0
 25 28  1  0
 28 29  1  0
 29 30  1  6
 29 31  1  0
 31 32  2  0
 31 33  1  0
 33 13  1  0
M  END
$$$$
