
     RDKit          3D

 33 33  0  0  0  0  0  0  0  0999 V2000
  -10.1054  -40.9785  -14.1918 C   0  0  0  0  0  0  0  0  0  0  0  0
  -11.6004  -40.9904  -14.3983 C   0  0  0  0  0  0  0  0  0  0  0  0
  -12.2025  -39.9132  -13.5319 C   0  0  0  0  0  0  0  0  0  0  0  0
  -12.9453  -40.5459  -12.3961 C   0  0  0  0  0  0  0  0  0  0  0  0
  -13.4621  -39.5282  -11.5309 N   0  0  0  0  0  0  0  0  0  0  0  0
  -14.8757  -39.5428  -11.2850 C   0  0  0  0  0  0  0  0  0  0  0  0
  -15.6584  -40.3464  -11.8474 O   0  0  0  0  0  0  0  0  0  0  0  0
  -15.3958  -38.5455  -10.3140 C   0  0  2  0  0  0  0  0  0  0  0  0
  -14.6088  -37.2826  -10.4973 C   0  0  0  0  0  0  0  0  0  0  0  0
  -15.2437  -39.1402   -8.9287 C   0  0  0  0  0  0  0  0  0  0  0  0
  -16.5185  -38.9180   -8.1754 C   0  0  2  0  0  0  0  0  0  0  0  0
  -16.2243  -38.4775   -6.8864 O   0  0  0  0  0  0  0  0  0  0  0  0
  -17.3650  -40.1576   -8.0477 C   0  0  2  0  0  0  0  0  0  0  0  0
  -18.6174  -39.7309   -7.2736 C   0  0  0  0  0  0  0  0  0  0  0  0
  -19.5086  -38.8423   -8.0459 C   0  0  2  0  0  0  0  0  0  0  0  0
  -19.7775  -37.5463   -7.2689 C   0  0  0  0  0  0  0  0  0  0  0  0
  -20.8747  -39.4361   -8.3357 C   0  0  0  0  0  0  0  0  0  0  0  0
  -21.7040  -39.6161   -7.1031 C   0  0  0  0  0  0  0  0  0  0  0  0
  -22.1633  -41.0471   -6.9219 C   0  0  0  0  0  0  0  0  0  0  0  0
  -23.2080  -41.4521   -7.9166 C   0  0  0  0  0  0  0  0  0  0  0  0
  -23.4322  -42.9352   -7.8178 C   0  0  0  0  0  0  0  0  0  0  0  0
  -22.9009  -43.6905   -9.0164 C   0  0  0  0  0  0  0  0  0  0  0  0
  -21.3879  -43.6848   -8.9752 C   0  0  0  0  0  0  0  0  0  0  0  0
  -20.7758  -44.6928   -9.9069 C   0  0  0  0  0  0  0  0  0  0  0  0
  -19.0429  -44.7889   -9.5808 S   0  0  0  0  0  6  0  0  0  0  0  0
  -18.3562  -45.2839  -10.8171 O   0  0  0  0  0  0  0  0  0  0  0  0
  -18.7797  -45.7906   -8.4680 O   0  0  0  0  0  0  0  0  0  0  0  0
  -18.3832  -43.1898   -9.1102 C   0  0  0  0  0  0  0  0  0  0  0  0
  -17.0370  -43.3362   -8.4574 C   0  0  1  0  0  0  0  0  0  0  0  0
  -15.8978  -43.0068   -9.4310 C   0  0  0  0  0  0  0  0  0  0  0  0
  -16.9155  -42.5180   -7.2106 C   0  0  0  0  0  0  0  0  0  0  0  0
  -17.0274  -43.1382   -6.1170 O   0  0  0  0  0  0  0  0  0  0  0  0
  -16.6874  -41.1215   -7.2054 N   0  0  0  0  0  0  0  0  0  0  0  0
  1  2  1  0
  2  3  1  0
  3  4  1  0
  4  5  1  0
  5  6  1  0
  6  7  2  0
  6  8  1  0
  8  9  1  1
  8 10  1  0
 10 11  1  0
 11 12  1  1
 11 13  1  0
 13 14  1  1
 14 15  1  0
 15 16  1  1
 15 17  1  0
 17 18  1  0
 18 19  1  0
 19 20  1  0
 20 21  1  0
 21 22  1  0
 22 23  1  0
 23 24  1  0
 24 25  1  0
 25 26  2  0
 25 27  2  0
 25 28  1  0
 28 29  1  0
 29 30  1  6
 29 31  1  0
 31 32  2  0
 31 33  1  0
 33 13  1  0
M  END
$$$$
