
     RDKit          3D

 33 33  0  0  0  0  0  0  0  0999 V2000
  -15.9409  -35.1291  -13.0893 C   0  0  0  0  0  0  0  0  0  0  0  0
  -15.3698  -36.5226  -12.9913 C   0  0  0  0  0  0  0  0  0  0  0  0
  -14.3289  -36.5276  -11.9004 C   0  0  0  0  0  0  0  0  0  0  0  0
  -13.7574  -37.9049  -11.7647 C   0  0  0  0  0  0  0  0  0  0  0  0
  -13.6855  -38.2634  -10.3799 N   0  0  0  0  0  0  0  0  0  0  0  0
  -14.3184  -39.4922   -9.9947 C   0  0  0  0  0  0  0  0  0  0  0  0
  -15.2318  -40.0298  -10.6665 O   0  0  0  0  0  0  0  0  0  0  0  0
  -13.8417  -40.1243   -8.7372 C   0  0  2  0  0  0  0  0  0  0  0  0
  -12.6707  -40.9942   -9.0837 C   0  0  0  0  0  0  0  0  0  0  0  0
  -15.0030  -40.9027   -8.1531 C   0  0  0  0  0  0  0  0  0  0  0  0
  -16.2174  -40.0269   -8.1717 C   0  0  2  0  0  0  0  0  0  0  0  0
  -15.9849  -38.8958   -7.3914 O   0  0  0  0  0  0  0  0  0  0  0  0
  -17.4529  -40.7010   -7.6348 C   0  0  2  0  0  0  0  0  0  0  0  0
  -18.3197  -39.5805   -7.0492 C   0  0  0  0  0  0  0  0  0  0  0  0
  -18.8927  -38.6864   -8.0753 C   0  0  2  0  0  0  0  0  0  0  0  0
  -18.5252  -37.2260   -7.7792 C   0  0  0  0  0  0  0  0  0  0  0  0
  -20.4081  -38.7199   -8.1485 C   0  0  0  0  0  0  0  0  0  0  0  0
  -21.0620  -38.1541   -6.9272 C   0  0  0  0  0  0  0  0  0  0  0  0
  -22.0121  -39.1360   -6.2754 C   0  0  0  0  0  0  0  0  0  0  0  0
  -23.2592  -39.3561   -7.0759 C   0  0  0  0  0  0  0  0  0  0  0  0
  -24.0268  -40.5051   -6.4843 C   0  0  0  0  0  0  0  0  0  0  0  0
  -24.0036  -41.7394   -7.3592 C   0  0  0  0  0  0  0  0  0  0  0  0
  -22.6179  -42.3471   -7.3223 C   0  0  0  0  0  0  0  0  0  0  0  0
  -22.5823  -43.7498   -7.8609 C   0  0  0  0  0  0  0  0  0  0  0  0
  -20.9965  -44.4486   -7.5214 S   0  0  0  0  0  6  0  0  0  0  0  0
  -20.7357  -45.5354   -8.5193 O   0  0  0  0  0  0  0  0  0  0  0  0
  -20.9920  -45.0758   -6.1366 O   0  0  0  0  0  0  0  0  0  0  0  0
  -19.7079  -43.2058   -7.6159 C   0  0  0  0  0  0  0  0  0  0  0  0
  -18.4484  -43.6879   -6.9519 C   0  0  1  0  0  0  0  0  0  0  0  0
  -17.4181  -44.1743   -7.9795 C   0  0  0  0  0  0  0  0  0  0  0  0
  -17.8460  -42.6547   -6.0528 C   0  0  0  0  0  0  0  0  0  0  0  0
  -18.0373  -42.8056   -4.8143 O   0  0  0  0  0  0  0  0  0  0  0  0
  -17.0940  -41.5498   -6.5174 N   0  0  0  0  0  0  0  0  0  0  0  0
  1  2  1  0
  2  3  1  0
  3  4  1  0
  4  5  1  0
  5  6  1  0
  6  7  2  0
  6  8  1  0
  8  9  1  6
  8 10  1  0
 10 11  1  0
 11 12  1  1
 11 13  1  0
 13 14  1  1
 14 15  1  0
 15 16  1  1
 15 17  1  0
 17 18  1  0
 18 19  1  0
 19 20  1  0
 20 21  1  0
 21 22  1  0
 22 23  1  0
 23 24  1  0
 24 25  1  0
 25 26  2  0
 25 27  2  0
 25 28  1  0
 28 29  1  0
 29 30  1  6
 29 31  1  0
 31 32  2  0
 31 33  1  0
 33 13  1  0
M  END
$$$$
