
     RDKit          3D

 33 33  0  0  0  0  0  0  0  0999 V2000
  -13.8890  -41.5644  -15.1345 C   0  0  0  0  0  0  0  0  0  0  0  0
  -13.5796  -41.4484  -13.6619 C   0  0  0  0  0  0  0  0  0  0  0  0
  -12.8874  -40.1292  -13.4302 C   0  0  0  0  0  0  0  0  0  0  0  0
  -12.4257  -40.0529  -12.0078 C   0  0  0  0  0  0  0  0  0  0  0  0
  -13.3157  -39.2203  -11.2555 N   0  0  0  0  0  0  0  0  0  0  0  0
  -13.9929  -39.8304  -10.1473 C   0  0  0  0  0  0  0  0  0  0  0  0
  -14.5621  -40.9461  -10.2251 O   0  0  0  0  0  0  0  0  0  0  0  0
  -13.9973  -39.0744   -8.8680 C   0  0  2  0  0  0  0  0  0  0  0  0
  -12.6075  -39.1249   -8.3079 C   0  0  0  0  0  0  0  0  0  0  0  0
  -15.0231  -39.7241   -7.9616 C   0  0  0  0  0  0  0  0  0  0  0  0
  -16.3824  -39.5019   -8.5490 C   0  0  2  0  0  0  0  0  0  0  0  0
  -16.7862  -38.1915   -8.3002 O   0  0  0  0  0  0  0  0  0  0  0  0
  -17.4381  -40.4159   -7.9839 C   0  0  2  0  0  0  0  0  0  0  0  0
  -18.3500  -39.5254   -7.1323 C   0  0  0  0  0  0  0  0  0  0  0  0
  -19.1660  -38.5892   -7.9312 C   0  0  2  0  0  0  0  0  0  0  0  0
  -18.9475  -37.1468   -7.4545 C   0  0  0  0  0  0  0  0  0  0  0  0
  -20.6608  -38.8308   -7.8310 C   0  0  0  0  0  0  0  0  0  0  0  0
  -21.2067  -38.5417   -6.4680 C   0  0  0  0  0  0  0  0  0  0  0  0
  -21.9275  -39.7320   -5.8719 C   0  0  0  0  0  0  0  0  0  0  0  0
  -23.2351  -40.0161   -6.5457 C   0  0  0  0  0  0  0  0  0  0  0  0
  -23.7640  -41.3353   -6.0562 C   0  0  0  0  0  0  0  0  0  0  0  0
  -23.7064  -42.4189   -7.1107 C   0  0  0  0  0  0  0  0  0  0  0  0
  -22.2635  -42.8190   -7.3320 C   0  0  0  0  0  0  0  0  0  0  0  0
  -22.1264  -44.1127   -8.0846 C   0  0  0  0  0  0  0  0  0  0  0  0
  -20.4340  -44.6153   -8.0469 S   0  0  0  0  0  6  0  0  0  0  0  0
  -20.1783  -45.5029   -9.2266 O   0  0  0  0  0  0  0  0  0  0  0  0
  -20.1608  -45.4223   -6.7878 O   0  0  0  0  0  0  0  0  0  0  0  0
  -19.3369  -43.1983   -8.0950 C   0  0  0  0  0  0  0  0  0  0  0  0
  -17.9477  -43.5811   -7.6668 C   0  0  1  0  0  0  0  0  0  0  0  0
  -17.0153  -43.7651   -8.8715 C   0  0  0  0  0  0  0  0  0  0  0  0
  -17.3620  -42.6075   -6.6934 C   0  0  0  0  0  0  0  0  0  0  0  0
  -17.3611  -42.9558   -5.4801 O   0  0  0  0  0  0  0  0  0  0  0  0
  -16.8255  -41.3515   -7.0634 N   0  0  0  0  0  0  0  0  0  0  0  0
  1  2  1  0
  2  3  1  0
  3  4  1  0
  4  5  1  0
  5  6  1  0
  6  7  2  0
  6  8  1  0
  8  9  1  1
  8 10  1  0
 10 11  1  0
 11 12  1  1
 11 13  1  0
 13 14  1  1
 14 15  1  0
 15 16  1  1
 15 17  1  0
 17 18  1  0
 18 19  1  0
 19 20  1  0
 20 21  1  0
 21 22  1  0
 22 23  1  0
 23 24  1  0
 24 25  1  0
 25 26  2  0
 25 27  2  0
 25 28  1  0
 28 29  1  0
 29 30  1  6
 29 31  1  0
 31 32  2  0
 31 33  1  0
 33 13  1  0
M  END
$$$$
