
     RDKit          3D

 33 33  0  0  0  0  0  0  0  0999 V2000
  -16.8675  -35.0590  -12.6457 C   0  0  0  0  0  0  0  0  0  0  0  0
  -15.9036  -35.9754  -13.3590 C   0  0  0  0  0  0  0  0  0  0  0  0
  -14.6298  -36.0347  -12.5545 C   0  0  0  0  0  0  0  0  0  0  0  0
  -14.2044  -37.4622  -12.4013 C   0  0  0  0  0  0  0  0  0  0  0  0
  -13.9811  -37.7535  -11.0169 N   0  0  0  0  0  0  0  0  0  0  0  0
  -14.5721  -38.9562  -10.5040 C   0  0  0  0  0  0  0  0  0  0  0  0
  -15.3009  -39.7079  -11.1958 O   0  0  0  0  0  0  0  0  0  0  0  0
  -14.2834  -39.2908   -9.0853 C   0  0  2  0  0  0  0  0  0  0  0  0
  -12.8590  -39.7527   -9.0102 C   0  0  0  0  0  0  0  0  0  0  0  0
  -15.2729  -40.3569   -8.6610 C   0  0  0  0  0  0  0  0  0  0  0  0
  -16.6222  -39.7226   -8.5230 C   0  0  2  0  0  0  0  0  0  0  0  0
  -16.5084  -38.5477   -7.7822 O   0  0  0  0  0  0  0  0  0  0  0  0
  -17.6305  -40.6000   -7.8280 C   0  0  2  0  0  0  0  0  0  0  0  0
  -18.6115  -39.6447   -7.1388 C   0  0  0  0  0  0  0  0  0  0  0  0
  -19.4680  -38.9020   -8.0850 C   0  0  2  0  0  0  0  0  0  0  0  0
  -19.3476  -37.3910   -7.8442 C   0  0  0  0  0  0  0  0  0  0  0  0
  -20.9468  -39.2192   -7.9609 C   0  0  0  0  0  0  0  0  0  0  0  0
  -21.5354  -38.7514   -6.6670 C   0  0  0  0  0  0  0  0  0  0  0  0
  -22.1931  -39.8747   -5.8941 C   0  0  0  0  0  0  0  0  0  0  0  0
  -23.4677  -40.3455   -6.5253 C   0  0  0  0  0  0  0  0  0  0  0  0
  -23.9239  -41.6004   -5.8351 C   0  0  0  0  0  0  0  0  0  0  0  0
  -23.7797  -42.8327   -6.7013 C   0  0  0  0  0  0  0  0  0  0  0  0
  -22.3110  -43.1703   -6.8424 C   0  0  0  0  0  0  0  0  0  0  0  0
  -22.0804  -44.5562   -7.3762 C   0  0  0  0  0  0  0  0  0  0  0  0
  -20.3613  -44.9376   -7.2429 S   0  0  0  0  0  6  0  0  0  0  0  0
  -20.0291  -45.9841   -8.2624 O   0  0  0  0  0  0  0  0  0  0  0  0
  -20.0633  -45.5142   -5.8682 O   0  0  0  0  0  0  0  0  0  0  0  0
  -19.3525  -43.4796   -7.5081 C   0  0  0  0  0  0  0  0  0  0  0  0
  -17.9509  -43.6999   -7.0114 C   0  0  1  0  0  0  0  0  0  0  0  0
  -16.9861  -44.0142   -8.1623 C   0  0  0  0  0  0  0  0  0  0  0  0
  -17.4448  -42.5480   -6.2016 C   0  0  0  0  0  0  0  0  0  0  0  0
  -17.4458  -42.6973   -4.9482 O   0  0  0  0  0  0  0  0  0  0  0  0
  -16.9795  -41.3356   -6.7637 N   0  0  0  0  0  0  0  0  0  0  0  0
  1  2  1  0
  2  3  1  0
  3  4  1  0
  4  5  1  0
  5  6  1  0
  6  7  2  0
  6  8  1  0
  8  9  1  6
  8 10  1  0
 10 11  1  0
 11 12  1  1
 11 13  1  0
 13 14  1  1
 14 15  1  0
 15 16  1  1
 15 17  1  0
 17 18  1  0
 18 19  1  0
 19 20  1  0
 20 21  1  0
 21 22  1  0
 22 23  1  0
 23 24  1  0
 24 25  1  0
 25 26  2  0
 25 27  2  0
 25 28  1  0
 28 29  1  0
 29 30  1  6
 29 31  1  0
 31 32  2  0
 31 33  1  0
 33 13  1  0
M  END
$$$$
