
     RDKit          3D

 33 33  0  0  0  0  0  0  0  0999 V2000
  -13.0177  -34.1216  -13.2202 C   0  0  0  0  0  0  0  0  0  0  0  0
  -13.1689  -35.6230  -13.1936 C   0  0  0  0  0  0  0  0  0  0  0  0
  -13.0592  -36.0805  -11.7612 C   0  0  0  0  0  0  0  0  0  0  0  0
  -14.3220  -36.7806  -11.3647 C   0  0  0  0  0  0  0  0  0  0  0  0
  -14.1208  -37.4763  -10.1290 N   0  0  0  0  0  0  0  0  0  0  0  0
  -14.4109  -38.8815  -10.1213 C   0  0  0  0  0  0  0  0  0  0  0  0
  -14.9090  -39.4813  -11.1046 O   0  0  0  0  0  0  0  0  0  0  0  0
  -14.0922  -39.6232   -8.8738 C   0  0  2  0  0  0  0  0  0  0  0  0
  -12.7409  -40.2481   -9.0516 C   0  0  0  0  0  0  0  0  0  0  0  0
  -15.1913  -40.6442   -8.6607 C   0  0  0  0  0  0  0  0  0  0  0  0
  -16.4194  -39.9271   -8.1923 C   0  0  2  0  0  0  0  0  0  0  0  0
  -16.0777  -39.0396   -7.1736 O   0  0  0  0  0  0  0  0  0  0  0  0
  -17.4836  -40.8470   -7.6529 C   0  0  2  0  0  0  0  0  0  0  0  0
  -18.3550  -39.9844   -6.7329 C   0  0  0  0  0  0  0  0  0  0  0  0
  -19.1663  -38.9878   -7.4602 C   0  0  2  0  0  0  0  0  0  0  0  0
  -18.9033  -37.5789   -6.9111 C   0  0  0  0  0  0  0  0  0  0  0  0
  -20.6638  -39.2011   -7.3381 C   0  0  0  0  0  0  0  0  0  0  0  0
  -21.1721  -38.9751   -5.9489 C   0  0  0  0  0  0  0  0  0  0  0  0
  -21.9073  -40.1799   -5.4017 C   0  0  0  0  0  0  0  0  0  0  0  0
  -23.2361  -40.3974   -6.0589 C   0  0  0  0  0  0  0  0  0  0  0  0
  -23.7848  -41.7293   -5.6295 C   0  0  0  0  0  0  0  0  0  0  0  0
  -23.7764  -42.7544   -6.7424 C   0  0  0  0  0  0  0  0  0  0  0  0
  -22.3486  -43.1738   -7.0191 C   0  0  0  0  0  0  0  0  0  0  0  0
  -22.2589  -44.4270   -7.8440 C   0  0  0  0  0  0  0  0  0  0  0  0
  -20.5784  -44.9686   -7.8736 S   0  0  0  0  0  6  0  0  0  0  0  0
  -20.3701  -45.7956   -9.1055 O   0  0  0  0  0  0  0  0  0  0  0  0
  -20.2963  -45.8495   -6.6671 O   0  0  0  0  0  0  0  0  0  0  0  0
  -19.4495  -43.5760   -7.8705 C   0  0  0  0  0  0  0  0  0  0  0  0
  -18.0605  -44.0127   -7.4966 C   0  0  1  0  0  0  0  0  0  0  0  0
  -17.1599  -44.1510   -8.7311 C   0  0  0  0  0  0  0  0  0  0  0  0
  -17.4304  -43.1073   -6.4857 C   0  0  0  0  0  0  0  0  0  0  0  0
  -17.4107  -43.5216   -5.2935 O   0  0  0  0  0  0  0  0  0  0  0  0
  -16.8729  -41.8451   -6.7994 N   0  0  0  0  0  0  0  0  0  0  0  0
  1  2  1  0
  2  3  1  0
  3  4  1  0
  4  5  1  0
  5  6  1  0
  6  7  2  0
  6  8  1  0
  8  9  1  6
  8 10  1  0
 10 11  1  0
 11 12  1  1
 11 13  1  0
 13 14  1  1
 14 15  1  0
 15 16  1  1
 15 17  1  0
 17 18  1  0
 18 19  1  0
 19 20  1  0
 20 21  1  0
 21 22  1  0
 22 23  1  0
 23 24  1  0
 24 25  1  0
 25 26  2  0
 25 27  2  0
 25 28  1  0
 28 29  1  0
 29 30  1  6
 29 31  1  0
 31 32  2  0
 31 33  1  0
 33 13  1  0
M  END
$$$$
