
     RDKit          3D

 33 33  0  0  0  0  0  0  0  0999 V2000
  -13.3155  -40.7855  -14.8653 C   0  0  0  0  0  0  0  0  0  0  0  0
  -12.5375  -39.7097  -14.1477 C   0  0  0  0  0  0  0  0  0  0  0  0
  -13.5230  -38.7779  -13.4890 C   0  0  0  0  0  0  0  0  0  0  0  0
  -14.0854  -39.4331  -12.2656 C   0  0  0  0  0  0  0  0  0  0  0  0
  -13.3174  -39.0528  -11.1180 N   0  0  0  0  0  0  0  0  0  0  0  0
  -13.6030  -39.7387   -9.8905 C   0  0  0  0  0  0  0  0  0  0  0  0
  -13.7389  -40.9842   -9.8197 O   0  0  0  0  0  0  0  0  0  0  0  0
  -13.7361  -38.8998   -8.6712 C   0  0  2  0  0  0  0  0  0  0  0  0
  -12.3603  -38.6917   -8.1128 C   0  0  0  0  0  0  0  0  0  0  0  0
  -14.6565  -39.6321   -7.7160 C   0  0  0  0  0  0  0  0  0  0  0  0
  -16.0626  -39.1917   -7.9819 C   0  0  2  0  0  0  0  0  0  0  0  0
  -16.5044  -38.3914   -6.9299 O   0  0  0  0  0  0  0  0  0  0  0  0
  -17.0345  -40.3344   -8.1202 C   0  0  2  0  0  0  0  0  0  0  0  0
  -18.2612  -39.9432   -7.2883 C   0  0  0  0  0  0  0  0  0  0  0  0
  -19.0322  -38.8269   -7.8714 C   0  0  2  0  0  0  0  0  0  0  0  0
  -19.1927  -37.6944   -6.8480 C   0  0  0  0  0  0  0  0  0  0  0  0
  -20.4416  -39.2013   -8.2912 C   0  0  0  0  0  0  0  0  0  0  0  0
  -21.3240  -39.5385   -7.1306 C   0  0  0  0  0  0  0  0  0  0  0  0
  -21.9320  -40.9195   -7.2516 C   0  0  0  0  0  0  0  0  0  0  0  0
  -22.9800  -41.0012   -8.3192 C   0  0  0  0  0  0  0  0  0  0  0  0
  -23.3569  -42.4411   -8.5290 C   0  0  0  0  0  0  0  0  0  0  0  0
  -22.8670  -42.9896   -9.8514 C   0  0  0  0  0  0  0  0  0  0  0  0
  -21.3634  -43.1529   -9.7938 C   0  0  0  0  0  0  0  0  0  0  0  0
  -20.8274  -44.0101  -10.9059 C   0  0  0  0  0  0  0  0  0  0  0  0
  -19.1246  -44.3537  -10.5882 S   0  0  0  0  0  6  0  0  0  0  0  0
  -18.4525  -44.6577  -11.8923 O   0  0  0  0  0  0  0  0  0  0  0  0
  -19.0004  -45.5825   -9.7017 O   0  0  0  0  0  0  0  0  0  0  0  0
  -18.3211  -42.9625   -9.7927 C   0  0  0  0  0  0  0  0  0  0  0  0
  -17.0185  -43.3803   -9.1696 C   0  0  1  0  0  0  0  0  0  0  0  0
  -15.8210  -42.9830  -10.0428 C   0  0  0  0  0  0  0  0  0  0  0  0
  -16.8544  -42.8496   -7.7803 C   0  0  0  0  0  0  0  0  0  0  0  0
  -17.0638  -43.6633   -6.8383 O   0  0  0  0  0  0  0  0  0  0  0  0
  -16.4857  -41.5154   -7.4864 N   0  0  0  0  0  0  0  0  0  0  0  0
  1  2  1  0
  2  3  1  0
  3  4  1  0
  4  5  1  0
  5  6  1  0
  6  7  2  0
  6  8  1  0
  8  9  1  1
  8 10  1  0
 10 11  1  0
 11 12  1  1
 11 13  1  0
 13 14  1  1
 14 15  1  0
 15 16  1  1
 15 17  1  0
 17 18  1  0
 18 19  1  0
 19 20  1  0
 20 21  1  0
 21 22  1  0
 22 23  1  0
 23 24  1  0
 24 25  1  0
 25 26  2  0
 25 27  2  0
 25 28  1  0
 28 29  1  0
 29 30  1  6
 29 31  1  0
 31 32  2  0
 31 33  1  0
 33 13  1  0
M  END
$$$$
