
     RDKit          3D

 33 33  0  0  0  0  0  0  0  0999 V2000
  -14.4556  -34.0872  -12.6824 C   0  0  0  0  0  0  0  0  0  0  0  0
  -13.1054  -34.7429  -12.5253 C   0  0  0  0  0  0  0  0  0  0  0  0
  -13.1056  -35.5131  -11.2291 C   0  0  0  0  0  0  0  0  0  0  0  0
  -14.0413  -36.6767  -11.3424 C   0  0  0  0  0  0  0  0  0  0  0  0
  -13.8490  -37.5606  -10.2318 N   0  0  0  0  0  0  0  0  0  0  0  0
  -14.5650  -38.8037  -10.2612 C   0  0  0  0  0  0  0  0  0  0  0  0
  -15.3300  -39.1292  -11.2011 O   0  0  0  0  0  0  0  0  0  0  0  0
  -14.3637  -39.7186   -9.1077 C   0  0  2  0  0  0  0  0  0  0  0  0
  -13.0917  -40.4753   -9.3469 C   0  0  0  0  0  0  0  0  0  0  0  0
  -15.5798  -40.6188   -9.0261 C   0  0  0  0  0  0  0  0  0  0  0  0
  -16.6929  -39.8537   -8.3798 C   0  0  2  0  0  0  0  0  0  0  0  0
  -16.1655  -38.9854   -7.4258 O   0  0  0  0  0  0  0  0  0  0  0  0
  -17.7011  -40.7312   -7.6849 C   0  0  2  0  0  0  0  0  0  0  0  0
  -18.7206  -39.7770   -7.0524 C   0  0  0  0  0  0  0  0  0  0  0  0
  -19.5663  -39.0827   -8.0440 C   0  0  2  0  0  0  0  0  0  0  0  0
  -19.4845  -37.5627   -7.8474 C   0  0  0  0  0  0  0  0  0  0  0  0
  -21.0409  -39.4283   -7.9496 C   0  0  0  0  0  0  0  0  0  0  0  0
  -21.6745  -38.9341   -6.6872 C   0  0  0  0  0  0  0  0  0  0  0  0
  -22.3292  -40.0473   -5.8974 C   0  0  0  0  0  0  0  0  0  0  0  0
  -23.5759  -40.5650   -6.5475 C   0  0  0  0  0  0  0  0  0  0  0  0
  -24.0242  -41.8080   -5.8308 C   0  0  0  0  0  0  0  0  0  0  0  0
  -23.8303  -43.0627   -6.6539 C   0  0  0  0  0  0  0  0  0  0  0  0
  -22.3515  -43.3722   -6.7450 C   0  0  0  0  0  0  0  0  0  0  0  0
  -22.0771  -44.7685   -7.2289 C   0  0  0  0  0  0  0  0  0  0  0  0
  -20.3547  -45.1077   -7.0378 S   0  0  0  0  0  6  0  0  0  0  0  0
  -19.9726  -46.1775   -8.0148 O   0  0  0  0  0  0  0  0  0  0  0  0
  -20.0824  -45.6352   -5.6383 O   0  0  0  0  0  0  0  0  0  0  0  0
  -19.3700  -43.6367   -7.3213 C   0  0  0  0  0  0  0  0  0  0  0  0
  -17.9782  -43.8109   -6.7807 C   0  0  1  0  0  0  0  0  0  0  0  0
  -16.9758  -44.1391   -7.8950 C   0  0  0  0  0  0  0  0  0  0  0  0
  -17.5190  -42.6238   -5.9941 C   0  0  0  0  0  0  0  0  0  0  0  0
  -17.5511  -42.7346   -4.7371 O   0  0  0  0  0  0  0  0  0  0  0  0
  -17.0641  -41.4194   -6.5812 N   0  0  0  0  0  0  0  0  0  0  0  0
  1  2  1  0
  2  3  1  0
  3  4  1  0
  4  5  1  0
  5  6  1  0
  6  7  2  0
  6  8  1  0
  8  9  1  6
  8 10  1  0
 10 11  1  0
 11 12  1  1
 11 13  1  0
 13 14  1  1
 14 15  1  0
 15 16  1  1
 15 17  1  0
 17 18  1  0
 18 19  1  0
 19 20  1  0
 20 21  1  0
 21 22  1  0
 22 23  1  0
 23 24  1  0
 24 25  1  0
 25 26  2  0
 25 27  2  0
 25 28  1  0
 28 29  1  0
 29 30  1  6
 29 31  1  0
 31 32  2  0
 31 33  1  0
 33 13  1  0
M  END
$$$$
