
     RDKit          3D

 33 33  0  0  0  0  0  0  0  0999 V2000
  -12.2700  -34.3262  -10.8096 C   0  0  0  0  0  0  0  0  0  0  0  0
  -13.3186  -35.0929  -11.5779 C   0  0  0  0  0  0  0  0  0  0  0  0
  -12.8256  -36.5057  -11.7629 C   0  0  0  0  0  0  0  0  0  0  0  0
  -13.4364  -37.3863  -10.7172 C   0  0  0  0  0  0  0  0  0  0  0  0
  -13.6978  -38.6817  -11.2695 N   0  0  0  0  0  0  0  0  0  0  0  0
  -14.2673  -39.6597  -10.3875 C   0  0  0  0  0  0  0  0  0  0  0  0
  -14.5656  -40.8212  -10.7571 O   0  0  0  0  0  0  0  0  0  0  0  0
  -14.4984  -39.2381   -8.9815 C   0  0  2  0  0  0  0  0  0  0  0  0
  -13.1818  -39.3040   -8.2672 C   0  0  0  0  0  0  0  0  0  0  0  0
  -15.5365  -40.1721   -8.3934 C   0  0  0  0  0  0  0  0  0  0  0  0
  -16.7631  -40.1165   -9.2503 C   0  0  2  0  0  0  0  0  0  0  0  0
  -17.0680  -38.7873   -9.5375 O   0  0  0  0  0  0  0  0  0  0  0  0
  -17.9772  -40.7294   -8.6024 C   0  0  2  0  0  0  0  0  0  0  0  0
  -19.0076  -39.5998   -8.4921 C   0  0  0  0  0  0  0  0  0  0  0  0
  -19.5518  -39.1742   -9.7972 C   0  0  2  0  0  0  0  0  0  0  0  0
  -19.3632  -37.6633   -9.9895 C   0  0  0  0  0  0  0  0  0  0  0  0
  -21.0399  -39.4242   -9.9582 C   0  0  0  0  0  0  0  0  0  0  0  0
  -21.8736  -38.5773   -9.0488 C   0  0  0  0  0  0  0  0  0  0  0  0
  -22.7874  -39.4038   -8.1692 C   0  0  0  0  0  0  0  0  0  0  0  0
  -23.9136  -40.0330   -8.9310 C   0  0  0  0  0  0  0  0  0  0  0  0
  -24.6241  -41.0121   -8.0388 C   0  0  0  0  0  0  0  0  0  0  0  0
  -24.3861  -42.4517   -8.4395 C   0  0  0  0  0  0  0  0  0  0  0  0
  -22.9595  -42.8302   -8.1041 C   0  0  0  0  0  0  0  0  0  0  0  0
  -22.7288  -44.3151   -8.1314 C   0  0  0  0  0  0  0  0  0  0  0  0
  -21.1279  -44.6537   -7.4676 S   0  0  0  0  0  6  0  0  0  0  0  0
  -20.6560  -45.9651   -8.0175 O   0  0  0  0  0  0  0  0  0  0  0  0
  -21.2109  -44.7846   -5.9553 O   0  0  0  0  0  0  0  0  0  0  0  0
  -19.9647  -43.3564   -7.8896 C   0  0  0  0  0  0  0  0  0  0  0  0
  -18.7427  -43.4274   -7.0169 C   0  0  1  0  0  0  0  0  0  0  0  0
  -17.5652  -44.0880   -7.7458 C   0  0  0  0  0  0  0  0  0  0  0  0
  -18.3447  -42.0878   -6.4825 C   0  0  0  0  0  0  0  0  0  0  0  0
  -18.6523  -41.8463   -5.2824 O   0  0  0  0  0  0  0  0  0  0  0  0
  -17.6590  -41.1101   -7.2417 N   0  0  0  0  0  0  0  0  0  0  0  0
  1  2  1  0
  2  3  1  0
  3  4  1  0
  4  5  1  0
  5  6  1  0
  6  7  2  0
  6  8  1  0
  8  9  1  1
  8 10  1  0
 10 11  1  0
 11 12  1  1
 11 13  1  0
 13 14  1  1
 14 15  1  0
 15 16  1  1
 15 17  1  0
 17 18  1  0
 18 19  1  0
 19 20  1  0
 20 21  1  0
 21 22  1  0
 22 23  1  0
 23 24  1  0
 24 25  1  0
 25 26  2  0
 25 27  2  0
 25 28  1  0
 28 29  1  0
 29 30  1  6
 29 31  1  0
 31 32  2  0
 31 33  1  0
 33 13  1  0
M  END
$$$$
