
     RDKit          3D

 33 33  0  0  0  0  0  0  0  0999 V2000
  -14.0062  -42.7634  -14.4917 C   0  0  0  0  0  0  0  0  0  0  0  0
  -13.2160  -42.0109  -13.4492 C   0  0  0  0  0  0  0  0  0  0  0  0
  -14.0112  -40.7956  -13.0442 C   0  0  0  0  0  0  0  0  0  0  0  0
  -13.4123  -40.1987  -11.8084 C   0  0  0  0  0  0  0  0  0  0  0  0
  -14.1853  -39.0656  -11.3961 N   0  0  0  0  0  0  0  0  0  0  0  0
  -14.8364  -39.1544  -10.1206 C   0  0  0  0  0  0  0  0  0  0  0  0
  -14.8991  -40.2186   -9.4585 O   0  0  0  0  0  0  0  0  0  0  0  0
  -15.4514  -37.9078   -9.5955 C   0  0  2  0  0  0  0  0  0  0  0  0
  -14.6004  -37.4276   -8.4584 C   0  0  0  0  0  0  0  0  0  0  0  0
  -16.8669  -38.2444   -9.1725 C   0  0  0  0  0  0  0  0  0  0  0  0
  -16.8093  -38.9823   -7.8708 C   0  0  2  0  0  0  0  0  0  0  0  0
  -15.4835  -39.2881   -7.5698 O   0  0  0  0  0  0  0  0  0  0  0  0
  -17.5817  -40.2756   -7.8785 C   0  0  2  0  0  0  0  0  0  0  0  0
  -18.8453  -40.0131   -7.0514 C   0  0  0  0  0  0  0  0  0  0  0  0
  -19.7968  -39.0965   -7.7108 C   0  0  2  0  0  0  0  0  0  0  0  0
  -20.1283  -37.9146   -6.7895 C   0  0  0  0  0  0  0  0  0  0  0  0
  -21.1307  -39.7326   -8.0558 C   0  0  0  0  0  0  0  0  0  0  0  0
  -21.9307  -40.0989   -6.8453 C   0  0  0  0  0  0  0  0  0  0  0  0
  -22.3048  -41.5656   -6.8245 C   0  0  0  0  0  0  0  0  0  0  0  0
  -23.3386  -41.9159   -7.8507 C   0  0  0  0  0  0  0  0  0  0  0  0
  -23.4761  -43.4112   -7.9194 C   0  0  0  0  0  0  0  0  0  0  0  0
  -22.9196  -43.9939   -9.2002 C   0  0  0  0  0  0  0  0  0  0  0  0
  -21.4090  -43.9044   -9.1701 C   0  0  0  0  0  0  0  0  0  0  0  0
  -20.7535  -44.7631  -10.2150 C   0  0  0  0  0  0  0  0  0  0  0  0
  -19.0136  -44.7940   -9.9152 S   0  0  0  0  0  6  0  0  0  0  0  0
  -18.3173  -45.1052  -11.2049 O   0  0  0  0  0  0  0  0  0  0  0  0
  -18.6776  -45.8980   -8.9254 O   0  0  0  0  0  0  0  0  0  0  0  0
  -18.4398  -43.2226   -9.2709 C   0  0  0  0  0  0  0  0  0  0  0  0
  -17.0783  -43.3629   -8.6493 C   0  0  1  0  0  0  0  0  0  0  0  0
  -15.9737  -42.8596   -9.5878 C   0  0  0  0  0  0  0  0  0  0  0  0
  -16.9860  -42.6852   -7.3186 C   0  0  0  0  0  0  0  0  0  0  0  0
  -17.0467  -43.4305   -6.3017 O   0  0  0  0  0  0  0  0  0  0  0  0
  -16.8381  -41.2873   -7.1564 N   0  0  0  0  0  0  0  0  0  0  0  0
  1  2  1  0
  2  3  1  0
  3  4  1  0
  4  5  1  0
  5  6  1  0
  6  7  2  0
  6  8  1  0
  8  9  1  1
  8 10  1  0
 10 11  1  0
 11 12  1  6
 11 13  1  0
 13 14  1  1
 14 15  1  0
 15 16  1  1
 15 17  1  0
 17 18  1  0
 18 19  1  0
 19 20  1  0
 20 21  1  0
 21 22  1  0
 22 23  1  0
 23 24  1  0
 24 25  1  0
 25 26  2  0
 25 27  2  0
 25 28  1  0
 28 29  1  0
 29 30  1  6
 29 31  1  0
 31 32  2  0
 31 33  1  0
 33 13  1  0
M  END
$$$$
