
     RDKit          3D

 33 33  0  0  0  0  0  0  0  0999 V2000
  -11.6941  -35.2272  -13.1674 C   0  0  0  0  0  0  0  0  0  0  0  0
  -13.1181  -35.0808  -12.6895 C   0  0  0  0  0  0  0  0  0  0  0  0
  -13.2108  -35.6676  -11.3037 C   0  0  0  0  0  0  0  0  0  0  0  0
  -13.6157  -37.1061  -11.3990 C   0  0  0  0  0  0  0  0  0  0  0  0
  -13.6888  -37.6749  -10.0866 N   0  0  0  0  0  0  0  0  0  0  0  0
  -14.2898  -38.9731   -9.9753 C   0  0  0  0  0  0  0  0  0  0  0  0
  -14.8302  -39.5607  -10.9434 O   0  0  0  0  0  0  0  0  0  0  0  0
  -14.2490  -39.6162   -8.6363 C   0  0  2  0  0  0  0  0  0  0  0  0
  -12.9362  -40.3305   -8.5172 C   0  0  0  0  0  0  0  0  0  0  0  0
  -15.4393  -40.5494   -8.5458 C   0  0  0  0  0  0  0  0  0  0  0  0
  -16.6634  -39.7308   -8.2747 C   0  0  2  0  0  0  0  0  0  0  0  0
  -16.3866  -38.8005   -7.2747 O   0  0  0  0  0  0  0  0  0  0  0  0
  -17.8440  -40.5478   -7.8185 C   0  0  2  0  0  0  0  0  0  0  0  0
  -18.7485  -39.5808   -7.0463 C   0  0  0  0  0  0  0  0  0  0  0  0
  -19.4005  -38.5743   -7.9080 C   0  0  2  0  0  0  0  0  0  0  0  0
  -19.1002  -37.1579   -7.3991 C   0  0  0  0  0  0  0  0  0  0  0  0
  -20.9137  -38.6819   -7.9489 C   0  0  0  0  0  0  0  0  0  0  0  0
  -21.5561  -38.3472   -6.6394 C   0  0  0  0  0  0  0  0  0  0  0  0
  -22.4319  -39.4693   -6.1242 C   0  0  0  0  0  0  0  0  0  0  0  0
  -23.6912  -39.6347   -6.9188 C   0  0  0  0  0  0  0  0  0  0  0  0
  -24.3782  -40.9021   -6.4932 C   0  0  0  0  0  0  0  0  0  0  0  0
  -24.3191  -41.9850   -7.5483 C   0  0  0  0  0  0  0  0  0  0  0  0
  -22.9031  -42.5119   -7.6391 C   0  0  0  0  0  0  0  0  0  0  0  0
  -22.8119  -43.8116   -8.3884 C   0  0  0  0  0  0  0  0  0  0  0  0
  -21.1816  -44.4631   -8.1993 S   0  0  0  0  0  6  0  0  0  0  0  0
  -20.8970  -45.3683   -9.3589 O   0  0  0  0  0  0  0  0  0  0  0  0
  -21.0993  -45.2932   -6.9283 O   0  0  0  0  0  0  0  0  0  0  0  0
  -19.9634  -43.1496   -8.1320 C   0  0  0  0  0  0  0  0  0  0  0  0
  -18.6595  -43.6555   -7.5809 C   0  0  1  0  0  0  0  0  0  0  0  0
  -17.6392  -43.9201   -8.6959 C   0  0  0  0  0  0  0  0  0  0  0  0
  -18.0828  -42.7394   -6.5480 C   0  0  0  0  0  0  0  0  0  0  0  0
  -18.2256  -43.0882   -5.3433 O   0  0  0  0  0  0  0  0  0  0  0  0
  -17.4050  -41.5357   -6.8546 N   0  0  0  0  0  0  0  0  0  0  0  0
  1  2  1  0
  2  3  1  0
  3  4  1  0
  4  5  1  0
  5  6  1  0
  6  7  2  0
  6  8  1  0
  8  9  1  6
  8 10  1  0
 10 11  1  0
 11 12  1  1
 11 13  1  0
 13 14  1  1
 14 15  1  0
 15 16  1  1
 15 17  1  0
 17 18  1  0
 18 19  1  0
 19 20  1  0
 20 21  1  0
 21 22  1  0
 22 23  1  0
 23 24  1  0
 24 25  1  0
 25 26  2  0
 25 27  2  0
 25 28  1  0
 28 29  1  0
 29 30  1  6
 29 31  1  0
 31 32  2  0
 31 33  1  0
 33 13  1  0
M  END
$$$$
