
     RDKit          3D

 33 33  0  0  0  0  0  0  0  0999 V2000
  -13.2374  -35.4206  -14.1325 C   0  0  0  0  0  0  0  0  0  0  0  0
  -13.2786  -35.4262  -12.6239 C   0  0  0  0  0  0  0  0  0  0  0  0
  -12.4892  -36.6150  -12.1372 C   0  0  0  0  0  0  0  0  0  0  0  0
  -13.4137  -37.7744  -11.9293 C   0  0  0  0  0  0  0  0  0  0  0  0
  -13.5604  -38.0295  -10.5276 N   0  0  0  0  0  0  0  0  0  0  0  0
  -14.1829  -39.2677  -10.1557 C   0  0  0  0  0  0  0  0  0  0  0  0
  -14.5370  -40.1326  -10.9931 O   0  0  0  0  0  0  0  0  0  0  0  0
  -14.3998  -39.4973   -8.7037 C   0  0  2  0  0  0  0  0  0  0  0  0
  -13.0862  -39.9087   -8.1094 C   0  0  0  0  0  0  0  0  0  0  0  0
  -15.4686  -40.5629   -8.5685 C   0  0  0  0  0  0  0  0  0  0  0  0
  -16.7429  -39.9038   -8.1400 C   0  0  2  0  0  0  0  0  0  0  0  0
  -16.4677  -38.9624   -7.1500 O   0  0  0  0  0  0  0  0  0  0  0  0
  -17.7583  -40.8656   -7.5802 C   0  0  2  0  0  0  0  0  0  0  0  0
  -18.7071  -40.0201   -6.7231 C   0  0  0  0  0  0  0  0  0  0  0  0
  -19.5629  -39.1149   -7.5161 C   0  0  2  0  0  0  0  0  0  0  0  0
  -19.4061  -37.6674   -7.0308 C   0  0  0  0  0  0  0  0  0  0  0  0
  -21.0459  -39.4210   -7.4172 C   0  0  0  0  0  0  0  0  0  0  0  0
  -21.6031  -39.1637   -6.0523 C   0  0  0  0  0  0  0  0  0  0  0  0
  -22.2719  -40.3874   -5.4634 C   0  0  0  0  0  0  0  0  0  0  0  0
  -23.5665  -40.7232   -6.1386 C   0  0  0  0  0  0  0  0  0  0  0  0
  -24.0382  -42.0667   -5.6570 C   0  0  0  0  0  0  0  0  0  0  0  0
  -23.9347  -43.1405   -6.7180 C   0  0  0  0  0  0  0  0  0  0  0  0
  -22.4761  -43.4771   -6.9420 C   0  0  0  0  0  0  0  0  0  0  0  0
  -22.2840  -44.7592   -7.7024 C   0  0  0  0  0  0  0  0  0  0  0  0
  -20.5716  -45.1890   -7.6680 S   0  0  0  0  0  6  0  0  0  0  0  0
  -20.2786  -46.0577   -8.8531 O   0  0  0  0  0  0  0  0  0  0  0  0
  -20.2636  -45.9912   -6.4140 O   0  0  0  0  0  0  0  0  0  0  0  0
  -19.5362  -43.7261   -7.7078 C   0  0  0  0  0  0  0  0  0  0  0  0
  -18.1317  -44.0516   -7.2822 C   0  0  1  0  0  0  0  0  0  0  0  0
  -17.1928  -44.1882   -8.4881 C   0  0  0  0  0  0  0  0  0  0  0  0
  -17.5878  -43.0596   -6.3030 C   0  0  0  0  0  0  0  0  0  0  0  0
  -17.5715  -43.4149   -5.0918 O   0  0  0  0  0  0  0  0  0  0  0  0
  -17.1058  -41.7796   -6.6655 N   0  0  0  0  0  0  0  0  0  0  0  0
  1  2  1  0
  2  3  1  0
  3  4  1  0
  4  5  1  0
  5  6  1  0
  6  7  2  0
  6  8  1  0
  8  9  1  6
  8 10  1  0
 10 11  1  0
 11 12  1  1
 11 13  1  0
 13 14  1  1
 14 15  1  0
 15 16  1  1
 15 17  1  0
 17 18  1  0
 18 19  1  0
 19 20  1  0
 20 21  1  0
 21 22  1  0
 22 23  1  0
 23 24  1  0
 24 25  1  0
 25 26  2  0
 25 27  2  0
 25 28  1  0
 28 29  1  0
 29 30  1  6
 29 31  1  0
 31 32  2  0
 31 33  1  0
 33 13  1  0
M  END
$$$$
