
     RDKit          3D

 33 33  0  0  0  0  0  0  0  0999 V2000
  -12.4956  -37.0276  -14.9714 C   0  0  0  0  0  0  0  0  0  0  0  0
  -11.9248  -36.6637  -13.6225 C   0  0  0  0  0  0  0  0  0  0  0  0
  -13.0139  -36.8264  -12.5926 C   0  0  0  0  0  0  0  0  0  0  0  0
  -13.1703  -38.2778  -12.2593 C   0  0  0  0  0  0  0  0  0  0  0  0
  -14.5535  -38.5758  -12.0374 N   0  0  0  0  0  0  0  0  0  0  0  0
  -14.8580  -39.4811  -10.9666 C   0  0  0  0  0  0  0  0  0  0  0  0
  -15.3766  -40.6087  -11.1522 O   0  0  0  0  0  0  0  0  0  0  0  0
  -14.5288  -39.0249   -9.5913 C   0  0  2  0  0  0  0  0  0  0  0  0
  -13.0502  -39.1866   -9.4027 C   0  0  0  0  0  0  0  0  0  0  0  0
  -15.3422  -39.8657   -8.6284 C   0  0  0  0  0  0  0  0  0  0  0  0
  -16.7689  -39.4164   -8.6960 C   0  0  2  0  0  0  0  0  0  0  0  0
  -16.8707  -38.1201   -8.1944 O   0  0  0  0  0  0  0  0  0  0  0  0
  -17.7105  -40.2840   -7.9022 C   0  0  2  0  0  0  0  0  0  0  0  0
  -18.4884  -39.3301   -6.9886 C   0  0  0  0  0  0  0  0  0  0  0  0
  -19.4321  -38.4597   -7.7183 C   0  0  2  0  0  0  0  0  0  0  0  0
  -19.1599  -36.9843   -7.3949 C   0  0  0  0  0  0  0  0  0  0  0  0
  -20.8892  -38.6937   -7.3648 C   0  0  0  0  0  0  0  0  0  0  0  0
  -21.2173  -38.2991   -5.9592 C   0  0  0  0  0  0  0  0  0  0  0  0
  -21.8198  -39.4395   -5.1666 C   0  0  0  0  0  0  0  0  0  0  0  0
  -23.2135  -39.7762   -5.6014 C   0  0  0  0  0  0  0  0  0  0  0  0
  -23.6415  -41.0534   -4.9341 C   0  0  0  0  0  0  0  0  0  0  0  0
  -23.7367  -42.2161   -5.8976 C   0  0  0  0  0  0  0  0  0  0  0  0
  -22.3416  -42.6315   -6.3126 C   0  0  0  0  0  0  0  0  0  0  0  0
  -22.3080  -43.9800   -6.9753 C   0  0  0  0  0  0  0  0  0  0  0  0
  -20.6244  -44.4771   -7.1668 S   0  0  0  0  0  6  0  0  0  0  0  0
  -20.5462  -45.4542   -8.3000 O   0  0  0  0  0  0  0  0  0  0  0  0
  -20.1460  -45.1830   -5.9082 O   0  0  0  0  0  0  0  0  0  0  0  0
  -19.5670  -43.0677   -7.4969 C   0  0  0  0  0  0  0  0  0  0  0  0
  -18.1228  -43.4150   -7.2653 C   0  0  1  0  0  0  0  0  0  0  0  0
  -17.3895  -43.6921   -8.5843 C   0  0  0  0  0  0  0  0  0  0  0  0
  -17.4038  -42.3678   -6.4747 C   0  0  0  0  0  0  0  0  0  0  0  0
  -17.2074  -42.6201   -5.2536 O   0  0  0  0  0  0  0  0  0  0  0  0
  -16.9486  -41.1443   -7.0207 N   0  0  0  0  0  0  0  0  0  0  0  0
  1  2  1  0
  2  3  1  0
  3  4  1  0
  4  5  1  0
  5  6  1  0
  6  7  2  0
  6  8  1  0
  8  9  1  1
  8 10  1  0
 10 11  1  0
 11 12  1  1
 11 13  1  0
 13 14  1  1
 14 15  1  0
 15 16  1  1
 15 17  1  0
 17 18  1  0
 18 19  1  0
 19 20  1  0
 20 21  1  0
 21 22  1  0
 22 23  1  0
 23 24  1  0
 24 25  1  0
 25 26  2  0
 25 27  2  0
 25 28  1  0
 28 29  1  0
 29 30  1  6
 29 31  1  0
 31 32  2  0
 31 33  1  0
 33 13  1  0
M  END
$$$$
