
     RDKit          3D

 33 33  0  0  0  0  0  0  0  0999 V2000
  -11.2678  -36.3125  -13.8569 C   0  0  0  0  0  0  0  0  0  0  0  0
  -12.4954  -35.6999  -13.2281 C   0  0  0  0  0  0  0  0  0  0  0  0
  -12.6287  -36.2466  -11.8293 C   0  0  0  0  0  0  0  0  0  0  0  0
  -13.8660  -37.0851  -11.7390 C   0  0  0  0  0  0  0  0  0  0  0  0
  -14.0320  -37.5578  -10.3972 N   0  0  0  0  0  0  0  0  0  0  0  0
  -14.2982  -38.9580  -10.2314 C   0  0  0  0  0  0  0  0  0  0  0  0
  -14.5454  -39.7248  -11.1935 O   0  0  0  0  0  0  0  0  0  0  0  0
  -14.2702  -39.4840   -8.8419 C   0  0  2  0  0  0  0  0  0  0  0  0
  -12.8908  -40.0131   -8.5861 C   0  0  0  0  0  0  0  0  0  0  0  0
  -15.3404  -40.5518   -8.7403 C   0  0  0  0  0  0  0  0  0  0  0  0
  -16.6500  -39.8842   -8.4555 C   0  0  2  0  0  0  0  0  0  0  0  0
  -16.4588  -38.8690   -7.5201 O   0  0  0  0  0  0  0  0  0  0  0  0
  -17.6933  -40.8191   -7.9017 C   0  0  2  0  0  0  0  0  0  0  0  0
  -18.6095  -39.9538   -7.0290 C   0  0  0  0  0  0  0  0  0  0  0  0
  -19.4393  -39.0114   -7.8061 C   0  0  2  0  0  0  0  0  0  0  0  0
  -19.2327  -37.5758   -7.3040 C   0  0  0  0  0  0  0  0  0  0  0  0
  -20.9310  -39.2700   -7.7025 C   0  0  0  0  0  0  0  0  0  0  0  0
  -21.4722  -39.0116   -6.3315 C   0  0  0  0  0  0  0  0  0  0  0  0
  -22.1777  -40.2199   -5.7537 C   0  0  0  0  0  0  0  0  0  0  0  0
  -23.4862  -40.5049   -6.4257 C   0  0  0  0  0  0  0  0  0  0  0  0
  -23.9990  -41.8382   -5.9578 C   0  0  0  0  0  0  0  0  0  0  0  0
  -23.9363  -42.9015   -7.0325 C   0  0  0  0  0  0  0  0  0  0  0  0
  -22.4907  -43.2828   -7.2688 C   0  0  0  0  0  0  0  0  0  0  0  0
  -22.3447  -44.5610   -8.0458 C   0  0  0  0  0  0  0  0  0  0  0  0
  -20.6471  -45.0469   -8.0264 S   0  0  0  0  0  6  0  0  0  0  0  0
  -20.3890  -45.9100   -9.2237 O   0  0  0  0  0  0  0  0  0  0  0  0
  -20.3589  -45.8742   -6.7840 O   0  0  0  0  0  0  0  0  0  0  0  0
  -19.5646  -43.6182   -8.0542 C   0  0  0  0  0  0  0  0  0  0  0  0
  -18.1693  -43.9947   -7.6405 C   0  0  1  0  0  0  0  0  0  0  0  0
  -17.2418  -44.1470   -8.8533 C   0  0  0  0  0  0  0  0  0  0  0  0
  -17.5881  -43.0332   -6.6523 C   0  0  0  0  0  0  0  0  0  0  0  0
  -17.5770  -43.4039   -5.4458 O   0  0  0  0  0  0  0  0  0  0  0  0
  -17.0664  -41.7652   -7.0020 N   0  0  0  0  0  0  0  0  0  0  0  0
  1  2  1  0
  2  3  1  0
  3  4  1  0
  4  5  1  0
  5  6  1  0
  6  7  2  0
  6  8  1  0
  8  9  1  6
  8 10  1  0
 10 11  1  0
 11 12  1  1
 11 13  1  0
 13 14  1  1
 14 15  1  0
 15 16  1  1
 15 17  1  0
 17 18  1  0
 18 19  1  0
 19 20  1  0
 20 21  1  0
 21 22  1  0
 22 23  1  0
 23 24  1  0
 24 25  1  0
 25 26  2  0
 25 27  2  0
 25 28  1  0
 28 29  1  0
 29 30  1  6
 29 31  1  0
 31 32  2  0
 31 33  1  0
 33 13  1  0
M  END
$$$$
