
     RDKit          3D

 33 33  0  0  0  0  0  0  0  0999 V2000
  -13.5776  -40.9217  -15.6815 C   0  0  0  0  0  0  0  0  0  0  0  0
  -13.8935  -39.5162  -15.2317 C   0  0  0  0  0  0  0  0  0  0  0  0
  -14.0894  -39.5346  -13.7369 C   0  0  0  0  0  0  0  0  0  0  0  0
  -12.7561  -39.4585  -13.0596 C   0  0  0  0  0  0  0  0  0  0  0  0
  -12.8476  -38.6130  -11.9072 N   0  0  0  0  0  0  0  0  0  0  0  0
  -13.0685  -39.2589  -10.6451 C   0  0  0  0  0  0  0  0  0  0  0  0
  -12.7036  -40.4358  -10.4072 O   0  0  0  0  0  0  0  0  0  0  0  0
  -13.7639  -38.4640   -9.5998 C   0  0  2  0  0  0  0  0  0  0  0  0
  -12.7289  -37.6388   -8.8957 C   0  0  0  0  0  0  0  0  0  0  0  0
  -14.4657  -39.4418   -8.6794 C   0  0  0  0  0  0  0  0  0  0  0  0
  -15.8610  -38.9524   -8.4437 C   0  0  2  0  0  0  0  0  0  0  0  0
  -15.8868  -38.1600   -7.2977 O   0  0  0  0  0  0  0  0  0  0  0  0
  -16.8622  -40.0612   -8.2498 C   0  0  2  0  0  0  0  0  0  0  0  0
  -18.0991  -39.4038   -7.6273 C   0  0  0  0  0  0  0  0  0  0  0  0
  -18.8204  -38.5135   -8.5588 C   0  0  2  0  0  0  0  0  0  0  0  0
  -18.9752  -37.1132   -7.9501 C   0  0  0  0  0  0  0  0  0  0  0  0
  -20.2282  -38.9736   -8.8892 C   0  0  0  0  0  0  0  0  0  0  0  0
  -21.1517  -38.9103   -7.7135 C   0  0  0  0  0  0  0  0  0  0  0  0
  -21.7969  -40.2468   -7.4153 C   0  0  0  0  0  0  0  0  0  0  0  0
  -22.8172  -40.6405   -8.4394 C   0  0  0  0  0  0  0  0  0  0  0  0
  -23.2307  -42.0655   -8.1988 C   0  0  0  0  0  0  0  0  0  0  0  0
  -22.7212  -43.0126   -9.2632 C   0  0  0  0  0  0  0  0  0  0  0  0
  -21.2252  -43.1787   -9.1040 C   0  0  0  0  0  0  0  0  0  0  0  0
  -20.6846  -44.3532   -9.8702 C   0  0  0  0  0  0  0  0  0  0  0  0
  -19.0021  -44.6122   -9.4004 S   0  0  0  0  0  6  0  0  0  0  0  0
  -18.3038  -45.3250  -10.5180 O   0  0  0  0  0  0  0  0  0  0  0  0
  -18.9389  -45.5008   -8.1685 O   0  0  0  0  0  0  0  0  0  0  0  0
  -18.1799  -43.0571   -9.0550 C   0  0  0  0  0  0  0  0  0  0  0  0
  -16.9078  -43.2823   -8.2864 C   0  0  1  0  0  0  0  0  0  0  0  0
  -15.6755  -43.2042   -9.1972 C   0  0  0  0  0  0  0  0  0  0  0  0
  -16.7662  -42.3438   -7.1297 C   0  0  0  0  0  0  0  0  0  0  0  0
  -17.0255  -42.8147   -5.9876 O   0  0  0  0  0  0  0  0  0  0  0  0
  -16.3664  -40.9925   -7.2576 N   0  0  0  0  0  0  0  0  0  0  0  0
  1  2  1  0
  2  3  1  0
  3  4  1  0
  4  5  1  0
  5  6  1  0
  6  7  2  0
  6  8  1  0
  8  9  1  1
  8 10  1  0
 10 11  1  0
 11 12  1  1
 11 13  1  0
 13 14  1  1
 14 15  1  0
 15 16  1  1
 15 17  1  0
 17 18  1  0
 18 19  1  0
 19 20  1  0
 20 21  1  0
 21 22  1  0
 22 23  1  0
 23 24  1  0
 24 25  1  0
 25 26  2  0
 25 27  2  0
 25 28  1  0
 28 29  1  0
 29 30  1  6
 29 31  1  0
 31 32  2  0
 31 33  1  0
 33 13  1  0
M  END
$$$$
