
     RDKit          3D

 33 33  0  0  0  0  0  0  0  0999 V2000
  -12.8191  -37.4412  -14.9571 C   0  0  0  0  0  0  0  0  0  0  0  0
  -13.0407  -37.6506  -13.4791 C   0  0  0  0  0  0  0  0  0  0  0  0
  -13.7301  -36.4273  -12.9299 C   0  0  0  0  0  0  0  0  0  0  0  0
  -13.8641  -36.5570  -11.4442 C   0  0  0  0  0  0  0  0  0  0  0  0
  -15.1063  -37.1949  -11.1255 N   0  0  0  0  0  0  0  0  0  0  0  0
  -15.0505  -38.5864  -10.7798 C   0  0  0  0  0  0  0  0  0  0  0  0
  -15.5311  -39.4902  -11.5056 O   0  0  0  0  0  0  0  0  0  0  0  0
  -14.3851  -38.9304   -9.4964 C   0  0  2  0  0  0  0  0  0  0  0  0
  -12.9919  -39.3828   -9.8161 C   0  0  0  0  0  0  0  0  0  0  0  0
  -15.2170  -40.0070   -8.8294 C   0  0  0  0  0  0  0  0  0  0  0  0
  -16.4177  -39.3618   -8.2096 C   0  0  2  0  0  0  0  0  0  0  0  0
  -16.0211  -38.6075   -7.1069 O   0  0  0  0  0  0  0  0  0  0  0  0
  -17.4521  -40.3485   -7.7346 C   0  0  2  0  0  0  0  0  0  0  0  0
  -18.4594  -39.5356   -6.9133 C   0  0  0  0  0  0  0  0  0  0  0  0
  -19.2784  -38.6193   -7.7318 C   0  0  2  0  0  0  0  0  0  0  0  0
  -19.1677  -37.1833   -7.2016 C   0  0  0  0  0  0  0  0  0  0  0  0
  -20.7609  -38.9435   -7.7274 C   0  0  0  0  0  0  0  0  0  0  0  0
  -21.3995  -38.7277   -6.3914 C   0  0  0  0  0  0  0  0  0  0  0  0
  -22.0867  -39.9732   -5.8736 C   0  0  0  0  0  0  0  0  0  0  0  0
  -23.3357  -40.3051   -6.6317 C   0  0  0  0  0  0  0  0  0  0  0  0
  -23.8182  -41.6656   -6.2125 C   0  0  0  0  0  0  0  0  0  0  0  0
  -23.6402  -42.7103   -7.2925 C   0  0  0  0  0  0  0  0  0  0  0  0
  -22.1672  -43.0255   -7.4393 C   0  0  0  0  0  0  0  0  0  0  0  0
  -21.9157  -44.2853   -8.2194 C   0  0  0  0  0  0  0  0  0  0  0  0
  -20.2031  -44.6977   -8.0960 S   0  0  0  0  0  6  0  0  0  0  0  0
  -19.8313  -45.5322   -9.2836 O   0  0  0  0  0  0  0  0  0  0  0  0
  -19.9589  -45.5289   -6.8468 O   0  0  0  0  0  0  0  0  0  0  0  0
  -19.1849  -43.2234   -8.0382 C   0  0  0  0  0  0  0  0  0  0  0  0
  -17.8037  -43.5450   -7.5396 C   0  0  1  0  0  0  0  0  0  0  0  0
  -16.7948  -43.6403   -8.6917 C   0  0  0  0  0  0  0  0  0  0  0  0
  -17.3297  -42.5730   -6.5055 C   0  0  0  0  0  0  0  0  0  0  0  0
  -17.3795  -42.9595   -5.3049 O   0  0  0  0  0  0  0  0  0  0  0  0
  -16.8430  -41.2790   -6.8068 N   0  0  0  0  0  0  0  0  0  0  0  0
  1  2  1  0
  2  3  1  0
  3  4  1  0
  4  5  1  0
  5  6  1  0
  6  7  2  0
  6  8  1  0
  8  9  1  6
  8 10  1  0
 10 11  1  0
 11 12  1  1
 11 13  1  0
 13 14  1  1
 14 15  1  0
 15 16  1  1
 15 17  1  0
 17 18  1  0
 18 19  1  0
 19 20  1  0
 20 21  1  0
 21 22  1  0
 22 23  1  0
 23 24  1  0
 24 25  1  0
 25 26  2  0
 25 27  2  0
 25 28  1  0
 28 29  1  0
 29 30  1  6
 29 31  1  0
 31 32  2  0
 31 33  1  0
 33 13  1  0
M  END
$$$$
