
     RDKit          3D

 33 33  0  0  0  0  0  0  0  0999 V2000
  -13.5418  -34.1843  -12.4957 C   0  0  0  0  0  0  0  0  0  0  0  0
  -12.9633  -34.6854  -11.1950 C   0  0  0  0  0  0  0  0  0  0  0  0
  -12.3380  -36.0338  -11.4480 C   0  0  0  0  0  0  0  0  0  0  0  0
  -13.4141  -37.0706  -11.5450 C   0  0  0  0  0  0  0  0  0  0  0  0
  -13.3705  -37.9208  -10.3932 N   0  0  0  0  0  0  0  0  0  0  0  0
  -14.2914  -39.0208  -10.3642 C   0  0  0  0  0  0  0  0  0  0  0  0
  -15.0304  -39.3185  -11.3337 O   0  0  0  0  0  0  0  0  0  0  0  0
  -14.3414  -39.8180   -9.1113 C   0  0  2  0  0  0  0  0  0  0  0  0
  -13.0818  -40.6280   -9.0398 C   0  0  0  0  0  0  0  0  0  0  0  0
  -15.5909  -40.6733   -9.1683 C   0  0  0  0  0  0  0  0  0  0  0  0
  -16.7215  -39.9009   -8.5624 C   0  0  2  0  0  0  0  0  0  0  0  0
  -16.2253  -39.0481   -7.5783 O   0  0  0  0  0  0  0  0  0  0  0  0
  -17.7686  -40.7727   -7.9198 C   0  0  2  0  0  0  0  0  0  0  0  0
  -18.7067  -39.8179   -7.1726 C   0  0  0  0  0  0  0  0  0  0  0  0
  -19.5283  -38.9820   -8.0709 C   0  0  2  0  0  0  0  0  0  0  0  0
  -19.3408  -37.4952   -7.7396 C   0  0  0  0  0  0  0  0  0  0  0  0
  -21.0199  -39.2399   -7.9636 C   0  0  0  0  0  0  0  0  0  0  0  0
  -21.5882  -38.8252   -6.6429 C   0  0  0  0  0  0  0  0  0  0  0  0
  -22.2962  -39.9625   -5.9379 C   0  0  0  0  0  0  0  0  0  0  0  0
  -23.5899  -40.3370   -6.5942 C   0  0  0  0  0  0  0  0  0  0  0  0
  -24.1023  -41.6097   -5.9801 C   0  0  0  0  0  0  0  0  0  0  0  0
  -24.0124  -42.7927   -6.9193 C   0  0  0  0  0  0  0  0  0  0  0  0
  -22.5601  -43.1864   -7.0829 C   0  0  0  0  0  0  0  0  0  0  0  0
  -22.3911  -44.5465   -7.6997 C   0  0  0  0  0  0  0  0  0  0  0  0
  -20.6909  -45.0115   -7.5926 S   0  0  0  0  0  6  0  0  0  0  0  0
  -20.4047  -46.0084   -8.6739 O   0  0  0  0  0  0  0  0  0  0  0  0
  -20.4203  -45.6826   -6.2556 O   0  0  0  0  0  0  0  0  0  0  0  0
  -19.6177  -43.5867   -7.7711 C   0  0  0  0  0  0  0  0  0  0  0  0
  -18.2278  -43.8988   -7.2910 C   0  0  1  0  0  0  0  0  0  0  0  0
  -17.2769  -44.1859   -8.4604 C   0  0  0  0  0  0  0  0  0  0  0  0
  -17.6717  -42.8215   -6.4142 C   0  0  0  0  0  0  0  0  0  0  0  0
  -17.6805  -43.0460   -5.1720 O   0  0  0  0  0  0  0  0  0  0  0  0
  -17.1521  -41.5994   -6.9030 N   0  0  0  0  0  0  0  0  0  0  0  0
  1  2  1  0
  2  3  1  0
  3  4  1  0
  4  5  1  0
  5  6  1  0
  6  7  2  0
  6  8  1  0
  8  9  1  6
  8 10  1  0
 10 11  1  0
 11 12  1  1
 11 13  1  0
 13 14  1  1
 14 15  1  0
 15 16  1  1
 15 17  1  0
 17 18  1  0
 18 19  1  0
 19 20  1  0
 20 21  1  0
 21 22  1  0
 22 23  1  0
 23 24  1  0
 24 25  1  0
 25 26  2  0
 25 27  2  0
 25 28  1  0
 28 29  1  0
 29 30  1  6
 29 31  1  0
 31 32  2  0
 31 33  1  0
 33 13  1  0
M  END
$$$$
