
     RDKit          3D

 34 35  0  0  0  0  0  0  0  0999 V2000
  -13.1906  -40.7521  -15.1374 C   0  0  0  0  0  0  0  0  0  0  0  0
  -12.5165  -40.5824  -13.8075 C   0  0  0  0  0  0  0  0  0  0  0  0
  -13.4664  -40.0696  -12.7556 C   0  0  0  0  0  0  0  0  0  0  0  0
  -12.8471  -39.0423  -11.8534 C   0  0  0  0  0  0  0  0  0  0  0  0
  -13.8201  -38.5543  -10.9149 N   0  0  0  0  0  0  0  0  0  0  0  0
  -14.1119  -39.2677   -9.6944 C   0  0  0  0  0  0  0  0  0  0  0  0
  -14.2259  -40.4944   -9.8303 O   0  0  0  0  0  0  0  0  0  0  0  0
  -14.2310  -38.4583   -8.4855 C   0  0  2  0  0  0  0  0  0  0  0  0
  -12.8214  -38.3561   -7.8973 C   0  0  0  0  0  0  0  0  0  0  0  0
  -15.2023  -38.9298   -7.4425 C   0  0  0  0  0  0  0  0  0  0  0  0
  -16.6199  -38.8149   -7.7445 C   0  0  2  0  0  0  0  0  0  0  0  0
  -17.2986  -38.0235   -6.8336 O   0  0  0  0  0  0  0  0  0  0  0  0
  -17.3393  -40.1654   -7.9482 C   0  0  2  0  0  0  0  0  0  0  0  0
  -18.6387  -40.0966   -8.6131 C   0  0  0  0  0  0  0  0  0  0  0  0
  -19.8966  -39.8507   -7.8850 C   0  0  0  0  0  0  0  0  0  0  0  0
  -21.1938  -39.7942   -8.3230 C   0  0  0  0  0  0  0  0  0  0  0  0
  -22.1976  -39.5746   -7.3792 C   0  0  0  0  0  0  0  0  0  0  0  0
  -21.8674  -39.4127   -6.0274 C   0  0  0  0  0  0  0  0  0  0  0  0
  -20.5869  -39.4606   -5.5567 C   0  0  0  0  0  0  0  0  0  0  0  0
  -19.6264  -39.6814   -6.5079 C   0  0  0  0  0  0  0  0  0  0  0  0
  -23.5603  -39.4885   -7.5828 O   0  0  0  0  0  0  0  0  0  0  0  0
  -24.5676  -40.3168   -8.0521 C   0  0  0  0  0  0  0  0  0  0  0  0
  -24.0244  -41.4602   -8.8316 C   0  0  0  0  0  0  0  0  0  0  0  0
  -23.3081  -42.4946   -7.9891 C   0  0  0  0  0  0  0  0  0  0  0  0
  -22.5255  -43.4626   -8.7986 C   0  0  0  0  0  0  0  0  0  0  0  0
  -21.0259  -43.3652   -8.6657 C   0  0  0  0  0  0  0  0  0  0  0  0
  -20.5671  -43.3903   -7.2612 C   0  0  0  0  0  0  0  0  0  0  0  0
  -21.4615  -43.7452   -6.4084 O   0  0  0  0  0  0  0  0  0  0  0  0
  -19.2719  -43.0617   -6.8467 N   0  0  0  0  0  0  0  0  0  0  0  0
  -18.0135  -43.4878   -7.3801 C   0  0  1  0  0  0  0  0  0  0  0  0
  -17.9946  -43.9480   -8.7963 C   0  0  0  0  0  0  0  0  0  0  0  0
  -16.9136  -42.5485   -7.0265 C   0  0  0  0  0  0  0  0  0  0  0  0
  -15.8202  -43.1877   -6.6858 O   0  0  0  0  0  0  0  0  0  0  0  0
  -16.9445  -41.1554   -7.0250 N   0  0  0  0  0  0  0  0  0  0  0  0
  1  2  1  0
  2  3  1  0
  3  4  1  0
  4  5  1  0
  5  6  1  0
  6  7  2  0
  6  8  1  0
  8  9  1  1
  8 10  1  0
 10 11  1  0
 11 12  1  1
 11 13  1  0
 13 14  1  1
 14 15  1  0
 15 16  1  0
 16 17  2  0
 17 18  1  0
 18 19  2  0
 19 20  1  0
 17 21  1  0
 21 22  1  0
 22 23  1  0
 23 24  1  0
 24 25  1  0
 25 26  1  0
 26 27  1  0
 27 28  2  0
 27 29  1  0
 29 30  1  0
 30 31  1  6
 30 32  1  0
 32 33  2  0
 32 34  1  0
 20 15  2  0
 34 13  1  0
M  END
$$$$
