
     RDKit          3D

 34 35  0  0  0  0  0  0  0  0999 V2000
  -19.9604  -36.2694  -11.5882 C   0  0  0  0  0  0  0  0  0  0  0  0
  -18.7725  -37.1820  -11.6765 C   0  0  0  0  0  0  0  0  0  0  0  0
  -17.5318  -36.4506  -12.1210 C   0  0  0  0  0  0  0  0  0  0  0  0
  -16.3288  -37.3419  -12.2265 C   0  0  0  0  0  0  0  0  0  0  0  0
  -15.6215  -37.3716  -10.9757 N   0  0  0  0  0  0  0  0  0  0  0  0
  -15.5816  -38.5635  -10.1623 C   0  0  0  0  0  0  0  0  0  0  0  0
  -16.0718  -39.5682  -10.6975 O   0  0  0  0  0  0  0  0  0  0  0  0
  -14.9783  -38.4238   -8.8404 C   0  0  2  0  0  0  0  0  0  0  0  0
  -13.5208  -38.8689   -8.9851 C   0  0  0  0  0  0  0  0  0  0  0  0
  -15.6405  -39.1541   -7.7083 C   0  0  0  0  0  0  0  0  0  0  0  0
  -17.0919  -39.1075   -7.6371 C   0  0  2  0  0  0  0  0  0  0  0  0
  -17.5521  -38.5524   -6.4551 O   0  0  0  0  0  0  0  0  0  0  0  0
  -17.7873  -40.4557   -7.9228 C   0  0  2  0  0  0  0  0  0  0  0  0
  -19.1419  -40.3673   -8.4636 C   0  0  0  0  0  0  0  0  0  0  0  0
  -20.3370  -40.2469   -7.6091 C   0  0  0  0  0  0  0  0  0  0  0  0
  -21.6690  -40.1943   -7.9266 C   0  0  0  0  0  0  0  0  0  0  0  0
  -22.5912  -40.1130   -6.8829 C   0  0  0  0  0  0  0  0  0  0  0  0
  -22.1473  -40.0808   -5.5545 C   0  0  0  0  0  0  0  0  0  0  0  0
  -20.8293  -40.1289   -5.2022 C   0  0  0  0  0  0  0  0  0  0  0  0
  -19.9509  -40.2123   -6.2498 C   0  0  0  0  0  0  0  0  0  0  0  0
  -23.9684  -40.0580   -6.9594 O   0  0  0  0  0  0  0  0  0  0  0  0
  -24.9890  -40.8704   -7.4278 C   0  0  0  0  0  0  0  0  0  0  0  0
  -24.4843  -41.9046   -8.3689 C   0  0  0  0  0  0  0  0  0  0  0  0
  -23.6667  -42.9934   -7.7064 C   0  0  0  0  0  0  0  0  0  0  0  0
  -22.9313  -43.8408   -8.6788 C   0  0  0  0  0  0  0  0  0  0  0  0
  -21.4292  -43.7009   -8.6642 C   0  0  0  0  0  0  0  0  0  0  0  0
  -20.8473  -43.8552   -7.3146 C   0  0  0  0  0  0  0  0  0  0  0  0
  -21.6521  -44.3311   -6.4320 O   0  0  0  0  0  0  0  0  0  0  0  0
  -19.5305  -43.5227   -6.9787 N   0  0  0  0  0  0  0  0  0  0  0  0
  -18.3125  -43.8425   -7.6599 C   0  0  1  0  0  0  0  0  0  0  0  0
  -18.4058  -44.1510   -9.1138 C   0  0  0  0  0  0  0  0  0  0  0  0
  -17.2131  -42.9041   -7.3021 C   0  0  0  0  0  0  0  0  0  0  0  0
  -16.0759  -43.5334   -7.1263 O   0  0  0  0  0  0  0  0  0  0  0  0
  -17.2839  -41.5210   -7.1483 N   0  0  0  0  0  0  0  0  0  0  0  0
  1  2  1  0
  2  3  1  0
  3  4  1  0
  4  5  1  0
  5  6  1  0
  6  7  2  0
  6  8  1  0
  8  9  1  6
  8 10  1  0
 10 11  1  0
 11 12  1  1
 11 13  1  0
 13 14  1  1
 14 15  1  0
 15 16  1  0
 16 17  2  0
 17 18  1  0
 18 19  2  0
 19 20  1  0
 17 21  1  0
 21 22  1  0
 22 23  1  0
 23 24  1  0
 24 25  1  0
 25 26  1  0
 26 27  1  0
 27 28  2  0
 27 29  1  0
 29 30  1  0
 30 31  1  6
 30 32  1  0
 32 33  2  0
 32 34  1  0
 20 15  2  0
 34 13  1  0
M  END
$$$$
