
     RDKit          3D

 34 35  0  0  0  0  0  0  0  0999 V2000
  -15.8371  -35.4345  -13.8698 C   0  0  0  0  0  0  0  0  0  0  0  0
  -14.6949  -36.3576  -13.5615 C   0  0  0  0  0  0  0  0  0  0  0  0
  -14.2221  -36.2132  -12.1376 C   0  0  0  0  0  0  0  0  0  0  0  0
  -14.8171  -37.2349  -11.2131 C   0  0  0  0  0  0  0  0  0  0  0  0
  -13.7919  -38.1095  -10.7135 N   0  0  0  0  0  0  0  0  0  0  0  0
  -14.1096  -39.2339   -9.8658 C   0  0  0  0  0  0  0  0  0  0  0  0
  -14.7669  -40.1265  -10.4202 O   0  0  0  0  0  0  0  0  0  0  0  0
  -13.6204  -39.1661   -8.4922 C   0  0  2  0  0  0  0  0  0  0  0  0
  -12.3012  -39.9423   -8.4681 C   0  0  0  0  0  0  0  0  0  0  0  0
  -14.5413  -39.6623   -7.4154 C   0  0  0  0  0  0  0  0  0  0  0  0
  -15.9530  -39.3365   -7.5368 C   0  0  2  0  0  0  0  0  0  0  0  0
  -16.4658  -38.7454   -6.3946 O   0  0  0  0  0  0  0  0  0  0  0  0
  -16.8408  -40.5123   -7.9975 C   0  0  2  0  0  0  0  0  0  0  0  0
  -18.1011  -40.1412   -8.6373 C   0  0  0  0  0  0  0  0  0  0  0  0
  -19.3338  -39.8698   -7.8760 C   0  0  0  0  0  0  0  0  0  0  0  0
  -20.5997  -39.5542   -8.2955 C   0  0  0  0  0  0  0  0  0  0  0  0
  -21.5900  -39.3843   -7.3277 C   0  0  0  0  0  0  0  0  0  0  0  0
  -21.2774  -39.5303   -5.9698 C   0  0  0  0  0  0  0  0  0  0  0  0
  -20.0279  -39.8413   -5.5166 C   0  0  0  0  0  0  0  0  0  0  0  0
  -19.0804  -40.0052   -6.4921 C   0  0  0  0  0  0  0  0  0  0  0  0
  -22.9230  -39.0759   -7.5114 O   0  0  0  0  0  0  0  0  0  0  0  0
  -24.0191  -39.6540   -8.1323 C   0  0  0  0  0  0  0  0  0  0  0  0
  -23.6129  -40.6907   -9.1174 C   0  0  0  0  0  0  0  0  0  0  0  0
  -23.0642  -41.9548   -8.4900 C   0  0  0  0  0  0  0  0  0  0  0  0
  -22.3966  -42.8477   -9.4707 C   0  0  0  0  0  0  0  0  0  0  0  0
  -20.9015  -42.9829   -9.3208 C   0  0  0  0  0  0  0  0  0  0  0  0
  -20.4880  -43.3382   -7.9473 C   0  0  0  0  0  0  0  0  0  0  0  0
  -21.4443  -43.7243   -7.1794 O   0  0  0  0  0  0  0  0  0  0  0  0
  -19.1721  -43.2746   -7.4765 N   0  0  0  0  0  0  0  0  0  0  0  0
  -17.9680  -43.7585   -8.0815 C   0  0  1  0  0  0  0  0  0  0  0  0
  -17.9729  -43.9377   -9.5599 C   0  0  0  0  0  0  0  0  0  0  0  0
  -16.7623  -43.0629   -7.5528 C   0  0  0  0  0  0  0  0  0  0  0  0
  -15.7737  -43.8985   -7.3413 O   0  0  0  0  0  0  0  0  0  0  0  0
  -16.6067  -41.7048   -7.2825 N   0  0  0  0  0  0  0  0  0  0  0  0
  1  2  1  0
  2  3  1  0
  3  4  1  0
  4  5  1  0
  5  6  1  0
  6  7  2  0
  6  8  1  0
  8  9  1  6
  8 10  1  0
 10 11  1  0
 11 12  1  1
 11 13  1  0
 13 14  1  1
 14 15  1  0
 15 16  1  0
 16 17  2  0
 17 18  1  0
 18 19  2  0
 19 20  1  0
 17 21  1  0
 21 22  1  0
 22 23  1  0
 23 24  1  0
 24 25  1  0
 25 26  1  0
 26 27  1  0
 27 28  2  0
 27 29  1  0
 29 30  1  0
 30 31  1  6
 30 32  1  0
 32 33  2  0
 32 34  1  0
 20 15  2  0
 34 13  1  0
M  END
$$$$
