
     RDKit          3D

 34 35  0  0  0  0  0  0  0  0999 V2000
  -11.8419  -40.3303  -14.9405 C   0  0  0  0  0  0  0  0  0  0  0  0
  -11.5272  -40.2805  -13.4741 C   0  0  0  0  0  0  0  0  0  0  0  0
  -12.7441  -39.9527  -12.6473 C   0  0  0  0  0  0  0  0  0  0  0  0
  -13.3670  -38.6370  -13.0125 C   0  0  0  0  0  0  0  0  0  0  0  0
  -14.5087  -38.3794  -12.1782 N   0  0  0  0  0  0  0  0  0  0  0  0
  -14.3577  -37.9501  -10.8083 C   0  0  0  0  0  0  0  0  0  0  0  0
  -13.1846  -37.8983  -10.4117 O   0  0  0  0  0  0  0  0  0  0  0  0
  -15.5894  -37.6406  -10.0887 C   0  0  2  0  0  0  0  0  0  0  0  0
  -15.7621  -36.1216  -10.1677 C   0  0  0  0  0  0  0  0  0  0  0  0
  -15.6822  -38.1063   -8.6646 C   0  0  0  0  0  0  0  0  0  0  0  0
  -17.0018  -38.4353   -8.1505 C   0  0  2  0  0  0  0  0  0  0  0  0
  -17.1463  -38.1245   -6.8091 O   0  0  0  0  0  0  0  0  0  0  0  0
  -17.4532  -39.8839   -8.4345 C   0  0  2  0  0  0  0  0  0  0  0  0
  -18.7961  -40.0309   -8.9914 C   0  0  0  0  0  0  0  0  0  0  0  0
  -20.0047  -40.1122   -8.1515 C   0  0  0  0  0  0  0  0  0  0  0  0
  -21.3221  -40.2895   -8.4846 C   0  0  0  0  0  0  0  0  0  0  0  0
  -22.2576  -40.3616   -7.4521 C   0  0  0  0  0  0  0  0  0  0  0  0
  -21.8424  -40.2474   -6.1190 C   0  0  0  0  0  0  0  0  0  0  0  0
  -20.5400  -40.0678   -5.7513 C   0  0  0  0  0  0  0  0  0  0  0  0
  -19.6472  -40.0052   -6.7881 C   0  0  0  0  0  0  0  0  0  0  0  0
  -23.6229  -40.5432   -7.5448 O   0  0  0  0  0  0  0  0  0  0  0  0
  -24.4839  -41.5203   -8.0190 C   0  0  0  0  0  0  0  0  0  0  0  0
  -23.7982  -42.4579   -8.9469 C   0  0  0  0  0  0  0  0  0  0  0  0
  -22.8150  -43.3876   -8.2674 C   0  0  0  0  0  0  0  0  0  0  0  0
  -21.9336  -44.1019   -9.2252 C   0  0  0  0  0  0  0  0  0  0  0  0
  -20.4778  -43.7073   -9.1943 C   0  0  0  0  0  0  0  0  0  0  0  0
  -19.8950  -43.7531   -7.8371 C   0  0  0  0  0  0  0  0  0  0  0  0
  -20.6177  -44.3550   -6.9604 O   0  0  0  0  0  0  0  0  0  0  0  0
  -18.6587  -43.1988   -7.4886 N   0  0  0  0  0  0  0  0  0  0  0  0
  -17.3955  -43.3092   -8.1535 C   0  0  1  0  0  0  0  0  0  0  0  0
  -17.4166  -43.6365   -9.6061 C   0  0  0  0  0  0  0  0  0  0  0  0
  -16.4771  -42.1950   -7.7899 C   0  0  0  0  0  0  0  0  0  0  0  0
  -15.2514  -42.6198   -7.5965 O   0  0  0  0  0  0  0  0  0  0  0  0
  -16.7850  -40.8436   -7.6467 N   0  0  0  0  0  0  0  0  0  0  0  0
  1  2  1  0
  2  3  1  0
  3  4  1  0
  4  5  1  0
  5  6  1  0
  6  7  2  0
  6  8  1  0
  8  9  1  1
  8 10  1  0
 10 11  1  0
 11 12  1  1
 11 13  1  0
 13 14  1  1
 14 15  1  0
 15 16  1  0
 16 17  2  0
 17 18  1  0
 18 19  2  0
 19 20  1  0
 17 21  1  0
 21 22  1  0
 22 23  1  0
 23 24  1  0
 24 25  1  0
 25 26  1  0
 26 27  1  0
 27 28  2  0
 27 29  1  0
 29 30  1  0
 30 31  1  6
 30 32  1  0
 32 33  2  0
 32 34  1  0
 20 15  2  0
 34 13  1  0
M  END
$$$$
