
     RDKit          3D

 34 35  0  0  0  0  0  0  0  0999 V2000
  -13.2001  -35.4000  -14.9292 C   0  0  0  0  0  0  0  0  0  0  0  0
  -14.4050  -35.8382  -14.1493 C   0  0  0  0  0  0  0  0  0  0  0  0
  -14.0470  -36.2545  -12.7456 C   0  0  0  0  0  0  0  0  0  0  0  0
  -13.8340  -37.7336  -12.6064 C   0  0  0  0  0  0  0  0  0  0  0  0
  -13.4840  -38.0596  -11.2510 N   0  0  0  0  0  0  0  0  0  0  0  0
  -14.3273  -38.9038  -10.4386 C   0  0  0  0  0  0  0  0  0  0  0  0
  -15.2799  -39.4151  -11.0447 O   0  0  0  0  0  0  0  0  0  0  0  0
  -13.9480  -39.0372   -9.0354 C   0  0  2  0  0  0  0  0  0  0  0  0
  -12.8327  -40.0848   -8.9905 C   0  0  0  0  0  0  0  0  0  0  0  0
  -15.0381  -39.3889   -8.0651 C   0  0  0  0  0  0  0  0  0  0  0  0
  -16.4098  -39.1377   -8.4766 C   0  0  2  0  0  0  0  0  0  0  0  0
  -17.0078  -38.1204   -7.7526 O   0  0  0  0  0  0  0  0  0  0  0  0
  -17.3055  -40.3945   -8.5086 C   0  0  2  0  0  0  0  0  0  0  0  0
  -18.6323  -40.2116   -9.0928 C   0  0  0  0  0  0  0  0  0  0  0  0
  -19.7914  -39.7432   -8.3119 C   0  0  0  0  0  0  0  0  0  0  0  0
  -21.1006  -39.5537   -8.6697 C   0  0  0  0  0  0  0  0  0  0  0  0
  -21.9955  -39.1267   -7.6881 C   0  0  0  0  0  0  0  0  0  0  0  0
  -21.5471  -38.8975   -6.3808 C   0  0  0  0  0  0  0  0  0  0  0  0
  -20.2509  -39.0735   -5.9903 C   0  0  0  0  0  0  0  0  0  0  0  0
  -19.3996  -39.4967   -6.9763 C   0  0  0  0  0  0  0  0  0  0  0  0
  -23.3481  -38.8800   -7.8115 O   0  0  0  0  0  0  0  0  0  0  0  0
  -24.4834  -39.6053   -8.1374 C   0  0  0  0  0  0  0  0  0  0  0  0
  -24.1473  -40.8709   -8.8411 C   0  0  0  0  0  0  0  0  0  0  0  0
  -23.5047  -41.9165   -7.9542 C   0  0  0  0  0  0  0  0  0  0  0  0
  -22.9121  -43.0427   -8.7192 C   0  0  0  0  0  0  0  0  0  0  0  0
  -21.4063  -43.1320   -8.6917 C   0  0  0  0  0  0  0  0  0  0  0  0
  -20.8502  -43.1000   -7.3229 C   0  0  0  0  0  0  0  0  0  0  0  0
  -21.7154  -43.2624   -6.3858 O   0  0  0  0  0  0  0  0  0  0  0  0
  -19.4968  -42.9106   -7.0238 N   0  0  0  0  0  0  0  0  0  0  0  0
  -18.3450  -43.5409   -7.5948 C   0  0  1  0  0  0  0  0  0  0  0  0
  -18.4900  -44.1159   -8.9609 C   0  0  0  0  0  0  0  0  0  0  0  0
  -17.1129  -42.7277   -7.4002 C   0  0  0  0  0  0  0  0  0  0  0  0
  -16.0855  -43.4742   -7.0723 O   0  0  0  0  0  0  0  0  0  0  0  0
  -16.9693  -41.3474   -7.5251 N   0  0  0  0  0  0  0  0  0  0  0  0
  1  2  1  0
  2  3  1  0
  3  4  1  0
  4  5  1  0
  5  6  1  0
  6  7  2  0
  6  8  1  0
  8  9  1  6
  8 10  1  0
 10 11  1  0
 11 12  1  1
 11 13  1  0
 13 14  1  1
 14 15  1  0
 15 16  1  0
 16 17  2  0
 17 18  1  0
 18 19  2  0
 19 20  1  0
 17 21  1  0
 21 22  1  0
 22 23  1  0
 23 24  1  0
 24 25  1  0
 25 26  1  0
 26 27  1  0
 27 28  2  0
 27 29  1  0
 29 30  1  0
 30 31  1  6
 30 32  1  0
 32 33  2  0
 32 34  1  0
 20 15  2  0
 34 13  1  0
M  END
$$$$
