
     RDKit          3D

 34 35  0  0  0  0  0  0  0  0999 V2000
  -11.1449  -36.5575  -14.5208 C   0  0  0  0  0  0  0  0  0  0  0  0
  -11.4624  -36.8718  -13.0882 C   0  0  0  0  0  0  0  0  0  0  0  0
  -12.9406  -36.7860  -12.8067 C   0  0  0  0  0  0  0  0  0  0  0  0
  -13.6116  -38.1281  -12.7679 C   0  0  0  0  0  0  0  0  0  0  0  0
  -14.7040  -38.1105  -11.8341 N   0  0  0  0  0  0  0  0  0  0  0  0
  -14.6669  -38.8878  -10.6183 C   0  0  0  0  0  0  0  0  0  0  0  0
  -14.6517  -40.1148  -10.7925 O   0  0  0  0  0  0  0  0  0  0  0  0
  -14.6528  -38.1330   -9.3690 C   0  0  2  0  0  0  0  0  0  0  0  0
  -13.1950  -38.1028   -8.9027 C   0  0  0  0  0  0  0  0  0  0  0  0
  -15.5465  -38.6225   -8.2667 C   0  0  0  0  0  0  0  0  0  0  0  0
  -16.9783  -38.6348   -8.5189 C   0  0  2  0  0  0  0  0  0  0  0  0
  -17.6811  -37.8133   -7.6541 O   0  0  0  0  0  0  0  0  0  0  0  0
  -17.6036  -40.0452   -8.5730 C   0  0  2  0  0  0  0  0  0  0  0  0
  -19.0093  -40.0998   -8.9681 C   0  0  0  0  0  0  0  0  0  0  0  0
  -20.1160  -39.9471   -8.0064 C   0  0  0  0  0  0  0  0  0  0  0  0
  -21.4739  -40.0093   -8.1795 C   0  0  0  0  0  0  0  0  0  0  0  0
  -22.2877  -39.8571   -7.0565 C   0  0  0  0  0  0  0  0  0  0  0  0
  -21.7134  -39.6413   -5.7970 C   0  0  0  0  0  0  0  0  0  0  0  0
  -20.3661  -39.5713   -5.5886 C   0  0  0  0  0  0  0  0  0  0  0  0
  -19.5959  -39.7285   -6.7103 C   0  0  0  0  0  0  0  0  0  0  0  0
  -23.6660  -39.8908   -6.9869 O   0  0  0  0  0  0  0  0  0  0  0  0
  -24.6700  -40.8105   -7.2459 C   0  0  0  0  0  0  0  0  0  0  0  0
  -24.1934  -41.9189   -8.1144 C   0  0  0  0  0  0  0  0  0  0  0  0
  -23.2383  -42.8721   -7.4276 C   0  0  0  0  0  0  0  0  0  0  0  0
  -22.5491  -43.7860   -8.3733 C   0  0  0  0  0  0  0  0  0  0  0  0
  -21.0668  -43.5593   -8.5397 C   0  0  0  0  0  0  0  0  0  0  0  0
  -20.3403  -43.5178   -7.2535 C   0  0  0  0  0  0  0  0  0  0  0  0
  -21.0152  -43.9305   -6.2399 O   0  0  0  0  0  0  0  0  0  0  0  0
  -19.0225  -43.0726   -7.1040 N   0  0  0  0  0  0  0  0  0  0  0  0
  -17.8614  -43.4009   -7.8746 C   0  0  1  0  0  0  0  0  0  0  0  0
  -18.0814  -43.8855   -9.2654 C   0  0  0  0  0  0  0  0  0  0  0  0
  -16.7993  -42.3650   -7.7477 C   0  0  0  0  0  0  0  0  0  0  0  0
  -15.6089  -42.9025   -7.6283 O   0  0  0  0  0  0  0  0  0  0  0  0
  -16.9503  -40.9798   -7.7436 N   0  0  0  0  0  0  0  0  0  0  0  0
  1  2  1  0
  2  3  1  0
  3  4  1  0
  4  5  1  0
  5  6  1  0
  6  7  2  0
  6  8  1  0
  8  9  1  1
  8 10  1  0
 10 11  1  0
 11 12  1  1
 11 13  1  0
 13 14  1  1
 14 15  1  0
 15 16  1  0
 16 17  2  0
 17 18  1  0
 18 19  2  0
 19 20  1  0
 17 21  1  0
 21 22  1  0
 22 23  1  0
 23 24  1  0
 24 25  1  0
 25 26  1  0
 26 27  1  0
 27 28  2  0
 27 29  1  0
 29 30  1  0
 30 31  1  6
 30 32  1  0
 32 33  2  0
 32 34  1  0
 20 15  2  0
 34 13  1  0
M  END
$$$$
