
     RDKit          3D

 34 35  0  0  0  0  0  0  0  0999 V2000
  -12.3283  -35.7218  -14.9317 C   0  0  0  0  0  0  0  0  0  0  0  0
  -12.3993  -35.5986  -13.4379 C   0  0  0  0  0  0  0  0  0  0  0  0
  -13.7391  -36.0315  -12.8998 C   0  0  0  0  0  0  0  0  0  0  0  0
  -13.7193  -37.4122  -12.3117 C   0  0  0  0  0  0  0  0  0  0  0  0
  -14.7369  -37.5378  -11.3046 N   0  0  0  0  0  0  0  0  0  0  0  0
  -14.8342  -38.7160  -10.4763 C   0  0  0  0  0  0  0  0  0  0  0  0
  -15.2338  -39.7292  -11.0679 O   0  0  0  0  0  0  0  0  0  0  0  0
  -14.4543  -38.5547   -9.0762 C   0  0  2  0  0  0  0  0  0  0  0  0
  -13.0593  -39.1696   -8.9369 C   0  0  0  0  0  0  0  0  0  0  0  0
  -15.3854  -39.1269   -8.0470 C   0  0  0  0  0  0  0  0  0  0  0  0
  -16.8131  -39.0191   -8.2996 C   0  0  2  0  0  0  0  0  0  0  0  0
  -17.4494  -38.1621   -7.4178 O   0  0  0  0  0  0  0  0  0  0  0  0
  -17.5493  -40.3733   -8.3834 C   0  0  2  0  0  0  0  0  0  0  0  0
  -18.8884  -40.3310   -8.9667 C   0  0  0  0  0  0  0  0  0  0  0  0
  -20.0960  -40.0371   -8.1742 C   0  0  0  0  0  0  0  0  0  0  0  0
  -21.4185  -39.9948   -8.5310 C   0  0  0  0  0  0  0  0  0  0  0  0
  -22.3588  -39.7174   -7.5383 C   0  0  0  0  0  0  0  0  0  0  0  0
  -21.9419  -39.4853   -6.2211 C   0  0  0  0  0  0  0  0  0  0  0  0
  -20.6341  -39.5171   -5.8312 C   0  0  0  0  0  0  0  0  0  0  0  0
  -19.7374  -39.7958   -6.8285 C   0  0  0  0  0  0  0  0  0  0  0  0
  -23.7314  -39.6325   -7.6589 O   0  0  0  0  0  0  0  0  0  0  0  0
  -24.7699  -40.4775   -8.0174 C   0  0  0  0  0  0  0  0  0  0  0  0
  -24.2821  -41.6652   -8.7667 C   0  0  0  0  0  0  0  0  0  0  0  0
  -23.5172  -42.6579   -7.9168 C   0  0  0  0  0  0  0  0  0  0  0  0
  -22.7919  -43.6737   -8.7210 C   0  0  0  0  0  0  0  0  0  0  0  0
  -21.2864  -43.5802   -8.6895 C   0  0  0  0  0  0  0  0  0  0  0  0
  -20.7386  -43.5329   -7.3179 C   0  0  0  0  0  0  0  0  0  0  0  0
  -21.5778  -43.8349   -6.3918 O   0  0  0  0  0  0  0  0  0  0  0  0
  -19.4183  -43.1919   -7.0053 N   0  0  0  0  0  0  0  0  0  0  0  0
  -18.1982  -43.6553   -7.5941 C   0  0  1  0  0  0  0  0  0  0  0  0
  -18.2719  -44.1912   -8.9816 C   0  0  0  0  0  0  0  0  0  0  0  0
  -17.0744  -42.7063   -7.3629 C   0  0  0  0  0  0  0  0  0  0  0  0
  -15.9638  -43.3341   -7.0586 O   0  0  0  0  0  0  0  0  0  0  0  0
  -17.0998  -41.3149   -7.4350 N   0  0  0  0  0  0  0  0  0  0  0  0
  1  2  1  0
  2  3  1  0
  3  4  1  0
  4  5  1  0
  5  6  1  0
  6  7  2  0
  6  8  1  0
  8  9  1  6
  8 10  1  0
 10 11  1  0
 11 12  1  1
 11 13  1  0
 13 14  1  1
 14 15  1  0
 15 16  1  0
 16 17  2  0
 17 18  1  0
 18 19  2  0
 19 20  1  0
 17 21  1  0
 21 22  1  0
 22 23  1  0
 23 24  1  0
 24 25  1  0
 25 26  1  0
 26 27  1  0
 27 28  2  0
 27 29  1  0
 29 30  1  0
 30 31  1  6
 30 32  1  0
 32 33  2  0
 32 34  1  0
 20 15  2  0
 34 13  1  0
M  END
$$$$
