
     RDKit          3D

 34 35  0  0  0  0  0  0  0  0999 V2000
   -9.8235  -35.2921  -12.0920 C   0  0  0  0  0  0  0  0  0  0  0  0
  -11.3093  -35.3919  -12.2768 C   0  0  0  0  0  0  0  0  0  0  0  0
  -11.8346  -36.7522  -11.8951 C   0  0  0  0  0  0  0  0  0  0  0  0
  -12.6182  -36.7429  -10.6151 C   0  0  0  0  0  0  0  0  0  0  0  0
  -13.3247  -37.9844  -10.4563 N   0  0  0  0  0  0  0  0  0  0  0  0
  -14.5149  -38.2755  -11.2194 C   0  0  0  0  0  0  0  0  0  0  0  0
  -14.6518  -37.5877  -12.2414 O   0  0  0  0  0  0  0  0  0  0  0  0
  -15.3812  -39.3246  -10.6905 C   0  0  2  0  0  0  0  0  0  0  0  0
  -15.4029  -40.4346  -11.7444 C   0  0  0  0  0  0  0  0  0  0  0  0
  -16.7800  -38.9290  -10.3157 C   0  0  0  0  0  0  0  0  0  0  0  0
  -17.1844  -39.1224   -8.9326 C   0  0  2  0  0  0  0  0  0  0  0  0
  -16.1523  -38.8995   -8.0371 O   0  0  0  0  0  0  0  0  0  0  0  0
  -17.8762  -40.4740   -8.6542 C   0  0  2  0  0  0  0  0  0  0  0  0
  -19.3032  -40.5305   -8.9638 C   0  0  0  0  0  0  0  0  0  0  0  0
  -20.3451  -40.1145   -8.0076 C   0  0  0  0  0  0  0  0  0  0  0  0
  -21.7121  -40.1341   -8.1011 C   0  0  0  0  0  0  0  0  0  0  0  0
  -22.4528  -39.7011   -7.0009 C   0  0  0  0  0  0  0  0  0  0  0  0
  -21.7984  -39.2567   -5.8447 C   0  0  0  0  0  0  0  0  0  0  0  0
  -20.4397  -39.2213   -5.7179 C   0  0  0  0  0  0  0  0  0  0  0  0
  -19.7427  -39.6564   -6.8138 C   0  0  0  0  0  0  0  0  0  0  0  0
  -23.8250  -39.6403   -6.8628 O   0  0  0  0  0  0  0  0  0  0  0  0
  -24.8836  -40.5350   -6.8723 C   0  0  0  0  0  0  0  0  0  0  0  0
  -24.5088  -41.8277   -7.5037 C   0  0  0  0  0  0  0  0  0  0  0  0
  -23.5612  -42.6668   -6.6727 C   0  0  0  0  0  0  0  0  0  0  0  0
  -22.9698  -43.7982   -7.4309 C   0  0  0  0  0  0  0  0  0  0  0  0
  -21.4905  -43.6972   -7.7096 C   0  0  0  0  0  0  0  0  0  0  0  0
  -20.6909  -43.4258   -6.4969 C   0  0  0  0  0  0  0  0  0  0  0  0
  -21.3254  -43.5751   -5.3886 O   0  0  0  0  0  0  0  0  0  0  0  0
  -19.3476  -43.0353   -6.5067 N   0  0  0  0  0  0  0  0  0  0  0  0
  -18.2486  -43.5853   -7.2412 C   0  0  1  0  0  0  0  0  0  0  0  0
  -18.5695  -44.3401   -8.4841 C   0  0  0  0  0  0  0  0  0  0  0  0
  -17.1343  -42.6086   -7.3881 C   0  0  0  0  0  0  0  0  0  0  0  0
  -15.9651  -43.1758   -7.2107 O   0  0  0  0  0  0  0  0  0  0  0  0
  -17.2207  -41.2476   -7.6744 N   0  0  0  0  0  0  0  0  0  0  0  0
  1  2  1  0
  2  3  1  0
  3  4  1  0
  4  5  1  0
  5  6  1  0
  6  7  2  0
  6  8  1  0
  8  9  1  6
  8 10  1  0
 10 11  1  0
 11 12  1  1
 11 13  1  0
 13 14  1  1
 14 15  1  0
 15 16  1  0
 16 17  2  0
 17 18  1  0
 18 19  2  0
 19 20  1  0
 17 21  1  0
 21 22  1  0
 22 23  1  0
 23 24  1  0
 24 25  1  0
 25 26  1  0
 26 27  1  0
 27 28  2  0
 27 29  1  0
 29 30  1  0
 30 31  1  6
 30 32  1  0
 32 33  2  0
 32 34  1  0
 20 15  2  0
 34 13  1  0
M  END
$$$$
