
     RDKit          3D

 34 35  0  0  0  0  0  0  0  0999 V2000
  -13.3123  -35.7983  -15.6918 C   0  0  0  0  0  0  0  0  0  0  0  0
  -12.6381  -35.7758  -14.3513 C   0  0  0  0  0  0  0  0  0  0  0  0
  -13.6253  -35.9201  -13.2215 C   0  0  0  0  0  0  0  0  0  0  0  0
  -14.0182  -37.3451  -12.9613 C   0  0  0  0  0  0  0  0  0  0  0  0
  -14.9679  -37.4098  -11.8846 N   0  0  0  0  0  0  0  0  0  0  0  0
  -14.7382  -38.2422  -10.7279 C   0  0  0  0  0  0  0  0  0  0  0  0
  -15.0431  -39.4335  -10.8827 O   0  0  0  0  0  0  0  0  0  0  0  0
  -14.1865  -37.5764   -9.5518 C   0  0  2  0  0  0  0  0  0  0  0  0
  -12.6858  -37.8786   -9.5526 C   0  0  0  0  0  0  0  0  0  0  0  0
  -14.7920  -37.9264   -8.2236 C   0  0  0  0  0  0  0  0  0  0  0  0
  -16.2381  -38.0628   -8.1600 C   0  0  2  0  0  0  0  0  0  0  0  0
  -16.7563  -37.6987   -6.9289 O   0  0  0  0  0  0  0  0  0  0  0  0
  -16.7673  -39.4458   -8.5960 C   0  0  2  0  0  0  0  0  0  0  0  0
  -18.0078  -39.4345   -9.3681 C   0  0  0  0  0  0  0  0  0  0  0  0
  -19.3406  -39.4300   -8.7385 C   0  0  0  0  0  0  0  0  0  0  0  0
  -20.5957  -39.4607   -9.2878 C   0  0  0  0  0  0  0  0  0  0  0  0
  -21.6912  -39.4826   -8.4242 C   0  0  0  0  0  0  0  0  0  0  0  0
  -21.4927  -39.4667   -7.0375 C   0  0  0  0  0  0  0  0  0  0  0  0
  -20.2579  -39.4337   -6.4564 C   0  0  0  0  0  0  0  0  0  0  0  0
  -19.2044  -39.4169   -7.3317 C   0  0  0  0  0  0  0  0  0  0  0  0
  -23.0334  -39.5228   -8.7445 O   0  0  0  0  0  0  0  0  0  0  0  0
  -23.8903  -40.3883   -9.4061 C   0  0  0  0  0  0  0  0  0  0  0  0
  -23.1499  -41.3496  -10.2650 C   0  0  0  0  0  0  0  0  0  0  0  0
  -22.3815  -42.4007   -9.4919 C   0  0  0  0  0  0  0  0  0  0  0  0
  -21.4235  -43.1583  -10.3361 C   0  0  0  0  0  0  0  0  0  0  0  0
  -19.9627  -42.9127  -10.0499 C   0  0  0  0  0  0  0  0  0  0  0  0
  -19.6183  -43.0737   -8.6219 C   0  0  0  0  0  0  0  0  0  0  0  0
  -20.5276  -43.6369   -7.9085 O   0  0  0  0  0  0  0  0  0  0  0  0
  -18.4108  -42.6608   -8.0486 N   0  0  0  0  0  0  0  0  0  0  0  0
  -17.0708  -42.8686   -8.5081 C   0  0  1  0  0  0  0  0  0  0  0  0
  -16.8821  -43.1306   -9.9618 C   0  0  0  0  0  0  0  0  0  0  0  0
  -16.1267  -41.8680   -7.9383 C   0  0  0  0  0  0  0  0  0  0  0  0
  -14.9938  -42.4209   -7.5763 O   0  0  0  0  0  0  0  0  0  0  0  0
  -16.3288  -40.4999   -7.7683 N   0  0  0  0  0  0  0  0  0  0  0  0
  1  2  1  0
  2  3  1  0
  3  4  1  0
  4  5  1  0
  5  6  1  0
  6  7  2  0
  6  8  1  0
  8  9  1  1
  8 10  1  0
 10 11  1  0
 11 12  1  1
 11 13  1  0
 13 14  1  1
 14 15  1  0
 15 16  1  0
 16 17  2  0
 17 18  1  0
 18 19  2  0
 19 20  1  0
 17 21  1  0
 21 22  1  0
 22 23  1  0
 23 24  1  0
 24 25  1  0
 25 26  1  0
 26 27  1  0
 27 28  2  0
 27 29  1  0
 29 30  1  0
 30 31  1  6
 30 32  1  0
 32 33  2  0
 32 34  1  0
 20 15  2  0
 34 13  1  0
M  END
$$$$
