
     RDKit          3D

 34 35  0  0  0  0  0  0  0  0999 V2000
  -12.7100  -43.3164  -14.4854 C   0  0  0  0  0  0  0  0  0  0  0  0
  -12.4755  -41.8791  -14.1231 C   0  0  0  0  0  0  0  0  0  0  0  0
  -13.1228  -41.5158  -12.8113 C   0  0  0  0  0  0  0  0  0  0  0  0
  -12.5217  -40.2961  -12.1760 C   0  0  0  0  0  0  0  0  0  0  0  0
  -13.5454  -39.5090  -11.5451 N   0  0  0  0  0  0  0  0  0  0  0  0
  -14.2586  -39.9916  -10.3866 C   0  0  0  0  0  0  0  0  0  0  0  0
  -14.8620  -41.0599  -10.5621 O   0  0  0  0  0  0  0  0  0  0  0  0
  -14.1726  -39.1671   -9.1850 C   0  0  2  0  0  0  0  0  0  0  0  0
  -12.7761  -39.4016   -8.6033 C   0  0  0  0  0  0  0  0  0  0  0  0
  -15.2223  -39.3828   -8.1338 C   0  0  0  0  0  0  0  0  0  0  0  0
  -16.6101  -39.1884   -8.5213 C   0  0  2  0  0  0  0  0  0  0  0  0
  -17.2016  -38.1173   -7.8734 O   0  0  0  0  0  0  0  0  0  0  0  0
  -17.4859  -40.4547   -8.4097 C   0  0  2  0  0  0  0  0  0  0  0  0
  -18.8626  -40.3157   -8.8795 C   0  0  0  0  0  0  0  0  0  0  0  0
  -19.9536  -39.8207   -8.0207 C   0  0  0  0  0  0  0  0  0  0  0  0
  -21.2924  -39.6636   -8.2672 C   0  0  0  0  0  0  0  0  0  0  0  0
  -22.1016  -39.1970   -7.2308 C   0  0  0  0  0  0  0  0  0  0  0  0
  -21.5408  -38.8972   -5.9825 C   0  0  0  0  0  0  0  0  0  0  0  0
  -20.2122  -39.0394   -5.7029 C   0  0  0  0  0  0  0  0  0  0  0  0
  -19.4469  -39.5028   -6.7400 C   0  0  0  0  0  0  0  0  0  0  0  0
  -23.4635  -38.9713   -7.2430 O   0  0  0  0  0  0  0  0  0  0  0  0
  -24.6123  -39.7241   -7.4283 C   0  0  0  0  0  0  0  0  0  0  0  0
  -24.3218  -41.0201   -8.0962 C   0  0  0  0  0  0  0  0  0  0  0  0
  -23.5861  -42.0126   -7.2207 C   0  0  0  0  0  0  0  0  0  0  0  0
  -23.0479  -43.1697   -7.9797 C   0  0  0  0  0  0  0  0  0  0  0  0
  -21.5445  -43.2414   -8.0845 C   0  0  0  0  0  0  0  0  0  0  0  0
  -20.8679  -43.1343   -6.7751 C   0  0  0  0  0  0  0  0  0  0  0  0
  -21.6427  -43.2583   -5.7565 O   0  0  0  0  0  0  0  0  0  0  0  0
  -19.4961  -42.9157   -6.6098 N   0  0  0  0  0  0  0  0  0  0  0  0
  -18.3910  -43.5617   -7.2510 C   0  0  1  0  0  0  0  0  0  0  0  0
  -18.6497  -44.2066   -8.5682 C   0  0  0  0  0  0  0  0  0  0  0  0
  -17.1589  -42.7266   -7.2094 C   0  0  0  0  0  0  0  0  0  0  0  0
  -16.0949  -43.4445   -6.9396 O   0  0  0  0  0  0  0  0  0  0  0  0
  -17.0481  -41.3529   -7.4149 N   0  0  0  0  0  0  0  0  0  0  0  0
  1  2  1  0
  2  3  1  0
  3  4  1  0
  4  5  1  0
  5  6  1  0
  6  7  2  0
  6  8  1  0
  8  9  1  1
  8 10  1  0
 10 11  1  0
 11 12  1  1
 11 13  1  0
 13 14  1  1
 14 15  1  0
 15 16  1  0
 16 17  2  0
 17 18  1  0
 18 19  2  0
 19 20  1  0
 17 21  1  0
 21 22  1  0
 22 23  1  0
 23 24  1  0
 24 25  1  0
 25 26  1  0
 26 27  1  0
 27 28  2  0
 27 29  1  0
 29 30  1  0
 30 31  1  6
 30 32  1  0
 32 33  2  0
 32 34  1  0
 20 15  2  0
 34 13  1  0
M  END
$$$$
