
     RDKit          3D

 34 35  0  0  0  0  0  0  0  0999 V2000
  -13.2191  -37.4698  -15.2520 C   0  0  0  0  0  0  0  0  0  0  0  0
  -12.9099  -37.4685  -13.7836 C   0  0  0  0  0  0  0  0  0  0  0  0
  -13.9512  -38.2130  -12.9877 C   0  0  0  0  0  0  0  0  0  0  0  0
  -14.4303  -37.4510  -11.7867 C   0  0  0  0  0  0  0  0  0  0  0  0
  -13.6222  -37.7693  -10.6416 N   0  0  0  0  0  0  0  0  0  0  0  0
  -13.9222  -38.9040   -9.8012 C   0  0  0  0  0  0  0  0  0  0  0  0
  -14.3590  -39.8924  -10.4081 O   0  0  0  0  0  0  0  0  0  0  0  0
  -13.6736  -38.7339   -8.3729 C   0  0  2  0  0  0  0  0  0  0  0  0
  -12.3918  -39.5122   -8.0651 C   0  0  0  0  0  0  0  0  0  0  0  0
  -14.7734  -39.1420   -7.4363 C   0  0  0  0  0  0  0  0  0  0  0  0
  -16.1403  -38.8562   -7.8410 C   0  0  2  0  0  0  0  0  0  0  0  0
  -16.8272  -38.0980   -6.9080 O   0  0  0  0  0  0  0  0  0  0  0  0
  -16.9565  -40.1004   -8.2518 C   0  0  2  0  0  0  0  0  0  0  0  0
  -18.1481  -39.8387   -9.0560 C   0  0  0  0  0  0  0  0  0  0  0  0
  -19.4581  -39.5169   -8.4618 C   0  0  0  0  0  0  0  0  0  0  0  0
  -20.6775  -39.2856   -9.0426 C   0  0  0  0  0  0  0  0  0  0  0  0
  -21.7667  -39.0346   -8.2076 C   0  0  0  0  0  0  0  0  0  0  0  0
  -21.5963  -39.0175   -6.8171 C   0  0  0  0  0  0  0  0  0  0  0  0
  -20.3967  -39.2409   -6.2052 C   0  0  0  0  0  0  0  0  0  0  0  0
  -19.3495  -39.4879   -7.0528 C   0  0  0  0  0  0  0  0  0  0  0  0
  -23.0776  -38.7856   -8.5616 O   0  0  0  0  0  0  0  0  0  0  0  0
  -24.0932  -39.4601   -9.2209 C   0  0  0  0  0  0  0  0  0  0  0  0
  -23.5697  -40.5899  -10.0330 C   0  0  0  0  0  0  0  0  0  0  0  0
  -23.0704  -41.7595   -9.2110 C   0  0  0  0  0  0  0  0  0  0  0  0
  -22.2897  -42.7388  -10.0084 C   0  0  0  0  0  0  0  0  0  0  0  0
  -20.8168  -42.8152   -9.6912 C   0  0  0  0  0  0  0  0  0  0  0  0
  -20.5445  -43.0015   -8.2508 C   0  0  0  0  0  0  0  0  0  0  0  0
  -21.5702  -43.3243   -7.5458 O   0  0  0  0  0  0  0  0  0  0  0  0
  -19.2865  -42.8490   -7.6579 N   0  0  0  0  0  0  0  0  0  0  0  0
  -18.0182  -43.3649   -8.0763 C   0  0  1  0  0  0  0  0  0  0  0  0
  -17.8648  -43.7102   -9.5167 C   0  0  0  0  0  0  0  0  0  0  0  0
  -16.8857  -42.5813   -7.5103 C   0  0  0  0  0  0  0  0  0  0  0  0
  -15.9119  -43.3601   -7.1035 O   0  0  0  0  0  0  0  0  0  0  0  0
  -16.7804  -41.1976   -7.3838 N   0  0  0  0  0  0  0  0  0  0  0  0
  1  2  1  0
  2  3  1  0
  3  4  1  0
  4  5  1  0
  5  6  1  0
  6  7  2  0
  6  8  1  0
  8  9  1  1
  8 10  1  0
 10 11  1  0
 11 12  1  1
 11 13  1  0
 13 14  1  1
 14 15  1  0
 15 16  1  0
 16 17  2  0
 17 18  1  0
 18 19  2  0
 19 20  1  0
 17 21  1  0
 21 22  1  0
 22 23  1  0
 23 24  1  0
 24 25  1  0
 25 26  1  0
 26 27  1  0
 27 28  2  0
 27 29  1  0
 29 30  1  0
 30 31  1  6
 30 32  1  0
 32 33  2  0
 32 34  1  0
 20 15  2  0
 34 13  1  0
M  END
$$$$
