
     RDKit          3D

 34 35  0  0  0  0  0  0  0  0999 V2000
  -17.4807  -35.6776  -13.2504 C   0  0  0  0  0  0  0  0  0  0  0  0
  -16.4709  -36.7877  -13.2580 C   0  0  0  0  0  0  0  0  0  0  0  0
  -16.4743  -37.5615  -11.9646 C   0  0  0  0  0  0  0  0  0  0  0  0
  -15.5126  -38.7139  -11.9654 C   0  0  0  0  0  0  0  0  0  0  0  0
  -14.5450  -38.5540  -10.9148 N   0  0  0  0  0  0  0  0  0  0  0  0
  -14.5887  -39.3658   -9.7220 C   0  0  0  0  0  0  0  0  0  0  0  0
  -14.9136  -40.5463   -9.9147 O   0  0  0  0  0  0  0  0  0  0  0  0
  -14.2493  -38.6948   -8.4708 C   0  0  2  0  0  0  0  0  0  0  0  0
  -12.7575  -38.9487   -8.2391 C   0  0  0  0  0  0  0  0  0  0  0  0
  -15.0421  -39.0779   -7.2550 C   0  0  0  0  0  0  0  0  0  0  0  0
  -16.4817  -38.8794   -7.3025 C   0  0  2  0  0  0  0  0  0  0  0  0
  -17.0099  -38.4989   -6.0805 O   0  0  0  0  0  0  0  0  0  0  0  0
  -17.2688  -40.0650   -7.9004 C   0  0  2  0  0  0  0  0  0  0  0  0
  -18.4698  -39.7117   -8.6543 C   0  0  0  0  0  0  0  0  0  0  0  0
  -19.7848  -39.5182   -8.0171 C   0  0  0  0  0  0  0  0  0  0  0  0
  -21.0119  -39.2302   -8.5549 C   0  0  0  0  0  0  0  0  0  0  0  0
  -22.1034  -39.1382   -7.6908 C   0  0  0  0  0  0  0  0  0  0  0  0
  -21.9279  -39.3319   -6.3144 C   0  0  0  0  0  0  0  0  0  0  0  0
  -20.7206  -39.6175   -5.7447 C   0  0  0  0  0  0  0  0  0  0  0  0
  -19.6712  -39.7046   -6.6206 C   0  0  0  0  0  0  0  0  0  0  0  0
  -23.4214  -38.8701   -8.0017 O   0  0  0  0  0  0  0  0  0  0  0  0
  -24.4230  -39.4595   -8.7570 C   0  0  0  0  0  0  0  0  0  0  0  0
  -23.8754  -40.4369   -9.7342 C   0  0  0  0  0  0  0  0  0  0  0  0
  -23.3444  -41.7067   -9.1030 C   0  0  0  0  0  0  0  0  0  0  0  0
  -22.5432  -42.5315  -10.0424 C   0  0  0  0  0  0  0  0  0  0  0  0
  -21.0676  -42.6195   -9.7412 C   0  0  0  0  0  0  0  0  0  0  0  0
  -20.7849  -43.0193   -8.3469 C   0  0  0  0  0  0  0  0  0  0  0  0
  -21.7995  -43.4725   -7.7001 O   0  0  0  0  0  0  0  0  0  0  0  0
  -19.5287  -42.9292   -7.7379 N   0  0  0  0  0  0  0  0  0  0  0  0
  -18.2498  -43.3427   -8.2313 C   0  0  1  0  0  0  0  0  0  0  0  0
  -18.0939  -43.4574   -9.7079 C   0  0  0  0  0  0  0  0  0  0  0  0
  -17.1345  -42.6281   -7.5513 C   0  0  0  0  0  0  0  0  0  0  0  0
  -16.1404  -43.4361   -7.2701 O   0  0  0  0  0  0  0  0  0  0  0  0
  -17.0625  -41.2784   -7.2125 N   0  0  0  0  0  0  0  0  0  0  0  0
  1  2  1  0
  2  3  1  0
  3  4  1  0
  4  5  1  0
  5  6  1  0
  6  7  2  0
  6  8  1  0
  8  9  1  1
  8 10  1  0
 10 11  1  0
 11 12  1  1
 11 13  1  0
 13 14  1  1
 14 15  1  0
 15 16  1  0
 16 17  2  0
 17 18  1  0
 18 19  2  0
 19 20  1  0
 17 21  1  0
 21 22  1  0
 22 23  1  0
 23 24  1  0
 24 25  1  0
 25 26  1  0
 26 27  1  0
 27 28  2  0
 27 29  1  0
 29 30  1  0
 30 31  1  6
 30 32  1  0
 32 33  2  0
 32 34  1  0
 20 15  2  0
 34 13  1  0
M  END
$$$$
