
     RDKit          3D

 34 35  0  0  0  0  0  0  0  0999 V2000
  -14.0774  -34.3848  -12.6969 C   0  0  0  0  0  0  0  0  0  0  0  0
  -13.8918  -35.3678  -13.8154 C   0  0  0  0  0  0  0  0  0  0  0  0
  -14.5674  -36.6839  -13.5269 C   0  0  0  0  0  0  0  0  0  0  0  0
  -13.9943  -37.3909  -12.3334 C   0  0  0  0  0  0  0  0  0  0  0  0
  -14.6121  -38.6788  -12.1751 N   0  0  0  0  0  0  0  0  0  0  0  0
  -15.0175  -39.1642  -10.8775 C   0  0  0  0  0  0  0  0  0  0  0  0
  -15.9179  -40.0155  -10.9050 O   0  0  0  0  0  0  0  0  0  0  0  0
  -14.3217  -38.5941   -9.7279 C   0  0  2  0  0  0  0  0  0  0  0  0
  -12.8755  -39.0888   -9.8134 C   0  0  0  0  0  0  0  0  0  0  0  0
  -14.8961  -38.8829   -8.3714 C   0  0  0  0  0  0  0  0  0  0  0  0
  -16.3202  -38.6584   -8.1838 C   0  0  2  0  0  0  0  0  0  0  0  0
  -16.6057  -37.9878   -7.0066 O   0  0  0  0  0  0  0  0  0  0  0  0
  -17.1888  -39.9270   -8.3225 C   0  0  2  0  0  0  0  0  0  0  0  0
  -18.5435  -39.7147   -8.8274 C   0  0  0  0  0  0  0  0  0  0  0  0
  -19.6775  -39.3688   -7.9514 C   0  0  0  0  0  0  0  0  0  0  0  0
  -21.0048  -39.1751   -8.2315 C   0  0  0  0  0  0  0  0  0  0  0  0
  -21.8652  -38.8860   -7.1720 C   0  0  0  0  0  0  0  0  0  0  0  0
  -21.3654  -38.7942   -5.8664 C   0  0  0  0  0  0  0  0  0  0  0  0
  -20.0499  -38.9786   -5.5517 C   0  0  0  0  0  0  0  0  0  0  0  0
  -19.2333  -39.2646   -6.6136 C   0  0  0  0  0  0  0  0  0  0  0  0
  -23.2270  -38.6631   -7.2111 O   0  0  0  0  0  0  0  0  0  0  0  0
  -24.3592  -39.3769   -7.5710 C   0  0  0  0  0  0  0  0  0  0  0  0
  -24.0265  -40.5454   -8.4277 C   0  0  0  0  0  0  0  0  0  0  0  0
  -23.3231  -41.6671   -7.6930 C   0  0  0  0  0  0  0  0  0  0  0  0
  -22.7399  -42.6832   -8.6051 C   0  0  0  0  0  0  0  0  0  0  0  0
  -21.2327  -42.7348   -8.6494 C   0  0  0  0  0  0  0  0  0  0  0  0
  -20.6183  -42.8430   -7.3098 C   0  0  0  0  0  0  0  0  0  0  0  0
  -21.4381  -43.1334   -6.3629 O   0  0  0  0  0  0  0  0  0  0  0  0
  -19.2576  -42.6526   -7.0466 N   0  0  0  0  0  0  0  0  0  0  0  0
  -18.1182  -43.1832   -7.7323 C   0  0  1  0  0  0  0  0  0  0  0  0
  -18.3100  -43.6036   -9.1480 C   0  0  0  0  0  0  0  0  0  0  0  0
  -16.8970  -42.3646   -7.4965 C   0  0  0  0  0  0  0  0  0  0  0  0
  -15.8402  -43.1156   -7.2982 O   0  0  0  0  0  0  0  0  0  0  0  0
  -16.7893  -40.9757   -7.4688 N   0  0  0  0  0  0  0  0  0  0  0  0
  1  2  1  0
  2  3  1  0
  3  4  1  0
  4  5  1  0
  5  6  1  0
  6  7  2  0
  6  8  1  0
  8  9  1  1
  8 10  1  0
 10 11  1  0
 11 12  1  1
 11 13  1  0
 13 14  1  1
 14 15  1  0
 15 16  1  0
 16 17  2  0
 17 18  1  0
 18 19  2  0
 19 20  1  0
 17 21  1  0
 21 22  1  0
 22 23  1  0
 23 24  1  0
 24 25  1  0
 25 26  1  0
 26 27  1  0
 27 28  2  0
 27 29  1  0
 29 30  1  0
 30 31  1  6
 30 32  1  0
 32 33  2  0
 32 34  1  0
 20 15  2  0
 34 13  1  0
M  END
$$$$
