
     RDKit          3D

 34 35  0  0  0  0  0  0  0  0999 V2000
  -17.6509  -37.8367  -14.9475 C   0  0  0  0  0  0  0  0  0  0  0  0
  -17.4750  -38.8635  -13.8674 C   0  0  0  0  0  0  0  0  0  0  0  0
  -16.5414  -38.3876  -12.7841 C   0  0  0  0  0  0  0  0  0  0  0  0
  -15.7614  -39.5010  -12.1480 C   0  0  0  0  0  0  0  0  0  0  0  0
  -14.7451  -38.9652  -11.2844 N   0  0  0  0  0  0  0  0  0  0  0  0
  -14.6113  -39.4062   -9.9164 C   0  0  0  0  0  0  0  0  0  0  0  0
  -14.5860  -40.6370   -9.7728 O   0  0  0  0  0  0  0  0  0  0  0  0
  -14.5256  -38.3573   -8.9048 C   0  0  2  0  0  0  0  0  0  0  0  0
  -13.0334  -38.1151   -8.6638 C   0  0  0  0  0  0  0  0  0  0  0  0
  -15.2341  -38.6047   -7.6047 C   0  0  0  0  0  0  0  0  0  0  0  0
  -16.6876  -38.5734   -7.6158 C   0  0  2  0  0  0  0  0  0  0  0  0
  -17.2235  -38.1727   -6.4037 O   0  0  0  0  0  0  0  0  0  0  0  0
  -17.3491  -39.8781   -8.1088 C   0  0  2  0  0  0  0  0  0  0  0  0
  -18.6928  -39.7357   -8.6651 C   0  0  0  0  0  0  0  0  0  0  0  0
  -19.9088  -39.7594   -7.8324 C   0  0  0  0  0  0  0  0  0  0  0  0
  -21.2342  -39.6840   -8.1724 C   0  0  0  0  0  0  0  0  0  0  0  0
  -22.1809  -39.7690   -7.1511 C   0  0  0  0  0  0  0  0  0  0  0  0
  -21.7677  -39.9204   -5.8211 C   0  0  0  0  0  0  0  0  0  0  0  0
  -20.4572  -39.9964   -5.4465 C   0  0  0  0  0  0  0  0  0  0  0  0
  -19.5540  -39.9138   -6.4729 C   0  0  0  0  0  0  0  0  0  0  0  0
  -23.5570  -39.7267   -7.2535 O   0  0  0  0  0  0  0  0  0  0  0  0
  -24.5502  -40.4804   -7.8587 C   0  0  0  0  0  0  0  0  0  0  0  0
  -24.0037  -41.3602   -8.9253 C   0  0  0  0  0  0  0  0  0  0  0  0
  -23.1793  -42.5189   -8.4052 C   0  0  0  0  0  0  0  0  0  0  0  0
  -22.4054  -43.2055   -9.4701 C   0  0  0  0  0  0  0  0  0  0  0  0
  -20.9071  -43.0440   -9.3980 C   0  0  0  0  0  0  0  0  0  0  0  0
  -20.3526  -43.3806   -8.0702 C   0  0  0  0  0  0  0  0  0  0  0  0
  -21.1672  -43.9918   -7.2853 O   0  0  0  0  0  0  0  0  0  0  0  0
  -19.0507  -43.0778   -7.6574 N   0  0  0  0  0  0  0  0  0  0  0  0
  -17.8115  -43.2759   -8.3466 C   0  0  1  0  0  0  0  0  0  0  0  0
  -17.8660  -43.3740   -9.8315 C   0  0  0  0  0  0  0  0  0  0  0  0
  -16.7396  -42.3803   -7.8308 C   0  0  0  0  0  0  0  0  0  0  0  0
  -15.5941  -43.0091   -7.7184 O   0  0  0  0  0  0  0  0  0  0  0  0
  -16.8417  -41.0350   -7.4824 N   0  0  0  0  0  0  0  0  0  0  0  0
  1  2  1  0
  2  3  1  0
  3  4  1  0
  4  5  1  0
  5  6  1  0
  6  7  2  0
  6  8  1  0
  8  9  1  1
  8 10  1  0
 10 11  1  0
 11 12  1  1
 11 13  1  0
 13 14  1  1
 14 15  1  0
 15 16  1  0
 16 17  2  0
 17 18  1  0
 18 19  2  0
 19 20  1  0
 17 21  1  0
 21 22  1  0
 22 23  1  0
 23 24  1  0
 24 25  1  0
 25 26  1  0
 26 27  1  0
 27 28  2  0
 27 29  1  0
 29 30  1  0
 30 31  1  6
 30 32  1  0
 32 33  2  0
 32 34  1  0
 20 15  2  0
 34 13  1  0
M  END
$$$$
