
     RDKit          3D

 42 45  0  0  0  0  0  0  0  0999 V2000
  -19.1188  -46.8326   -5.6690 C   0  0  0  0  0  0  0  0  0  0  0  0
  -19.5103  -45.5333   -6.2747 C   0  0  0  0  0  0  0  0  0  0  0  0
  -18.6321  -44.4809   -6.3801 C   0  0  0  0  0  0  0  0  0  0  0  0
  -18.9539  -43.2186   -6.9495 C   0  0  0  0  0  0  0  0  0  0  0  0
  -20.2083  -43.0421   -7.4210 C   0  0  0  0  0  0  0  0  0  0  0  0
  -21.1262  -44.1087   -7.3214 C   0  0  0  0  0  0  0  0  0  0  0  0
  -20.7150  -45.2792   -6.7563 N   0  0  0  0  0  0  0  0  0  0  0  0
  -22.4211  -44.1406   -7.7254 O   0  0  0  0  0  0  0  0  0  0  0  0
  -23.7262  -44.0807   -7.5183 C   0  0  0  0  0  0  0  0  0  0  0  0
  -24.0765  -43.5456   -6.0997 C   0  0  0  0  0  0  0  0  0  0  0  0
  -22.8928  -42.8196   -5.5786 C   0  0  0  0  0  0  0  0  0  0  0  0
  -23.2415  -41.6471   -4.6893 C   0  0  0  0  0  0  0  0  0  0  0  0
  -22.3646  -40.4575   -5.0765 C   0  0  0  0  0  0  0  0  0  0  0  0
  -20.9894  -40.4239   -5.1631 C   0  0  0  0  0  0  0  0  0  0  0  0
  -20.4149  -39.2875   -5.6963 C   0  0  0  0  0  0  0  0  0  0  0  0
  -18.9959  -38.9859   -6.0206 C   0  0  0  0  0  0  0  0  0  0  0  0
  -18.3895  -39.8437   -7.1217 C   0  0  2  0  0  0  0  0  0  0  0  0
  -17.6179  -40.9550   -6.6249 N   0  0  0  0  0  0  0  0  0  0  0  0
  -17.7863  -42.3286   -6.8811 C   0  0  0  0  0  0  0  0  0  0  0  0
  -16.5943  -42.8687   -7.0949 O   0  0  0  0  0  0  0  0  0  0  0  0
  -17.3845  -38.9277   -7.8467 C   0  0  2  0  0  0  0  0  0  0  0  0
  -17.9533  -38.6891   -9.0952 O   0  0  0  0  0  0  0  0  0  0  0  0
  -16.0409  -39.5662   -7.9390 C   0  0  0  0  0  0  0  0  0  0  0  0
  -15.1660  -39.0877   -8.9381 N   0  0  0  0  0  0  0  0  0  0  0  0
  -14.6950  -40.0322   -9.9171 C   0  0  0  0  0  0  0  0  0  0  0  0
  -15.8463  -40.8554  -10.4807 C   0  0  0  0  0  0  0  0  0  0  0  0
  -13.6220  -40.9564   -9.4584 C   0  0  0  0  0  0  0  0  0  0  0  0
  -14.1847  -39.2297  -11.0861 C   0  0  0  0  0  0  0  0  0  0  0  0
  -13.3996  -39.6440  -12.1176 C   0  0  0  0  0  0  0  0  0  0  0  0
  -13.1815  -38.5387  -12.9549 C   0  0  0  0  0  0  0  0  0  0  0  0
  -12.3809  -38.5420  -14.1960 C   0  0  0  0  0  0  0  0  0  0  0  0
  -10.9459  -38.1144  -13.9819 C   0  0  0  0  0  0  0  0  0  0  0  0
  -10.3150  -38.8924  -12.8542 C   0  0  0  0  0  0  0  0  0  0  0  0
  -10.9433  -36.6445  -13.6074 C   0  0  0  0  0  0  0  0  0  0  0  0
  -10.1341  -38.2683  -15.2546 C   0  0  0  0  0  0  0  0  0  0  0  0
  -13.8296  -37.5421  -12.3988 O   0  0  0  0  0  0  0  0  0  0  0  0
  -14.4206  -37.9072  -11.3167 N   0  0  0  0  0  0  0  0  0  0  0  0
  -21.2573  -38.2251   -6.1105 C   0  0  0  0  0  0  0  0  0  0  0  0
  -22.6194  -38.2375   -6.0251 C   0  0  0  0  0  0  0  0  0  0  0  0
  -23.6216  -36.9043   -6.5427 Cl  0  0  0  0  0  0  0  0  0  0  0  0
  -23.1556  -39.3859   -5.4961 C   0  0  0  0  0  0  0  0  0  0  0  0
  -24.5632  -39.4435   -5.3891 O   0  0  0  0  0  0  0  0  0  0  0  0
  1  2  1  0
  2  3  2  0
  3  4  1  0
  4  5  2  0
  5  6  1  0
  6  7  2  0
  6  8  1  0
  8  9  1  0
  9 10  1  0
 10 11  1  0
 11 12  1  0
 12 13  1  0
 13 14  1  0
 14 15  2  0
 15 16  1  0
 17 16  1  1
 17 18  1  0
 18 19  1  0
 19 20  2  0
 17 21  1  0
 21 22  1  6
 21 23  1  0
 23 24  1  0
 24 25  1  0
 25 26  1  0
 25 27  1  0
 25 28  1  0
 28 29  1  0
 29 30  2  0
 30 31  1  0
 31 32  1  0
 32 33  1  0
 32 34  1  0
 32 35  1  0
 30 36  1  0
 36 37  1  0
 15 38  1  0
 38 39  2  0
 39 40  1  0
 39 41  1  0
 41 42  1  0
  7  2  1  0
 19  4  1  0
 37 28  2  0
 41 13  2  0
M  END
$$$$
