
     RDKit          3D

 42 45  0  0  0  0  0  0  0  0999 V2000
  -18.6297  -46.7417  -10.6480 C   0  0  0  0  0  0  0  0  0  0  0  0
  -17.5775  -45.7393  -10.3375 C   0  0  0  0  0  0  0  0  0  0  0  0
  -17.8762  -44.5009   -9.8206 C   0  0  0  0  0  0  0  0  0  0  0  0
  -16.9104  -43.5062   -9.5062 C   0  0  0  0  0  0  0  0  0  0  0  0
  -15.6098  -43.7990   -9.7289 C   0  0  0  0  0  0  0  0  0  0  0  0
  -15.2810  -45.0637  -10.2605 C   0  0  0  0  0  0  0  0  0  0  0  0
  -16.2855  -45.9457  -10.5275 N   0  0  0  0  0  0  0  0  0  0  0  0
  -14.0514  -45.5534  -10.5589 O   0  0  0  0  0  0  0  0  0  0  0  0
  -13.0717  -45.8614  -11.3927 C   0  0  0  0  0  0  0  0  0  0  0  0
  -13.2764  -45.2365  -12.8031 C   0  0  0  0  0  0  0  0  0  0  0  0
  -14.2322  -44.1102  -12.6710 C   0  0  0  0  0  0  0  0  0  0  0  0
  -13.9674  -42.9721  -13.6311 C   0  0  0  0  0  0  0  0  0  0  0  0
  -14.0842  -41.6510  -12.8730 C   0  0  0  0  0  0  0  0  0  0  0  0
  -15.1456  -41.2144  -12.1096 C   0  0  0  0  0  0  0  0  0  0  0  0
  -14.9665  -40.0589  -11.3758 C   0  0  0  0  0  0  0  0  0  0  0  0
  -15.8582  -39.3959  -10.3885 C   0  0  0  0  0  0  0  0  0  0  0  0
  -16.1228  -40.1942   -9.1203 C   0  0  2  0  0  0  0  0  0  0  0  0
  -17.3665  -40.9220   -9.1486 N   0  0  0  0  0  0  0  0  0  0  0  0
  -17.5820  -42.3041   -8.9926 C   0  0  0  0  0  0  0  0  0  0  0  0
  -18.6324  -42.4823   -8.2032 O   0  0  0  0  0  0  0  0  0  0  0  0
  -16.2775  -39.1455   -8.0019 C   0  0  2  0  0  0  0  0  0  0  0  0
  -16.0727  -39.8507   -6.8186 O   0  0  0  0  0  0  0  0  0  0  0  0
  -17.6149  -38.4901   -8.0570 C   0  0  0  0  0  0  0  0  0  0  0  0
  -18.2090  -38.1306   -6.8280 N   0  0  0  0  0  0  0  0  0  0  0  0
  -19.6458  -38.0563   -6.7809 C   0  0  0  0  0  0  0  0  0  0  0  0
  -20.2374  -38.0135   -8.1840 C   0  0  0  0  0  0  0  0  0  0  0  0
  -20.2081  -36.9297   -5.9869 C   0  0  0  0  0  0  0  0  0  0  0  0
  -20.1302  -39.3582   -6.1964 C   0  0  0  0  0  0  0  0  0  0  0  0
  -21.4041  -39.7244   -5.8880 C   0  0  0  0  0  0  0  0  0  0  0  0
  -21.3559  -41.0248   -5.3619 C   0  0  0  0  0  0  0  0  0  0  0  0
  -22.5168  -41.8100   -4.8961 C   0  0  0  0  0  0  0  0  0  0  0  0
  -23.3004  -42.4436   -6.0240 C   0  0  0  0  0  0  0  0  0  0  0  0
  -22.6434  -42.1727   -7.3545 C   0  0  0  0  0  0  0  0  0  0  0  0
  -24.6852  -41.8250   -6.0411 C   0  0  0  0  0  0  0  0  0  0  0  0
  -23.4639  -43.9362   -5.8049 C   0  0  0  0  0  0  0  0  0  0  0  0
  -20.0886  -41.3656   -5.3803 O   0  0  0  0  0  0  0  0  0  0  0  0
  -19.3526  -40.4249   -5.8569 N   0  0  0  0  0  0  0  0  0  0  0  0
  -13.7213  -39.3853  -11.4537 C   0  0  0  0  0  0  0  0  0  0  0  0
  -12.6627  -39.7982  -12.2098 C   0  0  0  0  0  0  0  0  0  0  0  0
  -11.1458  -38.9358  -12.2819 Cl  0  0  0  0  0  0  0  0  0  0  0  0
  -12.8750  -40.9539  -12.9206 C   0  0  0  0  0  0  0  0  0  0  0  0
  -11.8053  -41.4196  -13.7175 O   0  0  0  0  0  0  0  0  0  0  0  0
  1  2  1  0
  2  3  2  0
  3  4  1  0
  4  5  2  0
  5  6  1  0
  6  7  2  0
  6  8  1  0
  8  9  1  0
  9 10  1  0
 10 11  1  0
 11 12  1  0
 12 13  1  0
 13 14  1  0
 14 15  2  0
 15 16  1  0
 17 16  1  6
 17 18  1  0
 18 19  1  0
 19 20  2  0
 17 21  1  0
 21 22  1  1
 21 23  1  0
 23 24  1  0
 24 25  1  0
 25 26  1  0
 25 27  1  0
 25 28  1  0
 28 29  1  0
 29 30  2  0
 30 31  1  0
 31 32  1  0
 32 33  1  0
 32 34  1  0
 32 35  1  0
 30 36  1  0
 36 37  1  0
 15 38  1  0
 38 39  2  0
 39 40  1  0
 39 41  1  0
 41 42  1  0
  7  2  1  0
 19  4  1  0
 37 28  2  0
 41 13  2  0
M  END
$$$$
