
     RDKit          3D

 42 45  0  0  0  0  0  0  0  0999 V2000
  -18.9200  -46.7222   -7.3355 C   0  0  0  0  0  0  0  0  0  0  0  0
  -19.1020  -45.2732   -7.6102 C   0  0  0  0  0  0  0  0  0  0  0  0
  -18.1716  -44.3342   -7.2326 C   0  0  0  0  0  0  0  0  0  0  0  0
  -18.2958  -42.9380   -7.4699 C   0  0  0  0  0  0  0  0  0  0  0  0
  -19.4031  -42.5048   -8.1124 C   0  0  0  0  0  0  0  0  0  0  0  0
  -20.3716  -43.4513   -8.5075 C   0  0  0  0  0  0  0  0  0  0  0  0
  -20.1549  -44.7684   -8.2302 N   0  0  0  0  0  0  0  0  0  0  0  0
  -21.5437  -43.2311   -9.1545 O   0  0  0  0  0  0  0  0  0  0  0  0
  -22.8576  -43.0859   -9.2046 C   0  0  0  0  0  0  0  0  0  0  0  0
  -23.4886  -42.9159   -7.7922 C   0  0  0  0  0  0  0  0  0  0  0  0
  -22.4166  -42.4910   -6.8596 C   0  0  0  0  0  0  0  0  0  0  0  0
  -22.8965  -41.5692   -5.7609 C   0  0  0  0  0  0  0  0  0  0  0  0
  -21.8978  -40.4233   -5.6083 C   0  0  0  0  0  0  0  0  0  0  0  0
  -20.5380  -40.5190   -5.4046 C   0  0  0  0  0  0  0  0  0  0  0  0
  -19.8037  -39.3515   -5.4646 C   0  0  0  0  0  0  0  0  0  0  0  0
  -18.3351  -39.1318   -5.3983 C   0  0  0  0  0  0  0  0  0  0  0  0
  -17.5415  -39.7239   -6.5540 C   0  0  2  0  0  0  0  0  0  0  0  0
  -16.9558  -41.0056   -6.2515 N   0  0  0  0  0  0  0  0  0  0  0  0
  -17.1304  -42.2330   -6.9178 C   0  0  0  0  0  0  0  0  0  0  0  0
  -15.9488  -42.8235   -7.0339 O   0  0  0  0  0  0  0  0  0  0  0  0
  -16.3562  -38.7633   -6.7705 C   0  0  2  0  0  0  0  0  0  0  0  0
  -16.9313  -37.4977   -6.8538 O   0  0  0  0  0  0  0  0  0  0  0  0
  -15.5833  -39.1256   -7.9923 C   0  0  0  0  0  0  0  0  0  0  0  0
  -14.9665  -40.3951   -8.0132 N   0  0  0  0  0  0  0  0  0  0  0  0
  -13.8120  -40.5593   -8.8573 C   0  0  0  0  0  0  0  0  0  0  0  0
  -13.7195  -41.9849   -9.3861 C   0  0  0  0  0  0  0  0  0  0  0  0
  -12.5070  -40.1873   -8.2454 C   0  0  0  0  0  0  0  0  0  0  0  0
  -14.0414  -39.7076  -10.0792 C   0  0  0  0  0  0  0  0  0  0  0  0
  -13.1813  -38.8394  -10.6782 C   0  0  0  0  0  0  0  0  0  0  0  0
  -13.8466  -38.2741  -11.7774 C   0  0  0  0  0  0  0  0  0  0  0  0
  -13.2802  -37.2775  -12.7086 C   0  0  0  0  0  0  0  0  0  0  0  0
  -13.8340  -37.3891  -14.1116 C   0  0  0  0  0  0  0  0  0  0  0  0
  -13.8304  -38.8230  -14.5793 C   0  0  0  0  0  0  0  0  0  0  0  0
  -12.9409  -36.5836  -15.0360 C   0  0  0  0  0  0  0  0  0  0  0  0
  -15.2320  -36.8050  -14.1955 C   0  0  0  0  0  0  0  0  0  0  0  0
  -15.0415  -38.8168  -11.7832 O   0  0  0  0  0  0  0  0  0  0  0  0
  -15.1873  -39.6503  -10.8148 N   0  0  0  0  0  0  0  0  0  0  0  0
  -20.4792  -38.1310   -5.7179 C   0  0  0  0  0  0  0  0  0  0  0  0
  -21.8249  -38.0161   -5.9140 C   0  0  0  0  0  0  0  0  0  0  0  0
  -22.6195  -36.4911   -6.2188 Cl  0  0  0  0  0  0  0  0  0  0  0  0
  -22.5215  -39.1981   -5.8537 C   0  0  0  0  0  0  0  0  0  0  0  0
  -23.9186  -39.1272   -6.0516 O   0  0  0  0  0  0  0  0  0  0  0  0
  1  2  1  0
  2  3  2  0
  3  4  1  0
  4  5  2  0
  5  6  1  0
  6  7  2  0
  6  8  1  0
  8  9  1  0
  9 10  1  0
 10 11  1  0
 11 12  1  0
 12 13  1  0
 13 14  1  0
 14 15  2  0
 15 16  1  0
 17 16  1  1
 17 18  1  0
 18 19  1  0
 19 20  2  0
 17 21  1  0
 21 22  1  6
 21 23  1  0
 23 24  1  0
 24 25  1  0
 25 26  1  0
 25 27  1  0
 25 28  1  0
 28 29  1  0
 29 30  2  0
 30 31  1  0
 31 32  1  0
 32 33  1  0
 32 34  1  0
 32 35  1  0
 30 36  1  0
 36 37  1  0
 15 38  1  0
 38 39  2  0
 39 40  1  0
 39 41  1  0
 41 42  1  0
  7  2  1  0
 19  4  1  0
 37 28  2  0
 41 13  2  0
M  END
$$$$
