
     RDKit          3D

 42 45  0  0  0  0  0  0  0  0999 V2000
  -19.0667  -46.4377   -8.4722 C   0  0  0  0  0  0  0  0  0  0  0  0
  -19.5678  -45.0388   -8.4594 C   0  0  0  0  0  0  0  0  0  0  0  0
  -18.7505  -43.9712   -8.1727 C   0  0  0  0  0  0  0  0  0  0  0  0
  -19.1776  -42.6154   -8.1465 C   0  0  0  0  0  0  0  0  0  0  0  0
  -20.4751  -42.3587   -8.4245 C   0  0  0  0  0  0  0  0  0  0  0  0
  -21.3318  -43.4398   -8.7200 C   0  0  0  0  0  0  0  0  0  0  0  0
  -20.8203  -44.7035   -8.7175 N   0  0  0  0  0  0  0  0  0  0  0  0
  -22.6544  -43.4033   -9.0207 O   0  0  0  0  0  0  0  0  0  0  0  0
  -23.9377  -43.5345   -8.7278 C   0  0  0  0  0  0  0  0  0  0  0  0
  -24.1858  -43.6566   -7.1964 C   0  0  0  0  0  0  0  0  0  0  0  0
  -22.9949  -43.1189   -6.4949 C   0  0  0  0  0  0  0  0  0  0  0  0
  -23.3166  -42.4446   -5.1800 C   0  0  0  0  0  0  0  0  0  0  0  0
  -22.5315  -41.1371   -5.0920 C   0  0  0  0  0  0  0  0  0  0  0  0
  -21.1721  -40.9648   -5.2411 C   0  0  0  0  0  0  0  0  0  0  0  0
  -20.6983  -39.6690   -5.2892 C   0  0  0  0  0  0  0  0  0  0  0  0
  -19.3283  -39.1523   -5.5456 C   0  0  0  0  0  0  0  0  0  0  0  0
  -18.7829  -39.4339   -6.9381 C   0  0  2  0  0  0  0  0  0  0  0  0
  -17.9214  -40.5879   -6.9952 N   0  0  0  0  0  0  0  0  0  0  0  0
  -18.0497  -41.7444   -7.7870 C   0  0  0  0  0  0  0  0  0  0  0  0
  -16.8579  -42.0555   -8.2781 O   0  0  0  0  0  0  0  0  0  0  0  0
  -17.8876  -38.2266   -7.2782 C   0  0  2  0  0  0  0  0  0  0  0  0
  -18.7366  -37.1242   -7.2229 O   0  0  0  0  0  0  0  0  0  0  0  0
  -17.2434  -38.3905   -8.6123 C   0  0  0  0  0  0  0  0  0  0  0  0
  -16.3817  -39.4956   -8.7817 N   0  0  0  0  0  0  0  0  0  0  0  0
  -15.7357  -39.6449  -10.0594 C   0  0  0  0  0  0  0  0  0  0  0  0
  -14.4239  -38.8716  -10.1026 C   0  0  0  0  0  0  0  0  0  0  0  0
  -16.5547  -39.2698  -11.2445 C   0  0  0  0  0  0  0  0  0  0  0  0
  -15.3352  -41.0929  -10.1783 C   0  0  0  0  0  0  0  0  0  0  0  0
  -16.1267  -42.1711  -10.4299 C   0  0  0  0  0  0  0  0  0  0  0  0
  -15.3039  -43.3083  -10.4383 C   0  0  0  0  0  0  0  0  0  0  0  0
  -15.7529  -44.6955  -10.6737 C   0  0  0  0  0  0  0  0  0  0  0  0
  -15.0119  -45.3796  -11.8009 C   0  0  0  0  0  0  0  0  0  0  0  0
  -14.1142  -44.4066  -12.5236 C   0  0  0  0  0  0  0  0  0  0  0  0
  -16.0369  -45.9061  -12.7872 C   0  0  0  0  0  0  0  0  0  0  0  0
  -14.2120  -46.5635  -11.2898 C   0  0  0  0  0  0  0  0  0  0  0  0
  -14.0914  -42.8677  -10.1976 O   0  0  0  0  0  0  0  0  0  0  0  0
  -14.0739  -41.5913  -10.0423 N   0  0  0  0  0  0  0  0  0  0  0  0
  -21.6209  -38.5987   -5.1732 C   0  0  0  0  0  0  0  0  0  0  0  0
  -22.9683  -38.7502   -5.0172 C   0  0  0  0  0  0  0  0  0  0  0  0
  -24.0710  -37.4037   -4.8729 Cl  0  0  0  0  0  0  0  0  0  0  0  0
  -23.4037  -40.0521   -4.9802 C   0  0  0  0  0  0  0  0  0  0  0  0
  -24.7925  -40.2571   -4.8206 O   0  0  0  0  0  0  0  0  0  0  0  0
  1  2  1  0
  2  3  2  0
  3  4  1  0
  4  5  2  0
  5  6  1  0
  6  7  2  0
  6  8  1  0
  8  9  1  0
  9 10  1  0
 10 11  1  0
 11 12  1  0
 12 13  1  0
 13 14  1  0
 14 15  2  0
 15 16  1  0
 17 16  1  1
 17 18  1  0
 18 19  1  0
 19 20  2  0
 17 21  1  0
 21 22  1  6
 21 23  1  0
 23 24  1  0
 24 25  1  0
 25 26  1  0
 25 27  1  0
 25 28  1  0
 28 29  1  0
 29 30  2  0
 30 31  1  0
 31 32  1  0
 32 33  1  0
 32 34  1  0
 32 35  1  0
 30 36  1  0
 36 37  1  0
 15 38  1  0
 38 39  2  0
 39 40  1  0
 39 41  1  0
 41 42  1  0
  7  2  1  0
 19  4  1  0
 37 28  2  0
 41 13  2  0
M  END
$$$$
