
     RDKit          3D

 42 45  0  0  0  0  0  0  0  0999 V2000
  -19.9599  -47.0131   -8.1078 C   0  0  0  0  0  0  0  0  0  0  0  0
  -19.8145  -45.5550   -8.3549 C   0  0  0  0  0  0  0  0  0  0  0  0
  -18.8123  -44.8114   -7.7782 C   0  0  0  0  0  0  0  0  0  0  0  0
  -18.6279  -43.4162   -7.9800 C   0  0  0  0  0  0  0  0  0  0  0  0
  -19.4960  -42.7781   -8.7962 C   0  0  0  0  0  0  0  0  0  0  0  0
  -20.5332  -43.5219   -9.3972 C   0  0  0  0  0  0  0  0  0  0  0  0
  -20.6210  -44.8571   -9.1361 N   0  0  0  0  0  0  0  0  0  0  0  0
  -21.5026  -43.0807  -10.2377 O   0  0  0  0  0  0  0  0  0  0  0  0
  -22.7338  -42.6881  -10.5204 C   0  0  0  0  0  0  0  0  0  0  0  0
  -23.5735  -42.4060   -9.2409 C   0  0  0  0  0  0  0  0  0  0  0  0
  -22.6337  -42.1959   -8.1130 C   0  0  0  0  0  0  0  0  0  0  0  0
  -23.1294  -41.2033   -7.0853 C   0  0  0  0  0  0  0  0  0  0  0  0
  -21.9808  -40.2687   -6.7094 C   0  0  0  0  0  0  0  0  0  0  0  0
  -20.7247  -40.6220   -6.2655 C   0  0  0  0  0  0  0  0  0  0  0  0
  -19.7878  -39.6152   -6.1457 C   0  0  0  0  0  0  0  0  0  0  0  0
  -18.3424  -39.6790   -5.8048 C   0  0  0  0  0  0  0  0  0  0  0  0
  -17.4720  -40.4073   -6.8187 C   0  0  2  0  0  0  0  0  0  0  0  0
  -17.2019  -41.7780   -6.4644 N   0  0  0  0  0  0  0  0  0  0  0  0
  -17.4750  -42.9476   -7.1983 C   0  0  0  0  0  0  0  0  0  0  0  0
  -16.4234  -43.7516   -7.1201 O   0  0  0  0  0  0  0  0  0  0  0  0
  -16.1093  -39.6889   -6.7786 C   0  0  2  0  0  0  0  0  0  0  0  0
  -16.2678  -38.5743   -7.5983 O   0  0  0  0  0  0  0  0  0  0  0  0
  -15.0113  -40.5874   -7.2351 C   0  0  0  0  0  0  0  0  0  0  0  0
  -13.9991  -40.0149   -8.0352 N   0  0  0  0  0  0  0  0  0  0  0  0
  -13.7929  -40.5728   -9.3461 C   0  0  0  0  0  0  0  0  0  0  0  0
  -14.7797  -41.7001   -9.6220 C   0  0  0  0  0  0  0  0  0  0  0  0
  -12.4151  -41.0587   -9.6314 C   0  0  0  0  0  0  0  0  0  0  0  0
  -14.1487  -39.4959  -10.3385 C   0  0  0  0  0  0  0  0  0  0  0  0
  -15.1086  -39.5186  -11.3029 C   0  0  0  0  0  0  0  0  0  0  0  0
  -15.0568  -38.2911  -11.9818 C   0  0  0  0  0  0  0  0  0  0  0  0
  -15.9262  -37.8905  -13.1064 C   0  0  0  0  0  0  0  0  0  0  0  0
  -16.4480  -36.4762  -12.9832 C   0  0  0  0  0  0  0  0  0  0  0  0
  -15.3902  -35.5592  -12.4219 C   0  0  0  0  0  0  0  0  0  0  0  0
  -17.6244  -36.4899  -12.0259 C   0  0  0  0  0  0  0  0  0  0  0  0
  -16.9462  -35.9591  -14.3200 C   0  0  0  0  0  0  0  0  0  0  0  0
  -14.0935  -37.6106  -11.4062 O   0  0  0  0  0  0  0  0  0  0  0  0
  -13.5475  -38.2779  -10.4522 N   0  0  0  0  0  0  0  0  0  0  0  0
  -20.1650  -38.2877   -6.4703 C   0  0  0  0  0  0  0  0  0  0  0  0
  -21.4055  -37.9183   -6.9034 C   0  0  0  0  0  0  0  0  0  0  0  0
  -21.8313  -36.2690   -7.2886 Cl  0  0  0  0  0  0  0  0  0  0  0  0
  -22.3088  -38.9464   -7.0166 C   0  0  0  0  0  0  0  0  0  0  0  0
  -23.6066  -38.6105   -7.4626 O   0  0  0  0  0  0  0  0  0  0  0  0
  1  2  1  0
  2  3  2  0
  3  4  1  0
  4  5  2  0
  5  6  1  0
  6  7  2  0
  6  8  1  0
  8  9  1  0
  9 10  1  0
 10 11  1  0
 11 12  1  0
 12 13  1  0
 13 14  1  0
 14 15  2  0
 15 16  1  0
 17 16  1  1
 17 18  1  0
 18 19  1  0
 19 20  2  0
 17 21  1  0
 21 22  1  6
 21 23  1  0
 23 24  1  0
 24 25  1  0
 25 26  1  0
 25 27  1  0
 25 28  1  0
 28 29  1  0
 29 30  2  0
 30 31  1  0
 31 32  1  0
 32 33  1  0
 32 34  1  0
 32 35  1  0
 30 36  1  0
 36 37  1  0
 15 38  1  0
 38 39  2  0
 39 40  1  0
 39 41  1  0
 41 42  1  0
  7  2  1  0
 19  4  1  0
 37 28  2  0
 41 13  2  0
M  END
$$$$
