
     RDKit          3D

 42 45  0  0  0  0  0  0  0  0999 V2000
  -23.2641  -44.6357   -9.3950 C   0  0  0  0  0  0  0  0  0  0  0  0
  -21.8906  -44.4788   -8.8500 C   0  0  0  0  0  0  0  0  0  0  0  0
  -21.2707  -43.2544   -8.7695 C   0  0  0  0  0  0  0  0  0  0  0  0
  -19.9603  -43.0483   -8.2579 C   0  0  0  0  0  0  0  0  0  0  0  0
  -19.2787  -44.1298   -7.8189 C   0  0  0  0  0  0  0  0  0  0  0  0
  -19.8955  -45.3963   -7.8939 C   0  0  0  0  0  0  0  0  0  0  0  0
  -21.1571  -45.4838   -8.4030 N   0  0  0  0  0  0  0  0  0  0  0  0
  -19.3917  -46.5976   -7.5148 O   0  0  0  0  0  0  0  0  0  0  0  0
  -18.8270  -47.7706   -7.7500 C   0  0  0  0  0  0  0  0  0  0  0  0
  -18.2609  -47.8755   -9.1958 C   0  0  0  0  0  0  0  0  0  0  0  0
  -18.0897  -46.4995   -9.7219 C   0  0  0  0  0  0  0  0  0  0  0  0
  -16.9164  -46.3505  -10.6644 C   0  0  0  0  0  0  0  0  0  0  0  0
  -16.1576  -45.0733  -10.3080 C   0  0  0  0  0  0  0  0  0  0  0  0
  -16.6698  -43.7987  -10.1954 C   0  0  0  0  0  0  0  0  0  0  0  0
  -15.8330  -42.8204   -9.6971 C   0  0  0  0  0  0  0  0  0  0  0  0
  -16.1063  -41.3994   -9.3570 C   0  0  0  0  0  0  0  0  0  0  0  0
  -17.0842  -41.1872   -8.2104 C   0  0  2  0  0  0  0  0  0  0  0  0
  -18.4318  -40.9207   -8.6466 N   0  0  0  0  0  0  0  0  0  0  0  0
  -19.6121  -41.6228   -8.3388 C   0  0  0  0  0  0  0  0  0  0  0  0
  -20.5715  -40.7448   -8.0797 O   0  0  0  0  0  0  0  0  0  0  0  0
  -16.6120  -39.9022   -7.5030 C   0  0  2  0  0  0  0  0  0  0  0  0
  -15.4211  -40.2565   -6.8739 O   0  0  0  0  0  0  0  0  0  0  0  0
  -17.6409  -39.4022   -6.5475 C   0  0  0  0  0  0  0  0  0  0  0  0
  -18.9770  -39.3605   -7.0009 N   0  0  0  0  0  0  0  0  0  0  0  0
  -19.5552  -38.0654   -7.2468 C   0  0  0  0  0  0  0  0  0  0  0  0
  -18.5339  -36.9583   -7.0189 C   0  0  0  0  0  0  0  0  0  0  0  0
  -20.7869  -37.7509   -6.4722 C   0  0  0  0  0  0  0  0  0  0  0  0
  -19.8720  -38.0023   -8.7188 C   0  0  0  0  0  0  0  0  0  0  0  0
  -19.2332  -37.2967   -9.6916 C   0  0  0  0  0  0  0  0  0  0  0  0
  -19.8963  -37.5486  -10.9028 C   0  0  0  0  0  0  0  0  0  0  0  0
  -19.5337  -36.9828  -12.2180 C   0  0  0  0  0  0  0  0  0  0  0  0
  -20.2618  -35.6957  -12.5355 C   0  0  0  0  0  0  0  0  0  0  0  0
  -21.6684  -35.7246  -11.9916 C   0  0  0  0  0  0  0  0  0  0  0  0
  -20.3364  -35.5565  -14.0441 C   0  0  0  0  0  0  0  0  0  0  0  0
  -19.5074  -34.4941  -11.9975 C   0  0  0  0  0  0  0  0  0  0  0  0
  -20.8744  -38.3712  -10.6047 O   0  0  0  0  0  0  0  0  0  0  0  0
  -20.8890  -38.6540   -9.3503 N   0  0  0  0  0  0  0  0  0  0  0  0
  -14.5058  -43.1711   -9.3427 C   0  0  0  0  0  0  0  0  0  0  0  0
  -13.9793  -44.4253   -9.4548 C   0  0  0  0  0  0  0  0  0  0  0  0
  -12.3357  -44.8150   -9.0112 Cl  0  0  0  0  0  0  0  0  0  0  0  0
  -14.8421  -45.3732   -9.9477 C   0  0  0  0  0  0  0  0  0  0  0  0
  -14.3400  -46.6871  -10.0803 O   0  0  0  0  0  0  0  0  0  0  0  0
  1  2  1  0
  2  3  2  0
  3  4  1  0
  4  5  2  0
  5  6  1  0
  6  7  2  0
  6  8  1  0
  8  9  1  0
  9 10  1  0
 10 11  1  0
 11 12  1  0
 12 13  1  0
 13 14  1  0
 14 15  2  0
 15 16  1  0
 17 16  1  6
 17 18  1  0
 18 19  1  0
 19 20  2  0
 17 21  1  0
 21 22  1  1
 21 23  1  0
 23 24  1  0
 24 25  1  0
 25 26  1  0
 25 27  1  0
 25 28  1  0
 28 29  1  0
 29 30  2  0
 30 31  1  0
 31 32  1  0
 32 33  1  0
 32 34  1  0
 32 35  1  0
 30 36  1  0
 36 37  1  0
 15 38  1  0
 38 39  2  0
 39 40  1  0
 39 41  1  0
 41 42  1  0
  7  2  1  0
 19  4  1  0
 37 28  2  0
 41 13  2  0
M  END
$$$$
