
     RDKit          3D

 42 45  0  0  0  0  0  0  0  0999 V2000
  -18.9664  -44.2235  -11.9456 C   0  0  0  0  0  0  0  0  0  0  0  0
  -17.8335  -43.3862  -11.4724 C   0  0  0  0  0  0  0  0  0  0  0  0
  -17.9687  -42.4875  -10.4409 C   0  0  0  0  0  0  0  0  0  0  0  0
  -16.9197  -41.6631   -9.9497 C   0  0  0  0  0  0  0  0  0  0  0  0
  -15.7065  -41.7722  -10.5355 C   0  0  0  0  0  0  0  0  0  0  0  0
  -15.5461  -42.6874  -11.5970 C   0  0  0  0  0  0  0  0  0  0  0  0
  -16.6186  -43.4306  -11.9918 N   0  0  0  0  0  0  0  0  0  0  0  0
  -14.4259  -42.9480  -12.3168 O   0  0  0  0  0  0  0  0  0  0  0  0
  -13.6539  -42.8354  -13.3852 C   0  0  0  0  0  0  0  0  0  0  0  0
  -14.1222  -41.6962  -14.3363 C   0  0  0  0  0  0  0  0  0  0  0  0
  -14.9840  -40.7742  -13.5575 C   0  0  0  0  0  0  0  0  0  0  0  0
  -14.8794  -39.3299  -13.9937 C   0  0  0  0  0  0  0  0  0  0  0  0
  -14.7833  -38.4460  -12.7514 C   0  0  0  0  0  0  0  0  0  0  0  0
  -15.6445  -38.4167  -11.6757 C   0  0  0  0  0  0  0  0  0  0  0  0
  -15.2709  -37.6586  -10.5842 C   0  0  0  0  0  0  0  0  0  0  0  0
  -15.9107  -37.5069   -9.2511 C   0  0  0  0  0  0  0  0  0  0  0  0
  -15.9376  -38.7690   -8.4012 C   0  0  2  0  0  0  0  0  0  0  0  0
  -17.1881  -39.4822   -8.4713 N   0  0  0  0  0  0  0  0  0  0  0  0
  -17.4214  -40.8148   -8.8595 C   0  0  0  0  0  0  0  0  0  0  0  0
  -18.2910  -41.3551   -8.0167 O   0  0  0  0  0  0  0  0  0  0  0  0
  -15.8145  -38.2832   -6.9440 C   0  0  2  0  0  0  0  0  0  0  0  0
  -14.5349  -38.6627   -6.5468 O   0  0  0  0  0  0  0  0  0  0  0  0
  -16.8817  -38.8722   -6.0862 C   0  0  0  0  0  0  0  0  0  0  0  0
  -18.1474  -39.0739   -6.6776 N   0  0  0  0  0  0  0  0  0  0  0  0
  -19.2538  -39.3543   -5.8003 C   0  0  0  0  0  0  0  0  0  0  0  0
  -19.9549  -38.0699   -5.3767 C   0  0  0  0  0  0  0  0  0  0  0  0
  -18.9280  -40.1484   -4.5842 C   0  0  0  0  0  0  0  0  0  0  0  0
  -20.2769  -40.1027   -6.6154 C   0  0  0  0  0  0  0  0  0  0  0  0
  -21.6304  -40.1094   -6.4734 C   0  0  0  0  0  0  0  0  0  0  0  0
  -22.1557  -40.9610   -7.4578 C   0  0  0  0  0  0  0  0  0  0  0  0
  -23.5872  -41.2598   -7.6647 C   0  0  0  0  0  0  0  0  0  0  0  0
  -24.1204  -42.3119   -6.7178 C   0  0  0  0  0  0  0  0  0  0  0  0
  -23.2754  -42.3920   -5.4710 C   0  0  0  0  0  0  0  0  0  0  0  0
  -24.0598  -43.6538   -7.4223 C   0  0  0  0  0  0  0  0  0  0  0  0
  -25.5706  -42.0421   -6.3618 C   0  0  0  0  0  0  0  0  0  0  0  0
  -21.1186  -41.4113   -8.1242 O   0  0  0  0  0  0  0  0  0  0  0  0
  -20.0168  -40.9347   -7.6631 N   0  0  0  0  0  0  0  0  0  0  0  0
  -14.0433  -36.9508  -10.6310 C   0  0  0  0  0  0  0  0  0  0  0  0
  -13.1823  -36.9616  -11.6899 C   0  0  0  0  0  0  0  0  0  0  0  0
  -11.6803  -36.0707  -11.7095 Cl  0  0  0  0  0  0  0  0  0  0  0  0
  -13.5836  -37.7311  -12.7543 C   0  0  0  0  0  0  0  0  0  0  0  0
  -12.7223  -37.7726  -13.8735 O   0  0  0  0  0  0  0  0  0  0  0  0
  1  2  1  0
  2  3  2  0
  3  4  1  0
  4  5  2  0
  5  6  1  0
  6  7  2  0
  6  8  1  0
  8  9  1  0
  9 10  1  0
 10 11  1  0
 11 12  1  0
 12 13  1  0
 13 14  1  0
 14 15  2  0
 15 16  1  0
 17 16  1  6
 17 18  1  0
 18 19  1  0
 19 20  2  0
 17 21  1  0
 21 22  1  1
 21 23  1  0
 23 24  1  0
 24 25  1  0
 25 26  1  0
 25 27  1  0
 25 28  1  0
 28 29  1  0
 29 30  2  0
 30 31  1  0
 31 32  1  0
 32 33  1  0
 32 34  1  0
 32 35  1  0
 30 36  1  0
 36 37  1  0
 15 38  1  0
 38 39  2  0
 39 40  1  0
 39 41  1  0
 41 42  1  0
  7  2  1  0
 19  4  1  0
 37 28  2  0
 41 13  2  0
M  END
$$$$
