
     RDKit          3D

 42 45  0  0  0  0  0  0  0  0999 V2000
  -17.2187  -45.2104   -5.9108 C   0  0  0  0  0  0  0  0  0  0  0  0
  -18.1293  -44.2769   -6.6234 C   0  0  0  0  0  0  0  0  0  0  0  0
  -17.6789  -43.1134   -7.2009 C   0  0  0  0  0  0  0  0  0  0  0  0
  -18.5054  -42.1865   -7.8929 C   0  0  0  0  0  0  0  0  0  0  0  0
  -19.8233  -42.4697   -7.9913 C   0  0  0  0  0  0  0  0  0  0  0  0
  -20.3071  -43.6578   -7.4044 C   0  0  0  0  0  0  0  0  0  0  0  0
  -19.4285  -44.4787   -6.7620 N   0  0  0  0  0  0  0  0  0  0  0  0
  -21.5808  -44.1248   -7.3852 O   0  0  0  0  0  0  0  0  0  0  0  0
  -22.7544  -44.3359   -6.8123 C   0  0  0  0  0  0  0  0  0  0  0  0
  -22.9244  -43.5251   -5.4950 C   0  0  0  0  0  0  0  0  0  0  0  0
  -21.9469  -42.4099   -5.5139 C   0  0  0  0  0  0  0  0  0  0  0  0
  -22.4381  -41.1588   -4.8207 C   0  0  0  0  0  0  0  0  0  0  0  0
  -22.0964  -39.9487   -5.6883 C   0  0  0  0  0  0  0  0  0  0  0  0
  -20.8608  -39.5993   -6.1891 C   0  0  0  0  0  0  0  0  0  0  0  0
  -20.8138  -38.5553   -7.0910 C   0  0  0  0  0  0  0  0  0  0  0  0
  -19.6770  -38.0143   -7.8812 C   0  0  0  0  0  0  0  0  0  0  0  0
  -19.0965  -38.9699   -8.9137 C   0  0  2  0  0  0  0  0  0  0  0  0
  -17.9204  -39.6655   -8.4553 N   0  0  0  0  0  0  0  0  0  0  0  0
  -17.6975  -41.0520   -8.3622 C   0  0  0  0  0  0  0  0  0  0  0  0
  -16.4771  -41.3155   -8.8090 O   0  0  0  0  0  0  0  0  0  0  0  0
  -18.6268  -38.0770  -10.0785 C   0  0  2  0  0  0  0  0  0  0  0  0
  -19.4708  -38.3979  -11.1387 O   0  0  0  0  0  0  0  0  0  0  0  0
  -17.1897  -38.3137  -10.3951 C   0  0  0  0  0  0  0  0  0  0  0  0
  -16.2547  -38.0820   -9.3633 N   0  0  0  0  0  0  0  0  0  0  0  0
  -15.1397  -37.2205   -9.6579 C   0  0  0  0  0  0  0  0  0  0  0  0
  -14.4579  -36.7518   -8.3788 C   0  0  0  0  0  0  0  0  0  0  0  0
  -15.4465  -36.0337  -10.5025 C   0  0  0  0  0  0  0  0  0  0  0  0
  -14.1082  -38.0673  -10.3580 C   0  0  0  0  0  0  0  0  0  0  0  0
  -12.9440  -37.6716  -10.9413 C   0  0  0  0  0  0  0  0  0  0  0  0
  -12.3242  -38.8150  -11.4692 C   0  0  0  0  0  0  0  0  0  0  0  0
  -11.0353  -38.8420  -12.1898 C   0  0  0  0  0  0  0  0  0  0  0  0
  -11.1917  -38.8201  -13.6940 C   0  0  0  0  0  0  0  0  0  0  0  0
  -12.1896  -37.7709  -14.1163 C   0  0  0  0  0  0  0  0  0  0  0  0
  -11.7103  -40.1761  -14.1334 C   0  0  0  0  0  0  0  0  0  0  0  0
   -9.8570  -38.5919  -14.3790 C   0  0  0  0  0  0  0  0  0  0  0  0
  -13.1261  -39.8139  -11.1839 O   0  0  0  0  0  0  0  0  0  0  0  0
  -14.1669  -39.4165  -10.5417 N   0  0  0  0  0  0  0  0  0  0  0  0
  -22.0209  -37.8992   -7.4412 C   0  0  0  0  0  0  0  0  0  0  0  0
  -23.2515  -38.2260   -6.9498 C   0  0  0  0  0  0  0  0  0  0  0  0
  -24.7151  -37.3883   -7.4037 Cl  0  0  0  0  0  0  0  0  0  0  0  0
  -23.2603  -39.2727   -6.0609 C   0  0  0  0  0  0  0  0  0  0  0  0
  -24.5136  -39.6466   -5.5264 O   0  0  0  0  0  0  0  0  0  0  0  0
  1  2  1  0
  2  3  2  0
  3  4  1  0
  4  5  2  0
  5  6  1  0
  6  7  2  0
  6  8  1  0
  8  9  1  0
  9 10  1  0
 10 11  1  0
 11 12  1  0
 12 13  1  0
 13 14  1  0
 14 15  2  0
 15 16  1  0
 17 16  1  1
 17 18  1  0
 18 19  1  0
 19 20  2  0
 17 21  1  0
 21 22  1  6
 21 23  1  0
 23 24  1  0
 24 25  1  0
 25 26  1  0
 25 27  1  0
 25 28  1  0
 28 29  1  0
 29 30  2  0
 30 31  1  0
 31 32  1  0
 32 33  1  0
 32 34  1  0
 32 35  1  0
 30 36  1  0
 36 37  1  0
 15 38  1  0
 38 39  2  0
 39 40  1  0
 39 41  1  0
 41 42  1  0
  7  2  1  0
 19  4  1  0
 37 28  2  0
 41 13  2  0
M  END
$$$$
