
     RDKit          3D

 42 45  0  0  0  0  0  0  0  0999 V2000
  -22.3901  -45.3740   -6.6201 C   0  0  0  0  0  0  0  0  0  0  0  0
  -20.9886  -44.9787   -6.9168 C   0  0  0  0  0  0  0  0  0  0  0  0
  -20.5506  -43.6823   -6.7859 C   0  0  0  0  0  0  0  0  0  0  0  0
  -19.2233  -43.2505   -7.0562 C   0  0  0  0  0  0  0  0  0  0  0  0
  -18.3310  -44.1785   -7.4680 C   0  0  0  0  0  0  0  0  0  0  0  0
  -18.7598  -45.5148   -7.6106 C   0  0  0  0  0  0  0  0  0  0  0  0
  -20.0569  -45.8229   -7.3255 N   0  0  0  0  0  0  0  0  0  0  0  0
  -18.0344  -46.5898   -8.0096 O   0  0  0  0  0  0  0  0  0  0  0  0
  -17.6395  -47.4857   -8.8991 C   0  0  0  0  0  0  0  0  0  0  0  0
  -18.0706  -47.1120  -10.3470 C   0  0  0  0  0  0  0  0  0  0  0  0
  -18.3690  -45.6596  -10.3758 C   0  0  0  0  0  0  0  0  0  0  0  0
  -18.0350  -44.9961  -11.6931 C   0  0  0  0  0  0  0  0  0  0  0  0
  -17.3231  -43.6740  -11.4121 C   0  0  0  0  0  0  0  0  0  0  0  0
  -17.7600  -42.6414  -10.6104 C   0  0  0  0  0  0  0  0  0  0  0  0
  -16.8757  -41.6099  -10.3661 C   0  0  0  0  0  0  0  0  0  0  0  0
  -16.9973  -40.4265   -9.4750 C   0  0  0  0  0  0  0  0  0  0  0  0
  -17.0819  -40.7439   -7.9890 C   0  0  2  0  0  0  0  0  0  0  0  0
  -18.4305  -40.7594   -7.4808 N   0  0  0  0  0  0  0  0  0  0  0  0
  -19.1140  -41.8027   -6.8286 C   0  0  0  0  0  0  0  0  0  0  0  0
  -19.7811  -41.2945   -5.8013 O   0  0  0  0  0  0  0  0  0  0  0  0
  -16.3813  -39.5691   -7.2794 C   0  0  2  0  0  0  0  0  0  0  0  0
  -15.9645  -40.0868   -6.0557 O   0  0  0  0  0  0  0  0  0  0  0  0
  -17.2988  -38.4042   -7.1290 C   0  0  0  0  0  0  0  0  0  0  0  0
  -17.3197  -37.4592   -8.1774 N   0  0  0  0  0  0  0  0  0  0  0  0
  -18.5742  -36.8149   -8.4664 C   0  0  0  0  0  0  0  0  0  0  0  0
  -18.6117  -36.3110   -9.9035 C   0  0  0  0  0  0  0  0  0  0  0  0
  -18.9521  -35.7000   -7.5554 C   0  0  0  0  0  0  0  0  0  0  0  0
  -19.6365  -37.8820   -8.4029 C   0  0  0  0  0  0  0  0  0  0  0  0
  -19.6811  -38.9841   -7.6057 C   0  0  0  0  0  0  0  0  0  0  0  0
  -20.8596  -39.6821   -7.9128 C   0  0  0  0  0  0  0  0  0  0  0  0
  -21.3056  -40.9405   -7.2815 C   0  0  0  0  0  0  0  0  0  0  0  0
  -22.5725  -40.7851   -6.4700 C   0  0  0  0  0  0  0  0  0  0  0  0
  -23.5634  -41.8716   -6.8054 C   0  0  0  0  0  0  0  0  0  0  0  0
  -23.1950  -39.4470   -6.8201 C   0  0  0  0  0  0  0  0  0  0  0  0
  -22.2715  -40.7795   -4.9827 C   0  0  0  0  0  0  0  0  0  0  0  0
  -21.4483  -38.9825   -8.8543 O   0  0  0  0  0  0  0  0  0  0  0  0
  -20.7678  -37.9354   -9.1611 N   0  0  0  0  0  0  0  0  0  0  0  0
  -15.5864  -41.6608  -10.9537 C   0  0  0  0  0  0  0  0  0  0  0  0
  -15.1395  -42.6704  -11.7560 C   0  0  0  0  0  0  0  0  0  0  0  0
  -13.5436  -42.6926  -12.4648 Cl  0  0  0  0  0  0  0  0  0  0  0  0
  -16.0434  -43.6816  -11.9714 C   0  0  0  0  0  0  0  0  0  0  0  0
  -15.6235  -44.7492  -12.7960 O   0  0  0  0  0  0  0  0  0  0  0  0
  1  2  1  0
  2  3  2  0
  3  4  1  0
  4  5  2  0
  5  6  1  0
  6  7  2  0
  6  8  1  0
  8  9  1  0
  9 10  1  0
 10 11  1  0
 11 12  1  0
 12 13  1  0
 13 14  1  0
 14 15  2  0
 15 16  1  0
 17 16  1  6
 17 18  1  0
 18 19  1  0
 19 20  2  0
 17 21  1  0
 21 22  1  1
 21 23  1  0
 23 24  1  0
 24 25  1  0
 25 26  1  0
 25 27  1  0
 25 28  1  0
 28 29  1  0
 29 30  2  0
 30 31  1  0
 31 32  1  0
 32 33  1  0
 32 34  1  0
 32 35  1  0
 30 36  1  0
 36 37  1  0
 15 38  1  0
 38 39  2  0
 39 40  1  0
 39 41  1  0
 41 42  1  0
  7  2  1  0
 19  4  1  0
 37 28  2  0
 41 13  2  0
M  END
$$$$
