
     RDKit          3D

 42 45  0  0  0  0  0  0  0  0999 V2000
  -19.6025  -47.1910   -5.7039 C   0  0  0  0  0  0  0  0  0  0  0  0
  -19.8681  -45.8774   -6.3460 C   0  0  0  0  0  0  0  0  0  0  0  0
  -18.9369  -44.8661   -6.3559 C   0  0  0  0  0  0  0  0  0  0  0  0
  -19.1389  -43.5925   -6.9546 C   0  0  0  0  0  0  0  0  0  0  0  0
  -20.3267  -43.3613   -7.5567 C   0  0  0  0  0  0  0  0  0  0  0  0
  -21.2973  -44.3850   -7.5568 C   0  0  0  0  0  0  0  0  0  0  0  0
  -21.0019  -45.5709   -6.9528 N   0  0  0  0  0  0  0  0  0  0  0  0
  -22.5419  -44.3598   -8.0965 O   0  0  0  0  0  0  0  0  0  0  0  0
  -23.8577  -44.2403   -8.0295 C   0  0  0  0  0  0  0  0  0  0  0  0
  -24.3323  -43.6850   -6.6554 C   0  0  0  0  0  0  0  0  0  0  0  0
  -23.1792  -43.0114   -6.0103 C   0  0  0  0  0  0  0  0  0  0  0  0
  -23.5671  -41.8213   -5.1616 C   0  0  0  0  0  0  0  0  0  0  0  0
  -22.6010  -40.6739   -5.4515 C   0  0  0  0  0  0  0  0  0  0  0  0
  -21.2243  -40.7027   -5.3912 C   0  0  0  0  0  0  0  0  0  0  0  0
  -20.5455  -39.5953   -5.8586 C   0  0  0  0  0  0  0  0  0  0  0  0
  -19.0879  -39.3591   -6.0296 C   0  0  0  0  0  0  0  0  0  0  0  0
  -18.4072  -40.2472   -7.0610 C   0  0  2  0  0  0  0  0  0  0  0  0
  -17.7439  -41.3905   -6.4865 N   0  0  0  0  0  0  0  0  0  0  0  0
  -17.9462  -42.7560   -6.7610 C   0  0  0  0  0  0  0  0  0  0  0  0
  -16.7637  -43.3500   -6.8474 O   0  0  0  0  0  0  0  0  0  0  0  0
  -17.2903  -39.3801   -7.6736 C   0  0  2  0  0  0  0  0  0  0  0  0
  -17.9562  -38.4293   -8.4430 O   0  0  0  0  0  0  0  0  0  0  0  0
  -16.3423  -40.2063   -8.4737 C   0  0  0  0  0  0  0  0  0  0  0  0
  -16.0505  -39.7680   -9.7833 N   0  0  0  0  0  0  0  0  0  0  0  0
  -15.2909  -40.6533  -10.6267 C   0  0  0  0  0  0  0  0  0  0  0  0
  -16.1928  -41.3594  -11.6311 C   0  0  0  0  0  0  0  0  0  0  0  0
  -14.4690  -41.6724   -9.9183 C   0  0  0  0  0  0  0  0  0  0  0  0
  -14.3845  -39.7871  -11.4630 C   0  0  0  0  0  0  0  0  0  0  0  0
  -14.5244  -38.4694  -11.7732 C   0  0  0  0  0  0  0  0  0  0  0  0
  -13.4366  -38.1065  -12.5827 C   0  0  0  0  0  0  0  0  0  0  0  0
  -13.1923  -36.7640  -13.1475 C   0  0  0  0  0  0  0  0  0  0  0  0
  -11.8020  -36.2406  -12.8632 C   0  0  0  0  0  0  0  0  0  0  0  0
  -11.6916  -34.7808  -13.2264 C   0  0  0  0  0  0  0  0  0  0  0  0
  -10.8212  -37.0204  -13.7179 C   0  0  0  0  0  0  0  0  0  0  0  0
  -11.4229  -36.4580  -11.4100 C   0  0  0  0  0  0  0  0  0  0  0  0
  -12.7168  -39.1960  -12.7146 O   0  0  0  0  0  0  0  0  0  0  0  0
  -13.2365  -40.1862  -12.0797 N   0  0  0  0  0  0  0  0  0  0  0  0
  -21.2901  -38.4973   -6.3587 C   0  0  0  0  0  0  0  0  0  0  0  0
  -22.6528  -38.4479   -6.4188 C   0  0  0  0  0  0  0  0  0  0  0  0
  -23.5328  -37.0726   -7.0383 Cl  0  0  0  0  0  0  0  0  0  0  0  0
  -23.2936  -39.5691   -5.9515 C   0  0  0  0  0  0  0  0  0  0  0  0
  -24.7058  -39.5627   -5.9950 O   0  0  0  0  0  0  0  0  0  0  0  0
  1  2  1  0
  2  3  2  0
  3  4  1  0
  4  5  2  0
  5  6  1  0
  6  7  2  0
  6  8  1  0
  8  9  1  0
  9 10  1  0
 10 11  1  0
 11 12  1  0
 12 13  1  0
 13 14  1  0
 14 15  2  0
 15 16  1  0
 17 16  1  1
 17 18  1  0
 18 19  1  0
 19 20  2  0
 17 21  1  0
 21 22  1  6
 21 23  1  0
 23 24  1  0
 24 25  1  0
 25 26  1  0
 25 27  1  0
 25 28  1  0
 28 29  1  0
 29 30  2  0
 30 31  1  0
 31 32  1  0
 32 33  1  0
 32 34  1  0
 32 35  1  0
 30 36  1  0
 36 37  1  0
 15 38  1  0
 38 39  2  0
 39 40  1  0
 39 41  1  0
 41 42  1  0
  7  2  1  0
 19  4  1  0
 37 28  2  0
 41 13  2  0
M  END
$$$$
