
     RDKit          3D

 42 45  0  0  0  0  0  0  0  0999 V2000
  -22.4841  -46.3461   -7.6327 C   0  0  0  0  0  0  0  0  0  0  0  0
  -21.7690  -45.4330   -8.5617 C   0  0  0  0  0  0  0  0  0  0  0  0
  -21.0652  -44.3395   -8.1158 C   0  0  0  0  0  0  0  0  0  0  0  0
  -20.3645  -43.4350   -8.9597 C   0  0  0  0  0  0  0  0  0  0  0  0
  -20.3906  -43.6675  -10.2909 C   0  0  0  0  0  0  0  0  0  0  0  0
  -21.1084  -44.7833  -10.7703 C   0  0  0  0  0  0  0  0  0  0  0  0
  -21.7469  -45.5884   -9.8744 N   0  0  0  0  0  0  0  0  0  0  0  0
  -21.2631  -45.1915  -12.0549 O   0  0  0  0  0  0  0  0  0  0  0  0
  -21.9392  -45.3055  -13.1862 C   0  0  0  0  0  0  0  0  0  0  0  0
  -23.1947  -44.3866  -13.2205 C   0  0  0  0  0  0  0  0  0  0  0  0
  -23.0097  -43.3200  -12.2067 C   0  0  0  0  0  0  0  0  0  0  0  0
  -23.6334  -41.9979  -12.5943 C   0  0  0  0  0  0  0  0  0  0  0  0
  -22.6458  -40.8760  -12.2780 C   0  0  0  0  0  0  0  0  0  0  0  0
  -22.0251  -40.6214  -11.0741 C   0  0  0  0  0  0  0  0  0  0  0  0
  -21.0396  -39.6548  -11.0602 C   0  0  0  0  0  0  0  0  0  0  0  0
  -20.1231  -39.2278   -9.9706 C   0  0  0  0  0  0  0  0  0  0  0  0
  -19.1313  -40.2863   -9.5101 C   0  0  2  0  0  0  0  0  0  0  0  0
  -19.5541  -40.9941   -8.3279 N   0  0  0  0  0  0  0  0  0  0  0  0
  -19.7434  -42.3773   -8.1501 C   0  0  0  0  0  0  0  0  0  0  0  0
  -19.2278  -42.7281   -6.9799 O   0  0  0  0  0  0  0  0  0  0  0  0
  -17.8647  -39.5095   -9.1018 C   0  0  2  0  0  0  0  0  0  0  0  0
  -17.3969  -38.9403  -10.2835 O   0  0  0  0  0  0  0  0  0  0  0  0
  -16.8634  -40.4078   -8.4600 C   0  0  0  0  0  0  0  0  0  0  0  0
  -17.2365  -41.0297   -7.2489 N   0  0  0  0  0  0  0  0  0  0  0  0
  -16.8042  -40.4107   -6.0233 C   0  0  0  0  0  0  0  0  0  0  0  0
  -17.2415  -38.9526   -5.9632 C   0  0  0  0  0  0  0  0  0  0  0  0
  -15.3447  -40.4874   -5.7412 C   0  0  0  0  0  0  0  0  0  0  0  0
  -17.5561  -41.0863   -4.9055 C   0  0  0  0  0  0  0  0  0  0  0  0
  -17.6716  -40.6955   -3.6071 C   0  0  0  0  0  0  0  0  0  0  0  0
  -18.4623  -41.6485   -2.9461 C   0  0  0  0  0  0  0  0  0  0  0  0
  -18.8406  -41.6146   -1.5189 C   0  0  0  0  0  0  0  0  0  0  0  0
  -19.5975  -40.3638   -1.1314 C   0  0  0  0  0  0  0  0  0  0  0  0
  -20.4267  -40.5981    0.1065 C   0  0  0  0  0  0  0  0  0  0  0  0
  -20.5324  -40.0068   -2.2713 C   0  0  0  0  0  0  0  0  0  0  0  0
  -18.6523  -39.1946   -0.9259 C   0  0  0  0  0  0  0  0  0  0  0  0
  -18.7738  -42.5406   -3.8569 O   0  0  0  0  0  0  0  0  0  0  0  0
  -18.2661  -42.2458   -5.0010 N   0  0  0  0  0  0  0  0  0  0  0  0
  -20.7299  -38.9765  -12.2661 C   0  0  0  0  0  0  0  0  0  0  0  0
  -21.3391  -39.2096  -13.4650 C   0  0  0  0  0  0  0  0  0  0  0  0
  -20.9310  -38.3475  -14.9279 Cl  0  0  0  0  0  0  0  0  0  0  0  0
  -22.3090  -40.1816  -13.4420 C   0  0  0  0  0  0  0  0  0  0  0  0
  -22.9665  -40.4573  -14.6617 O   0  0  0  0  0  0  0  0  0  0  0  0
  1  2  1  0
  2  3  2  0
  3  4  1  0
  4  5  2  0
  5  6  1  0
  6  7  2  0
  6  8  1  0
  8  9  1  0
  9 10  1  0
 10 11  1  0
 11 12  1  0
 12 13  1  0
 13 14  1  0
 14 15  2  0
 15 16  1  0
 17 16  1  1
 17 18  1  0
 18 19  1  0
 19 20  2  0
 17 21  1  0
 21 22  1  6
 21 23  1  0
 23 24  1  0
 24 25  1  0
 25 26  1  0
 25 27  1  0
 25 28  1  0
 28 29  1  0
 29 30  2  0
 30 31  1  0
 31 32  1  0
 32 33  1  0
 32 34  1  0
 32 35  1  0
 30 36  1  0
 36 37  1  0
 15 38  1  0
 38 39  2  0
 39 40  1  0
 39 41  1  0
 41 42  1  0
  7  2  1  0
 19  4  1  0
 37 28  2  0
 41 13  2  0
M  END
$$$$
