
     RDKit          3D

 42 45  0  0  0  0  0  0  0  0999 V2000
  -18.7677  -47.0640   -5.5930 C   0  0  0  0  0  0  0  0  0  0  0  0
  -19.3091  -45.8582   -6.2721 C   0  0  0  0  0  0  0  0  0  0  0  0
  -18.5347  -44.7506   -6.5241 C   0  0  0  0  0  0  0  0  0  0  0  0
  -19.0014  -43.5727   -7.1691 C   0  0  0  0  0  0  0  0  0  0  0  0
  -20.2939  -43.5407   -7.5631 C   0  0  0  0  0  0  0  0  0  0  0  0
  -21.1069  -44.6662   -7.3129 C   0  0  0  0  0  0  0  0  0  0  0  0
  -20.5596  -45.7460   -6.6860 N   0  0  0  0  0  0  0  0  0  0  0  0
  -22.4171  -44.8386   -7.6201 O   0  0  0  0  0  0  0  0  0  0  0  0
  -23.7066  -44.8679   -7.3264 C   0  0  0  0  0  0  0  0  0  0  0  0
  -24.0109  -44.2427   -5.9342 C   0  0  0  0  0  0  0  0  0  0  0  0
  -22.8644  -43.3802   -5.5587 C   0  0  0  0  0  0  0  0  0  0  0  0
  -23.2567  -42.1677   -4.7444 C   0  0  0  0  0  0  0  0  0  0  0  0
  -22.5136  -40.9483   -5.2874 C   0  0  0  0  0  0  0  0  0  0  0  0
  -21.1550  -40.8100   -5.4738 C   0  0  0  0  0  0  0  0  0  0  0  0
  -20.7172  -39.6808   -6.1363 C   0  0  0  0  0  0  0  0  0  0  0  0
  -19.3537  -39.2932   -6.5837 C   0  0  0  0  0  0  0  0  0  0  0  0
  -18.7463  -40.1904   -7.6523 C   0  0  2  0  0  0  0  0  0  0  0  0
  -17.8503  -41.1879   -7.1237 N   0  0  0  0  0  0  0  0  0  0  0  0
  -17.9141  -42.5877   -7.2556 C   0  0  0  0  0  0  0  0  0  0  0  0
  -16.6955  -43.0449   -7.5093 O   0  0  0  0  0  0  0  0  0  0  0  0
  -17.8735  -39.2614   -8.5183 C   0  0  2  0  0  0  0  0  0  0  0  0
  -18.7696  -38.3696   -9.1022 O   0  0  0  0  0  0  0  0  0  0  0  0
  -17.0941  -40.0361   -9.5252 C   0  0  0  0  0  0  0  0  0  0  0  0
  -15.6865  -39.9790   -9.4353 N   0  0  0  0  0  0  0  0  0  0  0  0
  -15.0538  -38.7151   -9.7081 C   0  0  0  0  0  0  0  0  0  0  0  0
  -14.1557  -38.2925   -8.5525 C   0  0  0  0  0  0  0  0  0  0  0  0
  -15.9725  -37.5916  -10.0394 C   0  0  0  0  0  0  0  0  0  0  0  0
  -14.1152  -38.9389  -10.8656 C   0  0  0  0  0  0  0  0  0  0  0  0
  -14.0482  -38.2600  -12.0432 C   0  0  0  0  0  0  0  0  0  0  0  0
  -13.0217  -38.8368  -12.8074 C   0  0  0  0  0  0  0  0  0  0  0  0
  -12.6072  -38.4075  -14.1584 C   0  0  0  0  0  0  0  0  0  0  0  0
  -11.3559  -37.5579  -14.1571 C   0  0  0  0  0  0  0  0  0  0  0  0
  -10.8728  -37.3131  -12.7494 C   0  0  0  0  0  0  0  0  0  0  0  0
  -11.6948  -36.2193  -14.7847 C   0  0  0  0  0  0  0  0  0  0  0  0
  -10.2614  -38.1959  -14.9924 C   0  0  0  0  0  0  0  0  0  0  0  0
  -12.5364  -39.8077  -12.0697 O   0  0  0  0  0  0  0  0  0  0  0  0
  -13.1459  -39.8942  -10.9407 N   0  0  0  0  0  0  0  0  0  0  0  0
  -21.6741  -38.7305   -6.5740 C   0  0  0  0  0  0  0  0  0  0  0  0
  -23.0216  -38.8468   -6.3913 C   0  0  0  0  0  0  0  0  0  0  0  0
  -24.1675  -37.6496   -6.9423 Cl  0  0  0  0  0  0  0  0  0  0  0  0
  -23.4205  -39.9851   -5.7348 C   0  0  0  0  0  0  0  0  0  0  0  0
  -24.8080  -40.1482   -5.5239 O   0  0  0  0  0  0  0  0  0  0  0  0
  1  2  1  0
  2  3  2  0
  3  4  1  0
  4  5  2  0
  5  6  1  0
  6  7  2  0
  6  8  1  0
  8  9  1  0
  9 10  1  0
 10 11  1  0
 11 12  1  0
 12 13  1  0
 13 14  1  0
 14 15  2  0
 15 16  1  0
 17 16  1  1
 17 18  1  0
 18 19  1  0
 19 20  2  0
 17 21  1  0
 21 22  1  6
 21 23  1  0
 23 24  1  0
 24 25  1  0
 25 26  1  0
 25 27  1  0
 25 28  1  0
 28 29  1  0
 29 30  2  0
 30 31  1  0
 31 32  1  0
 32 33  1  0
 32 34  1  0
 32 35  1  0
 30 36  1  0
 36 37  1  0
 15 38  1  0
 38 39  2  0
 39 40  1  0
 39 41  1  0
 41 42  1  0
  7  2  1  0
 19  4  1  0
 37 28  2  0
 41 13  2  0
M  END
$$$$
