
     RDKit          3D

 42 45  0  0  0  0  0  0  0  0999 V2000
  -18.5701  -47.2687   -5.9985 C   0  0  0  0  0  0  0  0  0  0  0  0
  -18.8785  -45.9209   -6.5433 C   0  0  0  0  0  0  0  0  0  0  0  0
  -18.0066  -44.8651   -6.4210 C   0  0  0  0  0  0  0  0  0  0  0  0
  -18.2515  -43.5575   -6.9224 C   0  0  0  0  0  0  0  0  0  0  0  0
  -19.4203  -43.3383   -7.5650 C   0  0  0  0  0  0  0  0  0  0  0  0
  -20.3303  -44.4077   -7.7003 C   0  0  0  0  0  0  0  0  0  0  0  0
  -19.9975  -45.6237   -7.1814 N   0  0  0  0  0  0  0  0  0  0  0  0
  -21.5470  -44.4020   -8.3006 O   0  0  0  0  0  0  0  0  0  0  0  0
  -22.8691  -44.3577   -8.2931 C   0  0  0  0  0  0  0  0  0  0  0  0
  -23.4397  -43.9470   -6.9048 C   0  0  0  0  0  0  0  0  0  0  0  0
  -22.3588  -43.2713   -6.1468 C   0  0  0  0  0  0  0  0  0  0  0  0
  -22.8536  -42.1797   -5.2245 C   0  0  0  0  0  0  0  0  0  0  0  0
  -21.9413  -40.9628   -5.3678 C   0  0  0  0  0  0  0  0  0  0  0  0
  -20.5697  -40.9245   -5.2379 C   0  0  0  0  0  0  0  0  0  0  0  0
  -19.9330  -39.7472   -5.5762 C   0  0  0  0  0  0  0  0  0  0  0  0
  -18.4846  -39.4213   -5.6504 C   0  0  0  0  0  0  0  0  0  0  0  0
  -17.7061  -40.1815   -6.7144 C   0  0  2  0  0  0  0  0  0  0  0  0
  -17.0074  -41.3332   -6.2020 N   0  0  0  0  0  0  0  0  0  0  0  0
  -17.1187  -42.6791   -6.5983 C   0  0  0  0  0  0  0  0  0  0  0  0
  -15.9018  -43.2008   -6.6712 O   0  0  0  0  0  0  0  0  0  0  0  0
  -16.6120  -39.2080   -7.1940 C   0  0  2  0  0  0  0  0  0  0  0  0
  -17.2632  -38.3384   -8.0653 O   0  0  0  0  0  0  0  0  0  0  0  0
  -15.4866  -39.9378   -7.8438 C   0  0  0  0  0  0  0  0  0  0  0  0
  -15.8216  -40.9325   -8.7877 N   0  0  0  0  0  0  0  0  0  0  0  0
  -15.3663  -40.7454  -10.1405 C   0  0  0  0  0  0  0  0  0  0  0  0
  -14.4739  -41.8985  -10.5815 C   0  0  0  0  0  0  0  0  0  0  0  0
  -14.6640  -39.4616  -10.4133 C   0  0  0  0  0  0  0  0  0  0  0  0
  -16.5825  -40.8370  -11.0258 C   0  0  0  0  0  0  0  0  0  0  0  0
  -17.1272  -39.8725  -11.8164 C   0  0  0  0  0  0  0  0  0  0  0  0
  -18.2553  -40.4249  -12.4429 C   0  0  0  0  0  0  0  0  0  0  0  0
  -19.1463  -39.7231  -13.3889 C   0  0  0  0  0  0  0  0  0  0  0  0
  -19.7891  -38.4876  -12.7989 C   0  0  0  0  0  0  0  0  0  0  0  0
  -19.4369  -38.3422  -11.3395 C   0  0  0  0  0  0  0  0  0  0  0  0
  -21.2940  -38.6391  -12.9136 C   0  0  0  0  0  0  0  0  0  0  0  0
  -19.3901  -37.2429  -13.5697 C   0  0  0  0  0  0  0  0  0  0  0  0
  -18.3296  -41.6611  -12.0086 O   0  0  0  0  0  0  0  0  0  0  0  0
  -17.3776  -41.9321  -11.1877 N   0  0  0  0  0  0  0  0  0  0  0  0
  -20.7138  -38.6512   -6.0226 C   0  0  0  0  0  0  0  0  0  0  0  0
  -22.0726  -38.6683   -6.1498 C   0  0  0  0  0  0  0  0  0  0  0  0
  -22.9984  -37.2933   -6.6993 Cl  0  0  0  0  0  0  0  0  0  0  0  0
  -22.6706  -39.8572   -5.8107 C   0  0  0  0  0  0  0  0  0  0  0  0
  -24.0771  -39.9212   -5.9276 O   0  0  0  0  0  0  0  0  0  0  0  0
  1  2  1  0
  2  3  2  0
  3  4  1  0
  4  5  2  0
  5  6  1  0
  6  7  2  0
  6  8  1  0
  8  9  1  0
  9 10  1  0
 10 11  1  0
 11 12  1  0
 12 13  1  0
 13 14  1  0
 14 15  2  0
 15 16  1  0
 17 16  1  1
 17 18  1  0
 18 19  1  0
 19 20  2  0
 17 21  1  0
 21 22  1  6
 21 23  1  0
 23 24  1  0
 24 25  1  0
 25 26  1  0
 25 27  1  0
 25 28  1  0
 28 29  1  0
 29 30  2  0
 30 31  1  0
 31 32  1  0
 32 33  1  0
 32 34  1  0
 32 35  1  0
 30 36  1  0
 36 37  1  0
 15 38  1  0
 38 39  2  0
 39 40  1  0
 39 41  1  0
 41 42  1  0
  7  2  1  0
 19  4  1  0
 37 28  2  0
 41 13  2  0
M  END
$$$$
