
     RDKit          3D

 42 45  0  0  0  0  0  0  0  0999 V2000
  -16.3267  -45.6975   -8.8946 C   0  0  0  0  0  0  0  0  0  0  0  0
  -17.2987  -44.5736   -8.8765 C   0  0  0  0  0  0  0  0  0  0  0  0
  -16.9027  -43.2659   -8.7246 C   0  0  0  0  0  0  0  0  0  0  0  0
  -17.7892  -42.1547   -8.7000 C   0  0  0  0  0  0  0  0  0  0  0  0
  -19.1111  -42.4008   -8.8375 C   0  0  0  0  0  0  0  0  0  0  0  0
  -19.5395  -43.7359   -8.9930 C   0  0  0  0  0  0  0  0  0  0  0  0
  -18.6056  -44.7290   -9.0021 N   0  0  0  0  0  0  0  0  0  0  0  0
  -20.8066  -44.1976   -9.1419 O   0  0  0  0  0  0  0  0  0  0  0  0
  -21.9211  -44.7564   -8.6998 C   0  0  0  0  0  0  0  0  0  0  0  0
  -21.9642  -44.8427   -7.1466 C   0  0  0  0  0  0  0  0  0  0  0  0
  -20.9907  -43.8631   -6.6060 C   0  0  0  0  0  0  0  0  0  0  0  0
  -21.4118  -43.2509   -5.2888 C   0  0  0  0  0  0  0  0  0  0  0  0
  -21.1514  -41.7464   -5.3395 C   0  0  0  0  0  0  0  0  0  0  0  0
  -19.9679  -41.1112   -5.6490 C   0  0  0  0  0  0  0  0  0  0  0  0
  -20.0044  -39.7394   -5.7989 C   0  0  0  0  0  0  0  0  0  0  0  0
  -18.9464  -38.7880   -6.2288 C   0  0  0  0  0  0  0  0  0  0  0  0
  -18.4680  -38.9606   -7.6632 C   0  0  2  0  0  0  0  0  0  0  0  0
  -17.2551  -39.7310   -7.7755 N   0  0  0  0  0  0  0  0  0  0  0  0
  -17.0271  -40.9134   -8.5041 C   0  0  0  0  0  0  0  0  0  0  0  0
  -15.8550  -40.8140   -9.1162 O   0  0  0  0  0  0  0  0  0  0  0  0
  -18.1088  -37.5425   -8.1477 C   0  0  2  0  0  0  0  0  0  0  0  0
  -19.3283  -36.8769   -8.2429 O   0  0  0  0  0  0  0  0  0  0  0  0
  -17.3734  -37.5844   -9.4434 C   0  0  0  0  0  0  0  0  0  0  0  0
  -15.9671  -37.4745   -9.3915 N   0  0  0  0  0  0  0  0  0  0  0  0
  -15.2428  -37.6219  -10.6268 C   0  0  0  0  0  0  0  0  0  0  0  0
  -13.7496  -37.4084  -10.4139 C   0  0  0  0  0  0  0  0  0  0  0  0
  -15.6977  -36.7559  -11.7489 C   0  0  0  0  0  0  0  0  0  0  0  0
  -15.3724  -39.0659  -11.0379 C   0  0  0  0  0  0  0  0  0  0  0  0
  -14.3835  -39.9768  -11.2491 C   0  0  0  0  0  0  0  0  0  0  0  0
  -14.9926  -41.1845  -11.6245 C   0  0  0  0  0  0  0  0  0  0  0  0
  -14.2878  -42.4412  -11.9488 C   0  0  0  0  0  0  0  0  0  0  0  0
  -14.5139  -43.5332  -10.9270 C   0  0  0  0  0  0  0  0  0  0  0  0
  -14.2253  -43.0344   -9.5332 C   0  0  0  0  0  0  0  0  0  0  0  0
  -13.5585  -44.6706  -11.2340 C   0  0  0  0  0  0  0  0  0  0  0  0
  -15.9266  -44.0800  -11.0151 C   0  0  0  0  0  0  0  0  0  0  0  0
  -16.2829  -40.9446  -11.6200 O   0  0  0  0  0  0  0  0  0  0  0  0
  -16.5370  -39.7293  -11.2852 N   0  0  0  0  0  0  0  0  0  0  0  0
  -21.2380  -39.0642   -5.6180 C   0  0  0  0  0  0  0  0  0  0  0  0
  -22.4172  -39.6752   -5.3037 C   0  0  0  0  0  0  0  0  0  0  0  0
  -23.9156  -38.8054   -5.0845 Cl  0  0  0  0  0  0  0  0  0  0  0  0
  -22.3440  -41.0400   -5.1691 C   0  0  0  0  0  0  0  0  0  0  0  0
  -23.5418  -41.7153   -4.8446 O   0  0  0  0  0  0  0  0  0  0  0  0
  1  2  1  0
  2  3  2  0
  3  4  1  0
  4  5  2  0
  5  6  1  0
  6  7  2  0
  6  8  1  0
  8  9  1  0
  9 10  1  0
 10 11  1  0
 11 12  1  0
 12 13  1  0
 13 14  1  0
 14 15  2  0
 15 16  1  0
 17 16  1  1
 17 18  1  0
 18 19  1  0
 19 20  2  0
 17 21  1  0
 21 22  1  6
 21 23  1  0
 23 24  1  0
 24 25  1  0
 25 26  1  0
 25 27  1  0
 25 28  1  0
 28 29  1  0
 29 30  2  0
 30 31  1  0
 31 32  1  0
 32 33  1  0
 32 34  1  0
 32 35  1  0
 30 36  1  0
 36 37  1  0
 15 38  1  0
 38 39  2  0
 39 40  1  0
 39 41  1  0
 41 42  1  0
  7  2  1  0
 19  4  1  0
 37 28  2  0
 41 13  2  0
M  END
$$$$
