
     RDKit          3D

 42 45  0  0  0  0  0  0  0  0999 V2000
  -21.0507  -40.3311   -2.7183 C   0  0  0  0  0  0  0  0  0  0  0  0
  -21.0334  -40.7827   -4.1339 C   0  0  0  0  0  0  0  0  0  0  0  0
  -19.8832  -40.7864   -4.8869 C   0  0  0  0  0  0  0  0  0  0  0  0
  -19.8109  -41.2071   -6.2430 C   0  0  0  0  0  0  0  0  0  0  0  0
  -20.9503  -41.6345   -6.8310 C   0  0  0  0  0  0  0  0  0  0  0  0
  -22.1426  -41.6375   -6.0769 C   0  0  0  0  0  0  0  0  0  0  0  0
  -22.1024  -41.2124   -4.7823 N   0  0  0  0  0  0  0  0  0  0  0  0
  -23.3830  -42.0201   -6.4716 O   0  0  0  0  0  0  0  0  0  0  0  0
  -24.6161  -41.7852   -6.8889 C   0  0  0  0  0  0  0  0  0  0  0  0
  -24.8164  -40.3102   -7.3429 C   0  0  0  0  0  0  0  0  0  0  0  0
  -23.4802  -39.7327   -7.6269 C   0  0  0  0  0  0  0  0  0  0  0  0
  -23.4832  -38.7134   -8.7441 C   0  0  0  0  0  0  0  0  0  0  0  0
  -22.2895  -38.9819   -9.6589 C   0  0  0  0  0  0  0  0  0  0  0  0
  -20.9639  -39.0880   -9.2965 C   0  0  0  0  0  0  0  0  0  0  0  0
  -20.0724  -39.5022  -10.2657 C   0  0  0  0  0  0  0  0  0  0  0  0
  -18.6225  -39.8157  -10.1713 C   0  0  0  0  0  0  0  0  0  0  0  0
  -18.2773  -41.0151   -9.3006 C   0  0  2  0  0  0  0  0  0  0  0  0
  -17.8742  -40.6576   -7.9638 N   0  0  0  0  0  0  0  0  0  0  0  0
  -18.4346  -41.0610   -6.7374 C   0  0  0  0  0  0  0  0  0  0  0  0
  -17.4505  -41.3538   -5.8982 O   0  0  0  0  0  0  0  0  0  0  0  0
  -17.0360  -41.6518   -9.9553 C   0  0  2  0  0  0  0  0  0  0  0  0
  -17.4519  -42.9194  -10.3544 O   0  0  0  0  0  0  0  0  0  0  0  0
  -15.8872  -41.6952   -9.0067 C   0  0  0  0  0  0  0  0  0  0  0  0
  -14.5940  -41.5414   -9.5513 N   0  0  0  0  0  0  0  0  0  0  0  0
  -13.8940  -40.3163   -9.2657 C   0  0  0  0  0  0  0  0  0  0  0  0
  -12.6359  -40.1945  -10.1160 C   0  0  0  0  0  0  0  0  0  0  0  0
  -13.5334  -40.0967   -7.8383 C   0  0  0  0  0  0  0  0  0  0  0  0
  -14.7826  -39.1896   -9.7262 C   0  0  0  0  0  0  0  0  0  0  0  0
  -15.0768  -38.0275   -9.0818 C   0  0  0  0  0  0  0  0  0  0  0  0
  -15.9529  -37.2985   -9.9011 C   0  0  0  0  0  0  0  0  0  0  0  0
  -16.5258  -35.9740   -9.5870 C   0  0  0  0  0  0  0  0  0  0  0  0
  -16.2661  -34.9412  -10.6611 C   0  0  0  0  0  0  0  0  0  0  0  0
  -14.8768  -35.0923  -11.2285 C   0  0  0  0  0  0  0  0  0  0  0  0
  -16.3765  -33.5666  -10.0294 C   0  0  0  0  0  0  0  0  0  0  0  0
  -17.3043  -35.0273  -11.7644 C   0  0  0  0  0  0  0  0  0  0  0  0
  -16.1361  -38.0398  -10.9685 O   0  0  0  0  0  0  0  0  0  0  0  0
  -15.4739  -39.1400  -10.8998 N   0  0  0  0  0  0  0  0  0  0  0  0
  -20.5589  -39.7820  -11.5677 C   0  0  0  0  0  0  0  0  0  0  0  0
  -21.8657  -39.6748  -11.9466 C   0  0  0  0  0  0  0  0  0  0  0  0
  -22.4236  -40.0246  -13.5640 Cl  0  0  0  0  0  0  0  0  0  0  0  0
  -22.7240  -39.2668  -10.9552 C   0  0  0  0  0  0  0  0  0  0  0  0
  -24.0879  -39.1425  -11.3020 O   0  0  0  0  0  0  0  0  0  0  0  0
  1  2  1  0
  2  3  2  0
  3  4  1  0
  4  5  2  0
  5  6  1  0
  6  7  2  0
  6  8  1  0
  8  9  1  0
  9 10  1  0
 10 11  1  0
 11 12  1  0
 12 13  1  0
 13 14  1  0
 14 15  2  0
 15 16  1  0
 17 16  1  6
 17 18  1  0
 18 19  1  0
 19 20  2  0
 17 21  1  0
 21 22  1  1
 21 23  1  0
 23 24  1  0
 24 25  1  0
 25 26  1  0
 25 27  1  0
 25 28  1  0
 28 29  1  0
 29 30  2  0
 30 31  1  0
 31 32  1  0
 32 33  1  0
 32 34  1  0
 32 35  1  0
 30 36  1  0
 36 37  1  0
 15 38  1  0
 38 39  2  0
 39 40  1  0
 39 41  1  0
 41 42  1  0
  7  2  1  0
 19  4  1  0
 37 28  2  0
 41 13  2  0
M  END
$$$$
