
     RDKit          3D

 42 45  0  0  0  0  0  0  0  0999 V2000
  -17.7419  -45.9936   -5.4393 C   0  0  0  0  0  0  0  0  0  0  0  0
  -18.4317  -44.9059   -6.1805 C   0  0  0  0  0  0  0  0  0  0  0  0
  -17.8286  -43.6970   -6.4349 C   0  0  0  0  0  0  0  0  0  0  0  0
  -18.4420  -42.6242   -7.1378 C   0  0  0  0  0  0  0  0  0  0  0  0
  -19.7033  -42.8064   -7.5883 C   0  0  0  0  0  0  0  0  0  0  0  0
  -20.3416  -44.0390   -7.3367 C   0  0  0  0  0  0  0  0  0  0  0  0
  -19.6632  -45.0027   -6.6516 N   0  0  0  0  0  0  0  0  0  0  0  0
  -21.5926  -44.4234   -7.6946 O   0  0  0  0  0  0  0  0  0  0  0  0
  -22.8743  -44.6479   -7.4563 C   0  0  0  0  0  0  0  0  0  0  0  0
  -23.3389  -44.0430   -6.0999 C   0  0  0  0  0  0  0  0  0  0  0  0
  -22.3605  -43.0013   -5.7036 C   0  0  0  0  0  0  0  0  0  0  0  0
  -22.9758  -41.8453   -4.9473 C   0  0  0  0  0  0  0  0  0  0  0  0
  -22.4071  -40.5384   -5.4973 C   0  0  0  0  0  0  0  0  0  0  0  0
  -21.0794  -40.1927   -5.6292 C   0  0  0  0  0  0  0  0  0  0  0  0
  -20.7920  -39.0259   -6.3087 C   0  0  0  0  0  0  0  0  0  0  0  0
  -19.4859  -38.4401   -6.7091 C   0  0  0  0  0  0  0  0  0  0  0  0
  -18.6953  -39.2575   -7.7204 C   0  0  2  0  0  0  0  0  0  0  0  0
  -17.6809  -40.0876   -7.1209 N   0  0  0  0  0  0  0  0  0  0  0  0
  -17.5189  -41.4829   -7.2095 C   0  0  0  0  0  0  0  0  0  0  0  0
  -16.2331  -41.7488   -7.3950 O   0  0  0  0  0  0  0  0  0  0  0  0
  -17.9377  -38.2252   -8.5778 C   0  0  2  0  0  0  0  0  0  0  0  0
  -18.9258  -37.5783   -9.3158 O   0  0  0  0  0  0  0  0  0  0  0  0
  -16.9150  -38.8842   -9.4387 C   0  0  0  0  0  0  0  0  0  0  0  0
  -15.5636  -38.5476   -9.2087 N   0  0  0  0  0  0  0  0  0  0  0  0
  -14.6686  -38.5839  -10.3356 C   0  0  0  0  0  0  0  0  0  0  0  0
  -13.5861  -37.5196  -10.2085 C   0  0  0  0  0  0  0  0  0  0  0  0
  -15.3098  -38.4609  -11.6733 C   0  0  0  0  0  0  0  0  0  0  0  0
  -13.9311  -39.8961  -10.2638 C   0  0  0  0  0  0  0  0  0  0  0  0
  -13.6013  -40.7374  -11.2815 C   0  0  0  0  0  0  0  0  0  0  0  0
  -12.9276  -41.8349  -10.7230 C   0  0  0  0  0  0  0  0  0  0  0  0
  -12.3915  -42.9895  -11.4719 C   0  0  0  0  0  0  0  0  0  0  0  0
  -10.9080  -43.1989  -11.2642 C   0  0  0  0  0  0  0  0  0  0  0  0
  -10.1202  -42.0229  -11.7849 C   0  0  0  0  0  0  0  0  0  0  0  0
  -10.4931  -44.4332  -12.0422 C   0  0  0  0  0  0  0  0  0  0  0  0
  -10.5906  -43.4468   -9.8012 C   0  0  0  0  0  0  0  0  0  0  0  0
  -12.8876  -41.6039   -9.4318 O   0  0  0  0  0  0  0  0  0  0  0  0
  -13.4587  -40.4913   -9.1323 N   0  0  0  0  0  0  0  0  0  0  0  0
  -21.8634  -38.2497   -6.8185 C   0  0  0  0  0  0  0  0  0  0  0  0
  -23.1835  -38.5721   -6.6907 C   0  0  0  0  0  0  0  0  0  0  0  0
  -24.4745  -37.5848   -7.3298 Cl  0  0  0  0  0  0  0  0  0  0  0  0
  -23.4307  -39.7418   -6.0150 C   0  0  0  0  0  0  0  0  0  0  0  0
  -24.7842  -40.1159   -5.8592 O   0  0  0  0  0  0  0  0  0  0  0  0
  1  2  1  0
  2  3  2  0
  3  4  1  0
  4  5  2  0
  5  6  1  0
  6  7  2  0
  6  8  1  0
  8  9  1  0
  9 10  1  0
 10 11  1  0
 11 12  1  0
 12 13  1  0
 13 14  1  0
 14 15  2  0
 15 16  1  0
 17 16  1  1
 17 18  1  0
 18 19  1  0
 19 20  2  0
 17 21  1  0
 21 22  1  6
 21 23  1  0
 23 24  1  0
 24 25  1  0
 25 26  1  0
 25 27  1  0
 25 28  1  0
 28 29  1  0
 29 30  2  0
 30 31  1  0
 31 32  1  0
 32 33  1  0
 32 34  1  0
 32 35  1  0
 30 36  1  0
 36 37  1  0
 15 38  1  0
 38 39  2  0
 39 40  1  0
 39 41  1  0
 41 42  1  0
  7  2  1  0
 19  4  1  0
 37 28  2  0
 41 13  2  0
M  END
$$$$
