
     RDKit          3D

 42 45  0  0  0  0  0  0  0  0999 V2000
  -18.3640  -47.3082   -6.2763 C   0  0  0  0  0  0  0  0  0  0  0  0
  -18.9887  -46.0566   -6.7781 C   0  0  0  0  0  0  0  0  0  0  0  0
  -18.2899  -44.8765   -6.8718 C   0  0  0  0  0  0  0  0  0  0  0  0
  -18.8378  -43.6525   -7.3438 C   0  0  0  0  0  0  0  0  0  0  0  0
  -20.1335  -43.6498   -7.7286 C   0  0  0  0  0  0  0  0  0  0  0  0
  -20.8697  -44.8498   -7.6392 C   0  0  0  0  0  0  0  0  0  0  0  0
  -20.2479  -45.9691   -7.1713 N   0  0  0  0  0  0  0  0  0  0  0  0
  -22.1691  -45.0623   -7.9669 O   0  0  0  0  0  0  0  0  0  0  0  0
  -23.4511  -45.2168   -7.6796 C   0  0  0  0  0  0  0  0  0  0  0  0
  -23.7814  -44.8150   -6.2129 C   0  0  0  0  0  0  0  0  0  0  0  0
  -22.6893  -43.9409   -5.7201 C   0  0  0  0  0  0  0  0  0  0  0  0
  -23.1510  -42.8834   -4.7425 C   0  0  0  0  0  0  0  0  0  0  0  0
  -22.4934  -41.5539   -5.1085 C   0  0  0  0  0  0  0  0  0  0  0  0
  -21.1485  -41.3024   -5.2744 C   0  0  0  0  0  0  0  0  0  0  0  0
  -20.7909  -40.0650   -5.7711 C   0  0  0  0  0  0  0  0  0  0  0  0
  -19.4597  -39.5302   -6.1602 C   0  0  0  0  0  0  0  0  0  0  0  0
  -18.8061  -40.2265   -7.3451 C   0  0  2  0  0  0  0  0  0  0  0  0
  -17.8425  -41.2279   -6.9630 N   0  0  0  0  0  0  0  0  0  0  0  0
  -17.8172  -42.5963   -7.2912 C   0  0  0  0  0  0  0  0  0  0  0  0
  -16.5742  -42.9328   -7.6075 O   0  0  0  0  0  0  0  0  0  0  0  0
  -18.0036  -39.1299   -8.0718 C   0  0  2  0  0  0  0  0  0  0  0  0
  -18.9625  -38.3491   -8.7122 O   0  0  0  0  0  0  0  0  0  0  0  0
  -17.0164  -39.7210   -9.0193 C   0  0  0  0  0  0  0  0  0  0  0  0
  -15.9014  -38.9286   -9.3675 N   0  0  0  0  0  0  0  0  0  0  0  0
  -14.7001  -39.6120   -9.7703 C   0  0  0  0  0  0  0  0  0  0  0  0
  -15.0268  -40.8644  -10.5737 C   0  0  0  0  0  0  0  0  0  0  0  0
  -13.7650  -39.9757   -8.6708 C   0  0  0  0  0  0  0  0  0  0  0  0
  -13.9877  -38.7051  -10.7404 C   0  0  0  0  0  0  0  0  0  0  0  0
  -14.5278  -37.8432  -11.6447 C   0  0  0  0  0  0  0  0  0  0  0  0
  -13.4680  -37.2253  -12.3268 C   0  0  0  0  0  0  0  0  0  0  0  0
  -13.6031  -36.2164  -13.3969 C   0  0  0  0  0  0  0  0  0  0  0  0
  -12.3756  -35.3473  -13.5565 C   0  0  0  0  0  0  0  0  0  0  0  0
  -11.1562  -36.1861  -13.8470 C   0  0  0  0  0  0  0  0  0  0  0  0
  -12.1475  -34.6100  -12.2507 C   0  0  0  0  0  0  0  0  0  0  0  0
  -12.5790  -34.3087  -14.6440 C   0  0  0  0  0  0  0  0  0  0  0  0
  -12.3733  -37.7336  -11.8115 O   0  0  0  0  0  0  0  0  0  0  0  0
  -12.6378  -38.5924  -10.8917 N   0  0  0  0  0  0  0  0  0  0  0  0
  -21.8113  -39.1270   -6.0698 C   0  0  0  0  0  0  0  0  0  0  0  0
  -23.1467  -39.3555   -5.9046 C   0  0  0  0  0  0  0  0  0  0  0  0
  -24.3727  -38.1700   -6.2804 Cl  0  0  0  0  0  0  0  0  0  0  0  0
  -23.4649  -40.5985   -5.4150 C   0  0  0  0  0  0  0  0  0  0  0  0
  -24.8368  -40.8798   -5.2284 O   0  0  0  0  0  0  0  0  0  0  0  0
  1  2  1  0
  2  3  2  0
  3  4  1  0
  4  5  2  0
  5  6  1  0
  6  7  2  0
  6  8  1  0
  8  9  1  0
  9 10  1  0
 10 11  1  0
 11 12  1  0
 12 13  1  0
 13 14  1  0
 14 15  2  0
 15 16  1  0
 17 16  1  1
 17 18  1  0
 18 19  1  0
 19 20  2  0
 17 21  1  0
 21 22  1  6
 21 23  1  0
 23 24  1  0
 24 25  1  0
 25 26  1  0
 25 27  1  0
 25 28  1  0
 28 29  1  0
 29 30  2  0
 30 31  1  0
 31 32  1  0
 32 33  1  0
 32 34  1  0
 32 35  1  0
 30 36  1  0
 36 37  1  0
 15 38  1  0
 38 39  2  0
 39 40  1  0
 39 41  1  0
 41 42  1  0
  7  2  1  0
 19  4  1  0
 37 28  2  0
 41 13  2  0
M  END
$$$$
