
     RDKit          3D

 42 45  0  0  0  0  0  0  0  0999 V2000
  -19.2033  -46.6287   -6.4557 C   0  0  0  0  0  0  0  0  0  0  0  0
  -19.5359  -45.2431   -6.8774 C   0  0  0  0  0  0  0  0  0  0  0  0
  -18.6106  -44.2268   -6.8467 C   0  0  0  0  0  0  0  0  0  0  0  0
  -18.8753  -42.8859   -7.2379 C   0  0  0  0  0  0  0  0  0  0  0  0
  -20.1210  -42.5909   -7.6715 C   0  0  0  0  0  0  0  0  0  0  0  0
  -21.0867  -43.6186   -7.7096 C   0  0  0  0  0  0  0  0  0  0  0  0
  -20.7285  -44.8721   -7.3110 N   0  0  0  0  0  0  0  0  0  0  0  0
  -22.3823  -43.5372   -8.1041 O   0  0  0  0  0  0  0  0  0  0  0  0
  -23.6830  -43.4470   -7.8807 C   0  0  0  0  0  0  0  0  0  0  0  0
  -24.0061  -43.0933   -6.4001 C   0  0  0  0  0  0  0  0  0  0  0  0
  -22.7896  -42.4986   -5.7951 C   0  0  0  0  0  0  0  0  0  0  0  0
  -23.0828  -41.4426   -4.7530 C   0  0  0  0  0  0  0  0  0  0  0  0
  -22.1530  -40.2524   -4.9829 C   0  0  0  0  0  0  0  0  0  0  0  0
  -20.7778  -40.2694   -5.0749 C   0  0  0  0  0  0  0  0  0  0  0  0
  -20.1528  -39.0985   -5.4542 C   0  0  0  0  0  0  0  0  0  0  0  0
  -18.7221  -38.8201   -5.7459 C   0  0  0  0  0  0  0  0  0  0  0  0
  -18.1573  -39.5476   -6.9574 C   0  0  2  0  0  0  0  0  0  0  0  0
  -17.4365  -40.7496   -6.6212 N   0  0  0  0  0  0  0  0  0  0  0  0
  -17.6681  -42.0669   -7.0591 C   0  0  0  0  0  0  0  0  0  0  0  0
  -16.5023  -42.6263   -7.3532 O   0  0  0  0  0  0  0  0  0  0  0  0
  -17.1126  -38.5884   -7.5599 C   0  0  2  0  0  0  0  0  0  0  0  0
  -17.8278  -37.4389   -7.8862 O   0  0  0  0  0  0  0  0  0  0  0  0
  -16.4353  -39.1987   -8.7390 C   0  0  0  0  0  0  0  0  0  0  0  0
  -15.1305  -39.7013   -8.5454 N   0  0  0  0  0  0  0  0  0  0  0  0
  -14.6223  -40.6258   -9.5249 C   0  0  0  0  0  0  0  0  0  0  0  0
  -15.7595  -41.3283  -10.2556 C   0  0  0  0  0  0  0  0  0  0  0  0
  -13.6730  -41.6516   -9.0126 C   0  0  0  0  0  0  0  0  0  0  0  0
  -13.9323  -39.8037  -10.5827 C   0  0  0  0  0  0  0  0  0  0  0  0
  -14.4922  -39.0844  -11.5934 C   0  0  0  0  0  0  0  0  0  0  0  0
  -13.4481  -38.4965  -12.3244 C   0  0  0  0  0  0  0  0  0  0  0  0
  -13.6070  -37.6298  -13.5096 C   0  0  0  0  0  0  0  0  0  0  0  0
  -13.3764  -36.1647  -13.2131 C   0  0  0  0  0  0  0  0  0  0  0  0
  -14.4165  -35.6390  -12.2555 C   0  0  0  0  0  0  0  0  0  0  0  0
  -13.4950  -35.3961  -14.5153 C   0  0  0  0  0  0  0  0  0  0  0  0
  -11.9810  -35.9312  -12.6644 C   0  0  0  0  0  0  0  0  0  0  0  0
  -12.3424  -38.8820  -11.7317 O   0  0  0  0  0  0  0  0  0  0  0  0
  -12.5864  -39.6387  -10.7211 N   0  0  0  0  0  0  0  0  0  0  0  0
  -20.9464  -37.9529   -5.7147 C   0  0  0  0  0  0  0  0  0  0  0  0
  -22.3075  -37.9152   -5.6211 C   0  0  0  0  0  0  0  0  0  0  0  0
  -23.2485  -36.4804   -5.9462 Cl  0  0  0  0  0  0  0  0  0  0  0  0
  -22.8949  -39.0992   -5.2478 C   0  0  0  0  0  0  0  0  0  0  0  0
  -24.3034  -39.1072   -5.1386 O   0  0  0  0  0  0  0  0  0  0  0  0
  1  2  1  0
  2  3  2  0
  3  4  1  0
  4  5  2  0
  5  6  1  0
  6  7  2  0
  6  8  1  0
  8  9  1  0
  9 10  1  0
 10 11  1  0
 11 12  1  0
 12 13  1  0
 13 14  1  0
 14 15  2  0
 15 16  1  0
 17 16  1  1
 17 18  1  0
 18 19  1  0
 19 20  2  0
 17 21  1  0
 21 22  1  6
 21 23  1  0
 23 24  1  0
 24 25  1  0
 25 26  1  0
 25 27  1  0
 25 28  1  0
 28 29  1  0
 29 30  2  0
 30 31  1  0
 31 32  1  0
 32 33  1  0
 32 34  1  0
 32 35  1  0
 30 36  1  0
 36 37  1  0
 15 38  1  0
 38 39  2  0
 39 40  1  0
 39 41  1  0
 41 42  1  0
  7  2  1  0
 19  4  1  0
 37 28  2  0
 41 13  2  0
M  END
$$$$
