
     RDKit          3D

 34 35  0  0  0  0  0  0  0  0999 V2000
  -12.1704  -33.8795  -14.0198 C   0  0  0  0  0  0  0  0  0  0  0  0
  -12.7975  -35.2114  -13.7736 C   0  0  0  0  0  0  0  0  0  0  0  0
  -12.8527  -35.5988  -12.3241 C   0  0  0  0  0  0  0  0  0  0  0  0
  -13.4824  -36.9514  -12.2305 C   0  0  0  0  0  0  0  0  0  0  0  0
  -13.6807  -37.6888  -11.0830 C   0  0  0  0  0  0  0  0  0  0  0  0
  -14.2828  -38.8552  -11.4558 C   0  0  0  0  0  0  0  0  0  0  0  0
  -14.7138  -40.0048  -10.5911 C   0  0  0  0  0  0  0  0  0  0  0  0
  -14.5793  -39.6256   -9.1978 N   0  0  0  0  0  0  0  0  0  0  0  0
  -15.5166  -40.3286   -8.3779 C   0  0  0  0  0  0  0  0  0  0  0  0
  -16.9035  -39.8333   -8.5095 C   0  0  1  0  0  0  0  0  0  0  0  0
  -17.1279  -39.3248   -9.7891 O   0  0  0  0  0  0  0  0  0  0  0  0
  -17.9978  -40.7112   -8.0179 C   0  0  2  0  0  0  0  0  0  0  0  0
  -19.3861  -40.2384   -8.0973 C   0  0  0  0  0  0  0  0  0  0  0  0
  -19.7371  -38.8540   -7.7579 C   0  0  2  0  0  0  0  0  0  0  0  0
  -19.7125  -38.4829   -6.2975 C   0  0  0  0  0  0  0  0  0  0  0  0
  -21.2264  -38.7074   -8.1598 C   0  0  0  0  0  0  0  0  0  0  0  0
  -22.0182  -39.8715   -7.6053 C   0  0  0  0  0  0  0  0  0  0  0  0
  -23.4897  -39.5487   -7.4703 C   0  0  0  0  0  0  0  0  0  0  0  0
  -24.0289  -40.3563   -6.2882 C   0  0  0  0  0  0  0  0  0  0  0  0
  -24.8226  -41.5465   -6.7133 C   0  0  0  0  0  0  0  0  0  0  0  0
  -24.1099  -42.8668   -6.4961 C   0  0  0  0  0  0  0  0  0  0  0  0
  -22.9126  -42.9698   -7.1543 O   0  0  0  0  0  0  0  0  0  0  0  0
  -22.0340  -43.8578   -6.5390 C   0  0  0  0  0  0  0  0  0  0  0  0
  -20.7497  -43.9173   -7.2624 C   0  0  0  0  0  0  0  0  0  0  0  0
  -20.7719  -44.3318   -8.4503 O   0  0  0  0  0  0  0  0  0  0  0  0
  -19.5081  -43.5406   -6.7072 N   0  0  0  0  0  0  0  0  0  0  0  0
  -18.2634  -44.0666   -7.2305 C   0  0  0  0  0  0  0  0  0  0  0  0
  -19.4774  -42.6157   -5.5982 C   0  0  1  0  0  0  0  0  0  0  0  0
  -19.3890  -43.4993   -4.3425 C   0  0  0  0  0  0  0  0  0  0  0  0
  -18.3478  -41.6550   -5.6419 C   0  0  0  0  0  0  0  0  0  0  0  0
  -18.0644  -41.1325   -4.4983 O   0  0  0  0  0  0  0  0  0  0  0  0
  -17.5802  -41.2648   -6.7463 N   0  0  0  0  0  0  0  0  0  0  0  0
  -14.4334  -38.8004  -12.7945 N   0  0  0  0  0  0  0  0  0  0  0  0
  -13.9601  -37.6710  -13.2658 N   0  0  0  0  0  0  0  0  0  0  0  0
  1  2  1  0
  2  3  1  0
  3  4  1  0
  4  5  2  0
  5  6  1  0
  6  7  1  0
  7  8  1  0
  8  9  1  0
  9 10  1  0
 10 11  1  6
 10 12  1  0
 12 13  1  1
 13 14  1  0
 14 15  1  1
 14 16  1  0
 16 17  1  0
 17 18  1  0
 18 19  1  0
 19 20  1  0
 20 21  1  0
 21 22  1  0
 22 23  1  0
 23 24  1  0
 24 25  2  0
 24 26  1  0
 26 27  1  0
 26 28  1  0
 28 29  1  1
 28 30  1  0
 30 31  2  0
 30 32  1  0
  6 33  2  0
 33 34  1  0
 32 12  1  0
 34  4  1  0
M  END
$$$$
