
     RDKit          3D

 34 35  0  0  0  0  0  0  0  0999 V2000
  -25.4048  -42.8438   -5.6624 C   0  0  0  0  0  0  0  0  0  0  0  0
  -24.1366  -42.0717   -5.5098 C   0  0  0  0  0  0  0  0  0  0  0  0
  -22.9304  -42.7662   -6.0728 C   0  0  0  0  0  0  0  0  0  0  0  0
  -21.7318  -41.9225   -5.7792 C   0  0  0  0  0  0  0  0  0  0  0  0
  -21.4278  -40.7013   -6.3413 C   0  0  0  0  0  0  0  0  0  0  0  0
  -20.2496  -40.2890   -5.7901 C   0  0  0  0  0  0  0  0  0  0  0  0
  -19.4811  -39.0270   -6.0580 C   0  0  0  0  0  0  0  0  0  0  0  0
  -20.0086  -38.3961   -7.2526 N   0  0  0  0  0  0  0  0  0  0  0  0
  -19.0419  -37.5266   -7.8478 C   0  0  0  0  0  0  0  0  0  0  0  0
  -17.6444  -37.9014   -7.5432 C   0  0  1  0  0  0  0  0  0  0  0  0
  -17.5157  -38.2893   -6.2093 O   0  0  0  0  0  0  0  0  0  0  0  0
  -16.9513  -38.8080   -8.4958 C   0  0  2  0  0  0  0  0  0  0  0  0
  -15.8899  -38.2682   -9.3555 C   0  0  0  0  0  0  0  0  0  0  0  0
  -16.0321  -36.9602  -10.0065 C   0  0  2  0  0  0  0  0  0  0  0  0
  -16.9904  -36.8765  -11.1666 C   0  0  0  0  0  0  0  0  0  0  0  0
  -14.6469  -36.6740  -10.6393 C   0  0  0  0  0  0  0  0  0  0  0  0
  -14.1848  -37.8866  -11.4174 C   0  0  0  0  0  0  0  0  0  0  0  0
  -13.1648  -37.5312  -12.4762 C   0  0  0  0  0  0  0  0  0  0  0  0
  -13.3338  -38.5253  -13.6266 C   0  0  0  0  0  0  0  0  0  0  0  0
  -12.2742  -39.5762  -13.6449 C   0  0  0  0  0  0  0  0  0  0  0  0
  -12.7609  -40.9437  -13.2075 C   0  0  0  0  0  0  0  0  0  0  0  0
  -13.2840  -40.9716  -11.9414 O   0  0  0  0  0  0  0  0  0  0  0  0
  -14.2070  -41.9986  -11.7621 C   0  0  0  0  0  0  0  0  0  0  0  0
  -14.7653  -41.9752  -10.3968 C   0  0  0  0  0  0  0  0  0  0  0  0
  -13.9670  -42.1536   -9.4407 O   0  0  0  0  0  0  0  0  0  0  0  0
  -16.1294  -41.7666  -10.1008 N   0  0  0  0  0  0  0  0  0  0  0  0
  -16.7063  -42.2371   -8.8575 C   0  0  0  0  0  0  0  0  0  0  0  0
  -16.9648  -41.0730  -11.0534 C   0  0  1  0  0  0  0  0  0  0  0  0
  -17.6574  -42.1834  -11.8612 C   0  0  0  0  0  0  0  0  0  0  0  0
  -17.9688  -40.1724  -10.4355 C   0  0  0  0  0  0  0  0  0  0  0  0
  -18.9612  -39.8911  -11.2082 O   0  0  0  0  0  0  0  0  0  0  0  0
  -17.9615  -39.6124   -9.1519 N   0  0  0  0  0  0  0  0  0  0  0  0
  -19.8726  -41.2503   -4.9230 N   0  0  0  0  0  0  0  0  0  0  0  0
  -20.7482  -42.2274   -4.9089 N   0  0  0  0  0  0  0  0  0  0  0  0
  1  2  1  0
  2  3  1  0
  3  4  1  0
  4  5  2  0
  5  6  1  0
  6  7  1  0
  7  8  1  0
  8  9  1  0
  9 10  1  0
 10 11  1  1
 10 12  1  0
 12 13  1  6
 13 14  1  0
 14 15  1  6
 14 16  1  0
 16 17  1  0
 17 18  1  0
 18 19  1  0
 19 20  1  0
 20 21  1  0
 21 22  1  0
 22 23  1  0
 23 24  1  0
 24 25  2  0
 24 26  1  0
 26 27  1  0
 26 28  1  0
 28 29  1  1
 28 30  1  0
 30 31  2  0
 30 32  1  0
  6 33  2  0
 33 34  1  0
 32 12  1  0
 34  4  1  0
M  END
$$$$
