
     RDKit          3D

 34 35  0  0  0  0  0  0  0  0999 V2000
  -12.7000  -35.8120  -15.3492 C   0  0  0  0  0  0  0  0  0  0  0  0
  -12.6619  -36.2636  -13.9271 C   0  0  0  0  0  0  0  0  0  0  0  0
  -13.8939  -37.0023  -13.4904 C   0  0  0  0  0  0  0  0  0  0  0  0
  -13.6868  -37.4546  -12.0808 C   0  0  0  0  0  0  0  0  0  0  0  0
  -13.6093  -38.7575  -11.6378 C   0  0  0  0  0  0  0  0  0  0  0  0
  -13.4168  -38.7107  -10.2878 C   0  0  0  0  0  0  0  0  0  0  0  0
  -13.2665  -39.8515   -9.3230 C   0  0  0  0  0  0  0  0  0  0  0  0
  -14.4430  -39.9145   -8.4773 N   0  0  0  0  0  0  0  0  0  0  0  0
  -15.5449  -40.5090   -9.1680 C   0  0  0  0  0  0  0  0  0  0  0  0
  -16.8575  -39.9551   -8.7723 C   0  0  1  0  0  0  0  0  0  0  0  0
  -17.3466  -39.0924   -9.7535 O   0  0  0  0  0  0  0  0  0  0  0  0
  -17.8770  -40.9041   -8.2528 C   0  0  2  0  0  0  0  0  0  0  0  0
  -19.2091  -40.3996   -7.8948 C   0  0  0  0  0  0  0  0  0  0  0  0
  -19.3719  -39.1306   -7.1750 C   0  0  2  0  0  0  0  0  0  0  0  0
  -18.9952  -39.1212   -5.7159 C   0  0  0  0  0  0  0  0  0  0  0  0
  -20.8982  -38.8632   -7.1729 C   0  0  0  0  0  0  0  0  0  0  0  0
  -21.6308  -40.1109   -6.7302 C   0  0  0  0  0  0  0  0  0  0  0  0
  -23.0072  -39.8016   -6.1846 C   0  0  0  0  0  0  0  0  0  0  0  0
  -23.3282  -40.8587   -5.1264 C   0  0  0  0  0  0  0  0  0  0  0  0
  -24.2828  -41.8967   -5.6149 C   0  0  0  0  0  0  0  0  0  0  0  0
  -23.6398  -43.2440   -5.8786 C   0  0  0  0  0  0  0  0  0  0  0  0
  -22.6300  -43.2091   -6.8042 O   0  0  0  0  0  0  0  0  0  0  0  0
  -21.7050  -44.2355   -6.6317 C   0  0  0  0  0  0  0  0  0  0  0  0
  -20.6220  -44.1443   -7.6292 C   0  0  0  0  0  0  0  0  0  0  0  0
  -20.9389  -44.2613   -8.8414 O   0  0  0  0  0  0  0  0  0  0  0  0
  -19.2635  -43.9358   -7.3087 N   0  0  0  0  0  0  0  0  0  0  0  0
  -18.2091  -44.3447   -8.2149 C   0  0  0  0  0  0  0  0  0  0  0  0
  -18.9181  -43.3047   -6.0563 C   0  0  1  0  0  0  0  0  0  0  0  0
  -18.6182  -44.4654   -5.0928 C   0  0  0  0  0  0  0  0  0  0  0  0
  -17.7583  -42.3836   -6.1418 C   0  0  0  0  0  0  0  0  0  0  0  0
  -17.1894  -42.1562   -5.0079 O   0  0  0  0  0  0  0  0  0  0  0  0
  -17.2291  -41.7546   -7.2756 N   0  0  0  0  0  0  0  0  0  0  0  0
  -13.3825  -37.4062   -9.9485 N   0  0  0  0  0  0  0  0  0  0  0  0
  -13.5423  -36.6498  -11.0087 N   0  0  0  0  0  0  0  0  0  0  0  0
  1  2  1  0
  2  3  1  0
  3  4  1  0
  4  5  2  0
  5  6  1  0
  6  7  1  0
  7  8  1  0
  8  9  1  0
  9 10  1  0
 10 11  1  6
 10 12  1  0
 12 13  1  1
 13 14  1  0
 14 15  1  1
 14 16  1  0
 16 17  1  0
 17 18  1  0
 18 19  1  0
 19 20  1  0
 20 21  1  0
 21 22  1  0
 22 23  1  0
 23 24  1  0
 24 25  2  0
 24 26  1  0
 26 27  1  0
 26 28  1  0
 28 29  1  1
 28 30  1  0
 30 31  2  0
 30 32  1  0
  6 33  2  0
 33 34  1  0
 32 12  1  0
 34  4  1  0
M  END
$$$$
