
     RDKit          3D

 34 35  0  0  0  0  0  0  0  0999 V2000
  -12.7768  -35.4316  -15.2124 C   0  0  0  0  0  0  0  0  0  0  0  0
  -12.6882  -36.4185  -14.0961 C   0  0  0  0  0  0  0  0  0  0  0  0
  -13.9247  -37.2521  -13.9218 C   0  0  0  0  0  0  0  0  0  0  0  0
  -13.7162  -38.1480  -12.7435 C   0  0  0  0  0  0  0  0  0  0  0  0
  -13.3110  -37.7674  -11.4822 C   0  0  0  0  0  0  0  0  0  0  0  0
  -13.2512  -38.8992  -10.7224 C   0  0  0  0  0  0  0  0  0  0  0  0
  -12.8650  -39.0382   -9.2779 C   0  0  0  0  0  0  0  0  0  0  0  0
  -13.9528  -39.6692   -8.5556 N   0  0  0  0  0  0  0  0  0  0  0  0
  -15.2169  -39.3504   -9.1431 C   0  0  0  0  0  0  0  0  0  0  0  0
  -16.2993  -39.1695   -8.1521 C   0  0  1  0  0  0  0  0  0  0  0  0
  -16.7747  -37.8581   -8.1725 O   0  0  0  0  0  0  0  0  0  0  0  0
  -17.3773  -40.1925   -8.1154 C   0  0  2  0  0  0  0  0  0  0  0  0
  -18.7797  -39.7561   -8.1182 C   0  0  0  0  0  0  0  0  0  0  0  0
  -19.2205  -38.6130   -7.3095 C   0  0  2  0  0  0  0  0  0  0  0  0
  -19.3075  -38.8247   -5.8200 C   0  0  0  0  0  0  0  0  0  0  0  0
  -20.6867  -38.3576   -7.7410 C   0  0  0  0  0  0  0  0  0  0  0  0
  -21.4528  -39.6624   -7.7307 C   0  0  0  0  0  0  0  0  0  0  0  0
  -22.9442  -39.4480   -7.5989 C   0  0  0  0  0  0  0  0  0  0  0  0
  -23.5164  -40.6562   -6.8553 C   0  0  0  0  0  0  0  0  0  0  0  0
  -24.2209  -41.6126   -7.7588 C   0  0  0  0  0  0  0  0  0  0  0  0
  -23.4581  -42.9001   -8.0016 C   0  0  0  0  0  0  0  0  0  0  0  0
  -22.2177  -42.7184   -8.5545 O   0  0  0  0  0  0  0  0  0  0  0  0
  -21.3367  -43.7539   -8.2538 C   0  0  0  0  0  0  0  0  0  0  0  0
  -20.0076  -43.5053   -8.8435 C   0  0  0  0  0  0  0  0  0  0  0  0
  -19.9333  -43.4372  -10.0978 O   0  0  0  0  0  0  0  0  0  0  0  0
  -18.8243  -43.3406   -8.0923 N   0  0  0  0  0  0  0  0  0  0  0  0
  -17.5239  -43.6002   -8.6769 C   0  0  0  0  0  0  0  0  0  0  0  0
  -18.9106  -42.9065   -6.7174 C   0  0  1  0  0  0  0  0  0  0  0  0
  -18.8581  -44.1992   -5.8857 C   0  0  0  0  0  0  0  0  0  0  0  0
  -17.8300  -41.9766   -6.3068 C   0  0  0  0  0  0  0  0  0  0  0  0
  -17.6465  -41.9222   -5.0322 O   0  0  0  0  0  0  0  0  0  0  0  0
  -17.0143  -41.1787   -7.1186 N   0  0  0  0  0  0  0  0  0  0  0  0
  -13.6142  -39.9209  -11.5237 N   0  0  0  0  0  0  0  0  0  0  0  0
  -13.8932  -39.4845  -12.7293 N   0  0  0  0  0  0  0  0  0  0  0  0
  1  2  1  0
  2  3  1  0
  3  4  1  0
  4  5  2  0
  5  6  1  0
  6  7  1  0
  7  8  1  0
  8  9  1  0
  9 10  1  0
 10 11  1  6
 10 12  1  0
 12 13  1  1
 13 14  1  0
 14 15  1  1
 14 16  1  0
 16 17  1  0
 17 18  1  0
 18 19  1  0
 19 20  1  0
 20 21  1  0
 21 22  1  0
 22 23  1  0
 23 24  1  0
 24 25  2  0
 24 26  1  0
 26 27  1  0
 26 28  1  0
 28 29  1  1
 28 30  1  0
 30 31  2  0
 30 32  1  0
  6 33  2  0
 33 34  1  0
 32 12  1  0
 34  4  1  0
M  END
$$$$
