
     RDKit          3D

 34 35  0  0  0  0  0  0  0  0999 V2000
  -21.0144  -37.1104  -12.7672 C   0  0  0  0  0  0  0  0  0  0  0  0
  -20.9400  -37.5643  -11.3473 C   0  0  0  0  0  0  0  0  0  0  0  0
  -21.7939  -36.7632  -10.4074 C   0  0  0  0  0  0  0  0  0  0  0  0
  -21.3124  -37.0166   -9.0151 C   0  0  0  0  0  0  0  0  0  0  0  0
  -20.7729  -38.1893   -8.5319 C   0  0  0  0  0  0  0  0  0  0  0  0
  -20.4729  -37.9802   -7.2173 C   0  0  0  0  0  0  0  0  0  0  0  0
  -19.8656  -38.9365   -6.2316 C   0  0  0  0  0  0  0  0  0  0  0  0
  -18.7276  -39.5917   -6.8471 N   0  0  0  0  0  0  0  0  0  0  0  0
  -17.5000  -39.1623   -6.2527 C   0  0  0  0  0  0  0  0  0  0  0  0
  -16.3971  -39.0047   -7.2248 C   0  0  1  0  0  0  0  0  0  0  0  0
  -15.2994  -38.3814   -6.6309 O   0  0  0  0  0  0  0  0  0  0  0  0
  -16.0348  -40.1852   -8.0525 C   0  0  2  0  0  0  0  0  0  0  0  0
  -14.8854  -40.0968   -8.9625 C   0  0  0  0  0  0  0  0  0  0  0  0
  -14.6478  -38.8945   -9.7706 C   0  0  2  0  0  0  0  0  0  0  0  0
  -15.5696  -38.6663  -10.9407 C   0  0  0  0  0  0  0  0  0  0  0  0
  -13.2591  -39.1162  -10.4213 C   0  0  0  0  0  0  0  0  0  0  0  0
  -13.2037  -40.4958  -11.0403 C   0  0  0  0  0  0  0  0  0  0  0  0
  -12.1547  -40.5932  -12.1256 C   0  0  0  0  0  0  0  0  0  0  0  0
  -12.6464  -41.6209  -13.1465 C   0  0  0  0  0  0  0  0  0  0  0  0
  -11.9512  -42.9361  -13.0260 C   0  0  0  0  0  0  0  0  0  0  0  0
  -12.8125  -44.0310  -12.4282 C   0  0  0  0  0  0  0  0  0  0  0  0
  -13.2836  -43.7483  -11.1730 O   0  0  0  0  0  0  0  0  0  0  0  0
  -14.4663  -44.4209  -10.8771 C   0  0  0  0  0  0  0  0  0  0  0  0
  -14.9529  -44.0671   -9.5301 C   0  0  0  0  0  0  0  0  0  0  0  0
  -14.2177  -44.3614   -8.5522 O   0  0  0  0  0  0  0  0  0  0  0  0
  -16.1828  -43.4241   -9.2743 N   0  0  0  0  0  0  0  0  0  0  0  0
  -16.8385  -43.5467   -7.9877 C   0  0  0  0  0  0  0  0  0  0  0  0
  -16.7989  -42.6308  -10.3123 C   0  0  1  0  0  0  0  0  0  0  0  0
  -17.8151  -43.5700  -10.9836 C   0  0  0  0  0  0  0  0  0  0  0  0
  -17.4690  -41.4027   -9.8188 C   0  0  0  0  0  0  0  0  0  0  0  0
  -18.3532  -40.9308  -10.6292 O   0  0  0  0  0  0  0  0  0  0  0  0
  -17.2578  -40.7211   -8.6138 N   0  0  0  0  0  0  0  0  0  0  0  0
  -20.8299  -36.7104   -6.9378 N   0  0  0  0  0  0  0  0  0  0  0  0
  -21.3309  -36.1278   -8.0014 N   0  0  0  0  0  0  0  0  0  0  0  0
  1  2  1  0
  2  3  1  0
  3  4  1  0
  4  5  2  0
  5  6  1  0
  6  7  1  0
  7  8  1  0
  8  9  1  0
  9 10  1  0
 10 11  1  1
 10 12  1  0
 12 13  1  6
 13 14  1  0
 14 15  1  6
 14 16  1  0
 16 17  1  0
 17 18  1  0
 18 19  1  0
 19 20  1  0
 20 21  1  0
 21 22  1  0
 22 23  1  0
 23 24  1  0
 24 25  2  0
 24 26  1  0
 26 27  1  0
 26 28  1  0
 28 29  1  1
 28 30  1  0
 30 31  2  0
 30 32  1  0
  6 33  2  0
 33 34  1  0
 32 12  1  0
 34  4  1  0
M  END
$$$$
