
     RDKit          3D

 34 35  0  0  0  0  0  0  0  0999 V2000
  -11.4647  -34.8298  -13.8218 C   0  0  0  0  0  0  0  0  0  0  0  0
  -11.9223  -36.1924  -13.4196 C   0  0  0  0  0  0  0  0  0  0  0  0
  -12.4220  -36.2733  -12.0061 C   0  0  0  0  0  0  0  0  0  0  0  0
  -12.8160  -37.6896  -11.7352 C   0  0  0  0  0  0  0  0  0  0  0  0
  -13.3682  -38.1818  -10.5720 C   0  0  0  0  0  0  0  0  0  0  0  0
  -13.5677  -39.5188  -10.7581 C   0  0  0  0  0  0  0  0  0  0  0  0
  -14.1438  -40.5219   -9.8006 C   0  0  0  0  0  0  0  0  0  0  0  0
  -14.4435  -39.8603   -8.5453 N   0  0  0  0  0  0  0  0  0  0  0  0
  -15.4696  -38.8782   -8.7106 C   0  0  0  0  0  0  0  0  0  0  0  0
  -16.5833  -39.0207   -7.7484 C   0  0  1  0  0  0  0  0  0  0  0  0
  -17.1393  -37.7771   -7.4476 O   0  0  0  0  0  0  0  0  0  0  0  0
  -17.5957  -40.0753   -8.0182 C   0  0  2  0  0  0  0  0  0  0  0  0
  -19.0213  -39.7230   -7.9939 C   0  0  0  0  0  0  0  0  0  0  0  0
  -19.5661  -38.8344   -6.9602 C   0  0  2  0  0  0  0  0  0  0  0  0
  -19.7014  -39.4057   -5.5722 C   0  0  0  0  0  0  0  0  0  0  0  0
  -21.0262  -38.5567   -7.3984 C   0  0  0  0  0  0  0  0  0  0  0  0
  -21.7088  -39.8621   -7.7441 C   0  0  0  0  0  0  0  0  0  0  0  0
  -23.2149  -39.7621   -7.6475 C   0  0  0  0  0  0  0  0  0  0  0  0
  -23.7407  -41.1421   -7.2486 C   0  0  0  0  0  0  0  0  0  0  0  0
  -24.3457  -41.8850   -8.3929 C   0  0  0  0  0  0  0  0  0  0  0  0
  -23.4944  -43.0345   -8.8950 C   0  0  0  0  0  0  0  0  0  0  0  0
  -22.2458  -42.6613   -9.3184 O   0  0  0  0  0  0  0  0  0  0  0  0
  -21.3149  -43.6928   -9.2267 C   0  0  0  0  0  0  0  0  0  0  0  0
  -19.9807  -43.2412   -9.6649 C   0  0  0  0  0  0  0  0  0  0  0  0
  -19.8588  -42.8669  -10.8601 O   0  0  0  0  0  0  0  0  0  0  0  0
  -18.8422  -43.2040   -8.8317 N   0  0  0  0  0  0  0  0  0  0  0  0
  -17.5050  -43.2476   -9.3885 C   0  0  0  0  0  0  0  0  0  0  0  0
  -19.0126  -43.1218   -7.3998 C   0  0  1  0  0  0  0  0  0  0  0  0
  -18.9138  -44.5733   -6.9011 C   0  0  0  0  0  0  0  0  0  0  0  0
  -18.0104  -42.2659   -6.7187 C   0  0  0  0  0  0  0  0  0  0  0  0
  -17.8838  -42.5133   -5.4602 O   0  0  0  0  0  0  0  0  0  0  0  0
  -17.2133  -41.2543   -7.2688 N   0  0  0  0  0  0  0  0  0  0  0  0
  -13.1407  -39.8023  -12.0052 N   0  0  0  0  0  0  0  0  0  0  0  0
  -12.6912  -38.7202  -12.5956 N   0  0  0  0  0  0  0  0  0  0  0  0
  1  2  1  0
  2  3  1  0
  3  4  1  0
  4  5  2  0
  5  6  1  0
  6  7  1  0
  7  8  1  0
  8  9  1  0
  9 10  1  0
 10 11  1  6
 10 12  1  0
 12 13  1  1
 13 14  1  0
 14 15  1  1
 14 16  1  0
 16 17  1  0
 17 18  1  0
 18 19  1  0
 19 20  1  0
 20 21  1  0
 21 22  1  0
 22 23  1  0
 23 24  1  0
 24 25  2  0
 24 26  1  0
 26 27  1  0
 26 28  1  0
 28 29  1  1
 28 30  1  0
 30 31  2  0
 30 32  1  0
  6 33  2  0
 33 34  1  0
 32 12  1  0
 34  4  1  0
M  END
$$$$
