
     RDKit          3D

 34 35  0  0  0  0  0  0  0  0999 V2000
  -12.7360  -43.0104  -14.5828 C   0  0  0  0  0  0  0  0  0  0  0  0
  -12.5341  -42.6822  -13.1408 C   0  0  0  0  0  0  0  0  0  0  0  0
  -12.7730  -41.2381  -12.8066 C   0  0  0  0  0  0  0  0  0  0  0  0
  -12.6210  -41.0741  -11.3286 C   0  0  0  0  0  0  0  0  0  0  0  0
  -13.3500  -40.2336  -10.5149 C   0  0  0  0  0  0  0  0  0  0  0  0
  -12.8828  -40.4023   -9.2440 C   0  0  0  0  0  0  0  0  0  0  0  0
  -13.3347  -39.7248   -7.9823 C   0  0  0  0  0  0  0  0  0  0  0  0
  -14.1946  -38.6087   -8.3262 N   0  0  0  0  0  0  0  0  0  0  0  0
  -15.4501  -39.0622   -8.8390 C   0  0  0  0  0  0  0  0  0  0  0  0
  -16.4824  -39.2439   -7.7962 C   0  0  1  0  0  0  0  0  0  0  0  0
  -17.0823  -38.0257   -7.4763 O   0  0  0  0  0  0  0  0  0  0  0  0
  -17.4526  -40.3562   -7.9740 C   0  0  2  0  0  0  0  0  0  0  0  0
  -18.8810  -40.0453   -8.1157 C   0  0  0  0  0  0  0  0  0  0  0  0
  -19.5218  -39.0226   -7.2800 C   0  0  2  0  0  0  0  0  0  0  0  0
  -19.7597  -39.3746   -5.8341 C   0  0  0  0  0  0  0  0  0  0  0  0
  -20.9460  -38.8583   -7.8680 C   0  0  0  0  0  0  0  0  0  0  0  0
  -21.5773  -40.2205   -8.0557 C   0  0  0  0  0  0  0  0  0  0  0  0
  -23.0877  -40.1498   -8.0928 C   0  0  0  0  0  0  0  0  0  0  0  0
  -23.6217  -41.4654   -7.5235 C   0  0  0  0  0  0  0  0  0  0  0  0
  -24.1202  -42.3943   -8.5800 C   0  0  0  0  0  0  0  0  0  0  0  0
  -23.2127  -43.5831   -8.8276 C   0  0  0  0  0  0  0  0  0  0  0  0
  -21.9402  -43.2448   -9.2067 O   0  0  0  0  0  0  0  0  0  0  0  0
  -21.0032  -44.2224   -8.8821 C   0  0  0  0  0  0  0  0  0  0  0  0
  -19.6453  -43.8066   -9.2815 C   0  0  0  0  0  0  0  0  0  0  0  0
  -19.4333  -43.6194  -10.5076 O   0  0  0  0  0  0  0  0  0  0  0  0
  -18.5787  -43.6077   -8.3790 N   0  0  0  0  0  0  0  0  0  0  0  0
  -17.2004  -43.6991   -8.8169 C   0  0  0  0  0  0  0  0  0  0  0  0
  -18.8656  -43.3086   -6.9953 C   0  0  1  0  0  0  0  0  0  0  0  0
  -18.7840  -44.6614   -6.2683 C   0  0  0  0  0  0  0  0  0  0  0  0
  -17.9356  -42.3288   -6.3821 C   0  0  0  0  0  0  0  0  0  0  0  0
  -17.9072  -42.3737   -5.0943 O   0  0  0  0  0  0  0  0  0  0  0  0
  -17.1130  -41.3928   -7.0211 N   0  0  0  0  0  0  0  0  0  0  0  0
  -11.9003  -41.3231   -9.3136 N   0  0  0  0  0  0  0  0  0  0  0  0
  -11.7364  -41.7296  -10.5503 N   0  0  0  0  0  0  0  0  0  0  0  0
  1  2  1  0
  2  3  1  0
  3  4  1  0
  4  5  2  0
  5  6  1  0
  6  7  1  0
  7  8  1  0
  8  9  1  0
  9 10  1  0
 10 11  1  6
 10 12  1  0
 12 13  1  1
 13 14  1  0
 14 15  1  1
 14 16  1  0
 16 17  1  0
 17 18  1  0
 18 19  1  0
 19 20  1  0
 20 21  1  0
 21 22  1  0
 22 23  1  0
 23 24  1  0
 24 25  2  0
 24 26  1  0
 26 27  1  0
 26 28  1  0
 28 29  1  1
 28 30  1  0
 30 31  2  0
 30 32  1  0
  6 33  2  0
 33 34  1  0
 32 12  1  0
 34  4  1  0
M  END
$$$$
