
     RDKit          3D

 34 35  0  0  0  0  0  0  0  0999 V2000
   -9.6339  -36.0146  -11.3204 C   0  0  0  0  0  0  0  0  0  0  0  0
  -10.8557  -36.8450  -11.1070 C   0  0  0  0  0  0  0  0  0  0  0  0
  -12.0459  -36.3912  -11.9018 C   0  0  0  0  0  0  0  0  0  0  0  0
  -13.1438  -37.3851  -11.6990 C   0  0  0  0  0  0  0  0  0  0  0  0
  -14.4938  -37.1660  -11.8702 C   0  0  0  0  0  0  0  0  0  0  0  0
  -15.1298  -38.3374  -11.5781 C   0  0  0  0  0  0  0  0  0  0  0  0
  -16.6009  -38.6370  -11.6072 C   0  0  0  0  0  0  0  0  0  0  0  0
  -17.2394  -37.9844  -10.4804 N   0  0  0  0  0  0  0  0  0  0  0  0
  -17.2175  -38.8188   -9.3194 C   0  0  0  0  0  0  0  0  0  0  0  0
  -18.4762  -38.7844   -8.5443 C   0  0  1  0  0  0  0  0  0  0  0  0
  -19.3869  -37.8974   -9.1188 O   0  0  0  0  0  0  0  0  0  0  0  0
  -19.0794  -40.0853   -8.1523 C   0  0  2  0  0  0  0  0  0  0  0  0
  -20.3085  -40.0920   -7.3484 C   0  0  0  0  0  0  0  0  0  0  0  0
  -20.4878  -39.1607   -6.2280 C   0  0  2  0  0  0  0  0  0  0  0  0
  -19.6901  -39.4349   -4.9791 C   0  0  0  0  0  0  0  0  0  0  0  0
  -21.9607  -39.3459   -5.7837 C   0  0  0  0  0  0  0  0  0  0  0  0
  -22.2617  -40.8206   -5.6283 C   0  0  0  0  0  0  0  0  0  0  0  0
  -23.4360  -41.0699   -4.7083 C   0  0  0  0  0  0  0  0  0  0  0  0
  -23.2019  -42.4168   -4.0219 C   0  0  0  0  0  0  0  0  0  0  0  0
  -24.0372  -43.5126   -4.5954 C   0  0  0  0  0  0  0  0  0  0  0  0
  -23.2552  -44.5021   -5.4365 C   0  0  0  0  0  0  0  0  0  0  0  0
  -22.6066  -43.9379   -6.5036 O   0  0  0  0  0  0  0  0  0  0  0  0
  -21.4908  -44.6685   -6.9038 C   0  0  0  0  0  0  0  0  0  0  0  0
  -20.8072  -44.0126   -8.0346 C   0  0  0  0  0  0  0  0  0  0  0  0
  -21.4521  -43.8865   -9.1077 O   0  0  0  0  0  0  0  0  0  0  0  0
  -19.4848  -43.5223   -7.9859 N   0  0  0  0  0  0  0  0  0  0  0  0
  -18.7015  -43.3596   -9.1942 C   0  0  0  0  0  0  0  0  0  0  0  0
  -18.9018  -43.1773   -6.7102 C   0  0  1  0  0  0  0  0  0  0  0  0
  -18.0983  -44.4191   -6.2885 C   0  0  0  0  0  0  0  0  0  0  0  0
  -18.0291  -41.9781   -6.7475 C   0  0  0  0  0  0  0  0  0  0  0  0
  -17.1953  -41.9104   -5.7671 O   0  0  0  0  0  0  0  0  0  0  0  0
  -18.0086  -40.9466   -7.6946 N   0  0  0  0  0  0  0  0  0  0  0  0
  -14.1704  -39.2235  -11.2429 N   0  0  0  0  0  0  0  0  0  0  0  0
  -12.9843  -38.6667  -11.3116 N   0  0  0  0  0  0  0  0  0  0  0  0
  1  2  1  0
  2  3  1  0
  3  4  1  0
  4  5  2  0
  5  6  1  0
  6  7  1  0
  7  8  1  0
  8  9  1  0
  9 10  1  0
 10 11  1  6
 10 12  1  0
 12 13  1  1
 13 14  1  0
 14 15  1  1
 14 16  1  0
 16 17  1  0
 17 18  1  0
 18 19  1  0
 19 20  1  0
 20 21  1  0
 21 22  1  0
 22 23  1  0
 23 24  1  0
 24 25  2  0
 24 26  1  0
 26 27  1  0
 26 28  1  0
 28 29  1  6
 28 30  1  0
 30 31  2  0
 30 32  1  0
  6 33  2  0
 33 34  1  0
 32 12  1  0
 34  4  1  0
M  END
$$$$
