
     RDKit          3D

 34 35  0  0  0  0  0  0  0  0999 V2000
  -24.0461  -39.9987   -9.5418 C   0  0  0  0  0  0  0  0  0  0  0  0
  -22.7869  -39.9772   -8.7407 C   0  0  0  0  0  0  0  0  0  0  0  0
  -22.8854  -39.1764   -7.4745 C   0  0  0  0  0  0  0  0  0  0  0  0
  -21.7738  -39.6023   -6.5703 C   0  0  0  0  0  0  0  0  0  0  0  0
  -20.5331  -40.0648   -6.9534 C   0  0  0  0  0  0  0  0  0  0  0  0
  -19.8374  -40.3374   -5.8117 C   0  0  0  0  0  0  0  0  0  0  0  0
  -18.4384  -40.8645   -5.6706 C   0  0  0  0  0  0  0  0  0  0  0  0
  -17.6965  -40.5678   -6.8809 N   0  0  0  0  0  0  0  0  0  0  0  0
  -16.5880  -39.7061   -6.6097 C   0  0  0  0  0  0  0  0  0  0  0  0
  -16.3292  -38.7221   -7.6826 C   0  0  1  0  0  0  0  0  0  0  0  0
  -15.8490  -37.5251   -7.1508 O   0  0  0  0  0  0  0  0  0  0  0  0
  -15.5754  -39.1874   -8.8765 C   0  0  2  0  0  0  0  0  0  0  0  0
  -14.6946  -38.2456   -9.5796 C   0  0  0  0  0  0  0  0  0  0  0  0
  -15.1076  -36.8584   -9.8244 C   0  0  2  0  0  0  0  0  0  0  0  0
  -16.1593  -36.6365  -10.8808 C   0  0  0  0  0  0  0  0  0  0  0  0
  -13.8474  -36.1588  -10.3932 C   0  0  0  0  0  0  0  0  0  0  0  0
  -13.2546  -37.0034  -11.4999 C   0  0  0  0  0  0  0  0  0  0  0  0
  -12.4002  -36.1883  -12.4451 C   0  0  0  0  0  0  0  0  0  0  0  0
  -12.4950  -36.8405  -13.8256 C   0  0  0  0  0  0  0  0  0  0  0  0
  -11.2794  -37.6317  -14.1777 C   0  0  0  0  0  0  0  0  0  0  0  0
  -11.4920  -39.1320  -14.1342 C   0  0  0  0  0  0  0  0  0  0  0  0
  -11.8961  -39.6036  -12.9127 O   0  0  0  0  0  0  0  0  0  0  0  0
  -12.6158  -40.7920  -13.0050 C   0  0  0  0  0  0  0  0  0  0  0  0
  -13.0549  -41.2489  -11.6729 C   0  0  0  0  0  0  0  0  0  0  0  0
  -12.1614  -41.5335  -10.8338 O   0  0  0  0  0  0  0  0  0  0  0  0
  -14.4052  -41.3850  -11.2860 N   0  0  0  0  0  0  0  0  0  0  0  0
  -14.7899  -42.2778  -10.2112 C   0  0  0  0  0  0  0  0  0  0  0  0
  -15.4212  -40.6222  -11.9731 C   0  0  1  0  0  0  0  0  0  0  0  0
  -15.9825  -41.5750  -13.0420 C   0  0  0  0  0  0  0  0  0  0  0  0
  -16.5072  -40.1277  -11.0915 C   0  0  0  0  0  0  0  0  0  0  0  0
  -17.5934  -39.8324  -11.7193 O   0  0  0  0  0  0  0  0  0  0  0  0
  -16.4874  -39.9516   -9.7024 N   0  0  0  0  0  0  0  0  0  0  0  0
  -20.6552  -40.0400   -4.7818 N   0  0  0  0  0  0  0  0  0  0  0  0
  -21.8107  -39.6015   -5.2225 N   0  0  0  0  0  0  0  0  0  0  0  0
  1  2  1  0
  2  3  1  0
  3  4  1  0
  4  5  2  0
  5  6  1  0
  6  7  1  0
  7  8  1  0
  8  9  1  0
  9 10  1  0
 10 11  1  1
 10 12  1  0
 12 13  1  6
 13 14  1  0
 14 15  1  6
 14 16  1  0
 16 17  1  0
 17 18  1  0
 18 19  1  0
 19 20  1  0
 20 21  1  0
 21 22  1  0
 22 23  1  0
 23 24  1  0
 24 25  2  0
 24 26  1  0
 26 27  1  0
 26 28  1  0
 28 29  1  6
 28 30  1  0
 30 31  2  0
 30 32  1  0
  6 33  2  0
 33 34  1  0
 32 12  1  0
 34  4  1  0
M  END
$$$$
