
     RDKit          3D

 34 35  0  0  0  0  0  0  0  0999 V2000
  -23.2472  -44.4896   -5.4850 C   0  0  0  0  0  0  0  0  0  0  0  0
  -22.8240  -43.0588   -5.4448 C   0  0  0  0  0  0  0  0  0  0  0  0
  -22.2055  -42.5715   -6.7232 C   0  0  0  0  0  0  0  0  0  0  0  0
  -21.8252  -41.1380   -6.5360 C   0  0  0  0  0  0  0  0  0  0  0  0
  -20.5518  -40.6123   -6.5796 C   0  0  0  0  0  0  0  0  0  0  0  0
  -20.6647  -39.2707   -6.3572 C   0  0  0  0  0  0  0  0  0  0  0  0
  -19.5780  -38.2358   -6.3021 C   0  0  0  0  0  0  0  0  0  0  0  0
  -18.3072  -38.8673   -6.6012 N   0  0  0  0  0  0  0  0  0  0  0  0
  -17.9010  -38.6001   -7.9460 C   0  0  0  0  0  0  0  0  0  0  0  0
  -16.4595  -38.2987   -8.0781 C   0  0  1  0  0  0  0  0  0  0  0  0
  -15.9218  -37.9062   -6.8521 O   0  0  0  0  0  0  0  0  0  0  0  0
  -15.6155  -39.2783   -8.8115 C   0  0  2  0  0  0  0  0  0  0  0  0
  -14.3564  -38.8269   -9.4180 C   0  0  0  0  0  0  0  0  0  0  0  0
  -14.2728  -37.5449  -10.1283 C   0  0  2  0  0  0  0  0  0  0  0  0
  -14.9310  -37.4712  -11.4820 C   0  0  0  0  0  0  0  0  0  0  0  0
  -12.7654  -37.3508  -10.4302 C   0  0  0  0  0  0  0  0  0  0  0  0
  -12.2027  -38.6173  -11.0374 C   0  0  0  0  0  0  0  0  0  0  0  0
  -10.9479  -38.3570  -11.8407 C   0  0  0  0  0  0  0  0  0  0  0  0
  -10.9004  -39.3941  -12.9643 C   0  0  0  0  0  0  0  0  0  0  0  0
   -9.9242  -40.4915  -12.6993 C   0  0  0  0  0  0  0  0  0  0  0  0
  -10.5726  -41.8142  -12.3412 C   0  0  0  0  0  0  0  0  0  0  0  0
  -11.3748  -41.7605  -11.2317 O   0  0  0  0  0  0  0  0  0  0  0  0
  -12.3688  -42.7356  -11.2376 C   0  0  0  0  0  0  0  0  0  0  0  0
  -13.2254  -42.6245  -10.0418 C   0  0  0  0  0  0  0  0  0  0  0  0
  -12.6806  -42.7948   -8.9204 O   0  0  0  0  0  0  0  0  0  0  0  0
  -14.6075  -42.3413  -10.0791 N   0  0  0  0  0  0  0  0  0  0  0  0
  -15.4808  -42.7279   -8.9893 C   0  0  0  0  0  0  0  0  0  0  0  0
  -15.1610  -41.6550  -11.2232 C   0  0  1  0  0  0  0  0  0  0  0  0
  -15.7078  -42.7689  -12.1319 C   0  0  0  0  0  0  0  0  0  0  0  0
  -16.2300  -40.6827  -10.8874 C   0  0  0  0  0  0  0  0  0  0  0  0
  -17.0002  -40.3926  -11.8793 O   0  0  0  0  0  0  0  0  0  0  0  0
  -16.4890  -40.0654   -9.6573 N   0  0  0  0  0  0  0  0  0  0  0  0
  -21.9780  -39.0175   -6.1872 N   0  0  0  0  0  0  0  0  0  0  0  0
  -22.6778  -40.1225   -6.2917 N   0  0  0  0  0  0  0  0  0  0  0  0
  1  2  1  0
  2  3  1  0
  3  4  1  0
  4  5  2  0
  5  6  1  0
  6  7  1  0
  7  8  1  0
  8  9  1  0
  9 10  1  0
 10 11  1  1
 10 12  1  0
 12 13  1  6
 13 14  1  0
 14 15  1  6
 14 16  1  0
 16 17  1  0
 17 18  1  0
 18 19  1  0
 19 20  1  0
 20 21  1  0
 21 22  1  0
 22 23  1  0
 23 24  1  0
 24 25  2  0
 24 26  1  0
 26 27  1  0
 26 28  1  0
 28 29  1  6
 28 30  1  0
 30 31  2  0
 30 32  1  0
  6 33  2  0
 33 34  1  0
 32 12  1  0
 34  4  1  0
M  END
$$$$
