
     RDKit          3D

 34 35  0  0  0  0  0  0  0  0999 V2000
  -14.8413  -34.8921  -13.3346 C   0  0  0  0  0  0  0  0  0  0  0  0
  -14.6346  -36.3233  -12.9646 C   0  0  0  0  0  0  0  0  0  0  0  0
  -13.2005  -36.7645  -13.0197 C   0  0  0  0  0  0  0  0  0  0  0  0
  -13.1535  -38.2248  -12.7035 C   0  0  0  0  0  0  0  0  0  0  0  0
  -13.4168  -38.8114  -11.4843 C   0  0  0  0  0  0  0  0  0  0  0  0
  -13.2560  -40.1570  -11.6443 C   0  0  0  0  0  0  0  0  0  0  0  0
  -13.4227  -41.2478  -10.6258 C   0  0  0  0  0  0  0  0  0  0  0  0
  -14.3558  -40.8060   -9.6073 N   0  0  0  0  0  0  0  0  0  0  0  0
  -15.6959  -41.1816   -9.9360 C   0  0  0  0  0  0  0  0  0  0  0  0
  -16.7214  -40.3374   -9.2865 C   0  0  1  0  0  0  0  0  0  0  0  0
  -16.9853  -39.2019  -10.0529 O   0  0  0  0  0  0  0  0  0  0  0  0
  -17.9460  -41.0099   -8.7784 C   0  0  2  0  0  0  0  0  0  0  0  0
  -19.1309  -40.2002   -8.4661 C   0  0  0  0  0  0  0  0  0  0  0  0
  -19.0086  -38.9115   -7.7737 C   0  0  2  0  0  0  0  0  0  0  0  0
  -18.6732  -38.9557   -6.3051 C   0  0  0  0  0  0  0  0  0  0  0  0
  -20.4298  -38.2956   -7.8182 C   0  0  0  0  0  0  0  0  0  0  0  0
  -21.4436  -39.3271   -7.3736 C   0  0  0  0  0  0  0  0  0  0  0  0
  -22.7214  -38.6925   -6.8715 C   0  0  0  0  0  0  0  0  0  0  0  0
  -23.3044  -39.6202   -5.8039 C   0  0  0  0  0  0  0  0  0  0  0  0
  -24.4640  -40.4182   -6.2998 C   0  0  0  0  0  0  0  0  0  0  0  0
  -24.1479  -41.8841   -6.5219 C   0  0  0  0  0  0  0  0  0  0  0  0
  -23.1375  -42.1076   -7.4199 O   0  0  0  0  0  0  0  0  0  0  0  0
  -22.4822  -43.3171   -7.2039 C   0  0  0  0  0  0  0  0  0  0  0  0
  -21.3857  -43.5047   -8.1728 C   0  0  0  0  0  0  0  0  0  0  0  0
  -21.6937  -43.5732   -9.3910 O   0  0  0  0  0  0  0  0  0  0  0  0
  -20.0237  -43.6113   -7.8190 N   0  0  0  0  0  0  0  0  0  0  0  0
  -19.0740  -44.2762   -8.6885 C   0  0  0  0  0  0  0  0  0  0  0  0
  -19.5686  -43.0487   -6.5690 C   0  0  1  0  0  0  0  0  0  0  0  0
  -19.5701  -44.2242   -5.5771 C   0  0  0  0  0  0  0  0  0  0  0  0
  -18.2239  -42.4258   -6.6390 C   0  0  0  0  0  0  0  0  0  0  0  0
  -17.6433  -42.3106   -5.4941 O   0  0  0  0  0  0  0  0  0  0  0  0
  -17.5370  -41.9646   -7.7689 N   0  0  0  0  0  0  0  0  0  0  0  0
  -12.9057  -40.3528  -12.9315 N   0  0  0  0  0  0  0  0  0  0  0  0
  -12.8418  -39.2088  -13.5710 N   0  0  0  0  0  0  0  0  0  0  0  0
  1  2  1  0
  2  3  1  0
  3  4  1  0
  4  5  2  0
  5  6  1  0
  6  7  1  0
  7  8  1  0
  8  9  1  0
  9 10  1  0
 10 11  1  6
 10 12  1  0
 12 13  1  1
 13 14  1  0
 14 15  1  1
 14 16  1  0
 16 17  1  0
 17 18  1  0
 18 19  1  0
 19 20  1  0
 20 21  1  0
 21 22  1  0
 22 23  1  0
 23 24  1  0
 24 25  2  0
 24 26  1  0
 26 27  1  0
 26 28  1  0
 28 29  1  1
 28 30  1  0
 30 31  2  0
 30 32  1  0
  6 33  2  0
 33 34  1  0
 32 12  1  0
 34  4  1  0
M  END
$$$$
