
     RDKit          3D

 34 35  0  0  0  0  0  0  0  0999 V2000
  -12.7952  -33.3816  -13.6882 C   0  0  0  0  0  0  0  0  0  0  0  0
  -12.9232  -34.5597  -12.7806 C   0  0  0  0  0  0  0  0  0  0  0  0
  -14.3065  -35.1412  -12.7306 C   0  0  0  0  0  0  0  0  0  0  0  0
  -14.2637  -36.3633  -11.8709 C   0  0  0  0  0  0  0  0  0  0  0  0
  -14.2588  -36.4001  -10.4930 C   0  0  0  0  0  0  0  0  0  0  0  0
  -14.2134  -37.7141  -10.1277 C   0  0  0  0  0  0  0  0  0  0  0  0
  -14.1899  -38.3018   -8.7461 C   0  0  0  0  0  0  0  0  0  0  0  0
  -15.5409  -38.6640   -8.3626 N   0  0  0  0  0  0  0  0  0  0  0  0
  -15.7927  -40.0507   -8.6044 C   0  0  0  0  0  0  0  0  0  0  0  0
  -17.0283  -40.3000   -9.3774 C   0  0  1  0  0  0  0  0  0  0  0  0
  -16.7252  -40.7288  -10.6699 O   0  0  0  0  0  0  0  0  0  0  0  0
  -18.1012  -41.0944   -8.7234 C   0  0  2  0  0  0  0  0  0  0  0  0
  -19.3193  -40.4134   -8.2658 C   0  0  0  0  0  0  0  0  0  0  0  0
  -19.2531  -39.1112   -7.5913 C   0  0  2  0  0  0  0  0  0  0  0  0
  -18.7371  -39.1022   -6.1754 C   0  0  0  0  0  0  0  0  0  0  0  0
  -20.7273  -38.6523   -7.4590 C   0  0  0  0  0  0  0  0  0  0  0  0
  -21.5612  -39.7817   -6.8948 C   0  0  0  0  0  0  0  0  0  0  0  0
  -22.8288  -39.2826   -6.2377 C   0  0  0  0  0  0  0  0  0  0  0  0
  -23.1724  -40.2553   -5.1081 C   0  0  0  0  0  0  0  0  0  0  0  0
  -24.2910  -41.1791   -5.4587 C   0  0  0  0  0  0  0  0  0  0  0  0
  -23.8478  -42.6049   -5.7209 C   0  0  0  0  0  0  0  0  0  0  0  0
  -22.9371  -42.7287   -6.7371 O   0  0  0  0  0  0  0  0  0  0  0  0
  -22.1332  -43.8581   -6.6058 C   0  0  0  0  0  0  0  0  0  0  0  0
  -21.1503  -43.9378   -7.7029 C   0  0  0  0  0  0  0  0  0  0  0  0
  -21.5963  -44.0529   -8.8739 O   0  0  0  0  0  0  0  0  0  0  0  0
  -19.7516  -43.8931   -7.5200 N   0  0  0  0  0  0  0  0  0  0  0  0
  -18.8496  -44.4619   -8.5012 C   0  0  0  0  0  0  0  0  0  0  0  0
  -19.2100  -43.2705   -6.3346 C   0  0  1  0  0  0  0  0  0  0  0  0
  -18.9625  -44.4279   -5.3523 C   0  0  0  0  0  0  0  0  0  0  0  0
  -17.9595  -42.5074   -6.5687 C   0  0  0  0  0  0  0  0  0  0  0  0
  -17.2586  -42.3173   -5.5040 O   0  0  0  0  0  0  0  0  0  0  0  0
  -17.4704  -41.9880   -7.7738 N   0  0  0  0  0  0  0  0  0  0  0  0
  -14.1923  -38.4309  -11.2695 N   0  0  0  0  0  0  0  0  0  0  0  0
  -14.2219  -37.6363  -12.3133 N   0  0  0  0  0  0  0  0  0  0  0  0
  1  2  1  0
  2  3  1  0
  3  4  1  0
  4  5  2  0
  5  6  1  0
  6  7  1  0
  7  8  1  0
  8  9  1  0
  9 10  1  0
 10 11  1  6
 10 12  1  0
 12 13  1  1
 13 14  1  0
 14 15  1  1
 14 16  1  0
 16 17  1  0
 17 18  1  0
 18 19  1  0
 19 20  1  0
 20 21  1  0
 21 22  1  0
 22 23  1  0
 23 24  1  0
 24 25  2  0
 24 26  1  0
 26 27  1  0
 26 28  1  0
 28 29  1  1
 28 30  1  0
 30 31  2  0
 30 32  1  0
  6 33  2  0
 33 34  1  0
 32 12  1  0
 34  4  1  0
M  END
$$$$
