
     RDKit          3D

 34 35  0  0  0  0  0  0  0  0999 V2000
  -13.2794  -43.4133  -13.6025 C   0  0  0  0  0  0  0  0  0  0  0  0
  -13.1570  -42.3928  -12.5201 C   0  0  0  0  0  0  0  0  0  0  0  0
  -13.1153  -40.9778  -13.0204 C   0  0  0  0  0  0  0  0  0  0  0  0
  -13.1471  -40.0672  -11.8354 C   0  0  0  0  0  0  0  0  0  0  0  0
  -13.9776  -38.9822  -11.6537 C   0  0  0  0  0  0  0  0  0  0  0  0
  -13.6682  -38.4399  -10.4404 C   0  0  0  0  0  0  0  0  0  0  0  0
  -14.2773  -37.2444   -9.7660 C   0  0  0  0  0  0  0  0  0  0  0  0
  -14.5180  -37.5593   -8.3710 N   0  0  0  0  0  0  0  0  0  0  0  0
  -15.2466  -38.7822   -8.2353 C   0  0  0  0  0  0  0  0  0  0  0  0
  -16.7095  -38.5899   -8.1395 C   0  0  1  0  0  0  0  0  0  0  0  0
  -17.1185  -37.5086   -8.9203 O   0  0  0  0  0  0  0  0  0  0  0  0
  -17.5731  -39.7909   -8.2874 C   0  0  2  0  0  0  0  0  0  0  0  0
  -19.0327  -39.6282   -8.2876 C   0  0  0  0  0  0  0  0  0  0  0  0
  -19.6948  -38.7146   -7.3485 C   0  0  2  0  0  0  0  0  0  0  0  0
  -19.7608  -39.1489   -5.9069 C   0  0  0  0  0  0  0  0  0  0  0  0
  -21.1765  -38.6789   -7.8004 C   0  0  0  0  0  0  0  0  0  0  0  0
  -21.6798  -40.0917   -8.0004 C   0  0  0  0  0  0  0  0  0  0  0  0
  -23.1865  -40.1807   -7.9015 C   0  0  0  0  0  0  0  0  0  0  0  0
  -23.5282  -41.5679   -7.3546 C   0  0  0  0  0  0  0  0  0  0  0  0
  -24.0245  -42.5005   -8.4088 C   0  0  0  0  0  0  0  0  0  0  0  0
  -23.0269  -43.5749   -8.7945 C   0  0  0  0  0  0  0  0  0  0  0  0
  -21.8362  -43.0878   -9.2661 O   0  0  0  0  0  0  0  0  0  0  0  0
  -20.7782  -43.9726   -9.0746 C   0  0  0  0  0  0  0  0  0  0  0  0
  -19.5128  -43.3986   -9.5699 C   0  0  0  0  0  0  0  0  0  0  0  0
  -19.4352  -43.1399  -10.7990 O   0  0  0  0  0  0  0  0  0  0  0  0
  -18.3933  -43.1245   -8.7555 N   0  0  0  0  0  0  0  0  0  0  0  0
  -17.0592  -43.0507   -9.3166 C   0  0  0  0  0  0  0  0  0  0  0  0
  -18.5801  -42.9145   -7.3387 C   0  0  1  0  0  0  0  0  0  0  0  0
  -18.2937  -44.2796   -6.6907 C   0  0  0  0  0  0  0  0  0  0  0  0
  -17.7026  -41.8672   -6.7607 C   0  0  0  0  0  0  0  0  0  0  0  0
  -17.5508  -41.9616   -5.4843 O   0  0  0  0  0  0  0  0  0  0  0  0
  -17.0426  -40.8236   -7.4214 N   0  0  0  0  0  0  0  0  0  0  0  0
  -12.6767  -39.1931   -9.9232 N   0  0  0  0  0  0  0  0  0  0  0  0
  -12.3588  -40.1647  -10.7458 N   0  0  0  0  0  0  0  0  0  0  0  0
  1  2  1  0
  2  3  1  0
  3  4  1  0
  4  5  2  0
  5  6  1  0
  6  7  1  0
  7  8  1  0
  8  9  1  0
  9 10  1  0
 10 11  1  6
 10 12  1  0
 12 13  1  1
 13 14  1  0
 14 15  1  1
 14 16  1  0
 16 17  1  0
 17 18  1  0
 18 19  1  0
 19 20  1  0
 20 21  1  0
 21 22  1  0
 22 23  1  0
 23 24  1  0
 24 25  2  0
 24 26  1  0
 26 27  1  0
 26 28  1  0
 28 29  1  1
 28 30  1  0
 30 31  2  0
 30 32  1  0
  6 33  2  0
 33 34  1  0
 32 12  1  0
 34  4  1  0
M  END
$$$$
