
     RDKit          3D

 42 46  0  0  0  0  0  0  0  0999 V2000
  -11.7759  -43.6554  -10.8283 C   0  0  0  0  0  0  0  0  0  0  0  0
  -12.9806  -44.3364  -10.6814 O   0  0  0  0  0  0  0  0  0  0  0  0
  -13.8109  -44.1498  -11.8065 C   0  0  0  0  0  0  0  0  0  0  0  0
  -14.2231  -42.7227  -11.9062 C   0  0  0  0  0  0  0  0  0  0  0  0
  -13.4533  -41.7711  -12.4986 C   0  0  0  0  0  0  0  0  0  0  0  0
  -13.8295  -40.4008  -12.6142 C   0  0  0  0  0  0  0  0  0  0  0  0
  -15.0433  -39.9876  -12.1024 C   0  0  0  0  0  0  0  0  0  0  0  0
  -15.8568  -40.9386  -11.4855 C   0  0  0  0  0  0  0  0  0  0  0  0
  -15.4263  -42.2821  -11.4038 C   0  0  0  0  0  0  0  0  0  0  0  0
  -17.1692  -40.8012  -10.8258 C   0  0  0  0  0  0  0  0  0  0  0  0
  -17.9881  -41.7957  -11.1224 O   0  0  0  0  0  0  0  0  0  0  0  0
  -17.6962  -39.8833   -9.9943 O   0  0  0  0  0  0  0  0  0  0  0  0
  -17.4927  -39.2180   -8.8513 C   0  0  1  0  0  0  0  0  0  0  0  0
  -17.1558  -40.0546   -7.6146 C   0  0  0  0  0  0  0  0  0  0  0  0
  -18.1678  -41.0077   -7.3168 N   0  0  0  0  0  0  0  0  0  0  0  0
  -19.3005  -40.3825   -6.6636 C   0  0  0  0  0  0  0  0  0  0  0  0
  -19.2813  -40.4846   -5.1599 C   0  0  0  0  0  0  0  0  0  0  0  0
  -19.1388  -39.1550   -5.8446 C   0  0  0  0  0  0  0  0  0  0  0  0
  -20.6162  -40.4854   -7.3461 C   0  0  0  0  0  0  0  0  0  0  0  0
  -20.7250  -40.5379   -8.7126 C   0  0  0  0  0  0  0  0  0  0  0  0
  -21.9419  -40.6365   -9.3691 C   0  0  0  0  0  0  0  0  0  0  0  0
  -23.0881  -40.6824   -8.6213 C   0  0  0  0  0  0  0  0  0  0  0  0
  -23.0158  -40.6313   -7.2385 C   0  0  0  0  0  0  0  0  0  0  0  0
  -21.7950  -40.5348   -6.6249 C   0  0  0  0  0  0  0  0  0  0  0  0
  -21.9864  -40.6872  -10.8395 C   0  0  0  0  0  0  0  0  0  0  0  0
  -21.1883  -39.5702  -11.4789 C   0  0  0  0  0  0  0  0  0  0  0  0
  -21.5005  -41.9822  -11.4027 C   0  0  0  0  0  0  0  0  0  0  0  0
  -16.5704  -38.0472   -8.8084 C   0  0  1  0  0  0  0  0  0  0  0  0
  -15.2599  -38.4341   -9.2685 N   0  0  0  0  0  0  0  0  0  0  0  0
  -17.0847  -36.9586   -9.7076 C   0  0  0  0  0  0  0  0  0  0  0  0
  -16.0130  -35.9855  -10.0593 C   0  0  0  0  0  0  0  0  0  0  0  0
  -15.1642  -35.9150  -11.1152 C   0  0  0  0  0  0  0  0  0  0  0  0
  -14.2263  -34.8940  -11.1583 C   0  0  0  0  0  0  0  0  0  0  0  0
  -14.1727  -33.9594  -10.1220 C   0  0  0  0  0  0  0  0  0  0  0  0
  -15.0138  -33.9862   -9.0261 C   0  0  0  0  0  0  0  0  0  0  0  0
  -15.9140  -35.0129   -9.0361 C   0  0  0  0  0  0  0  0  0  0  0  0
  -13.2741  -34.6428  -12.1308 O   0  0  0  0  0  0  0  0  0  0  0  0
  -12.1949  -35.2817  -12.6899 C   0  0  0  0  0  0  0  0  0  0  0  0
  -12.6167  -36.2046  -13.7953 C   0  0  0  0  0  0  0  0  0  0  0  0
  -11.8340  -37.4918  -13.8116 C   0  0  0  0  0  0  0  0  0  0  0  0
  -12.7563  -38.6011  -14.2148 C   0  0  0  0  0  0  0  0  0  0  0  0
  -12.7726  -39.6870  -13.2540 N   0  0  0  0  0  0  0  0  0  0  0  0
  1  2  1  0
  2  3  1  0
  3  4  1  0
  4  5  2  0
  5  6  1  0
  6  7  2  0
  7  8  1  0
  8  9  2  0
  8 10  1  0
 10 11  2  0
 10 12  1  0
 12 13  1  0
 13 14  1  1
 14 15  1  0
 15 16  1  0
 16 17  1  0
 17 18  1  0
 16 19  1  0
 19 20  2  0
 20 21  1  0
 21 22  2  0
 22 23  1  0
 23 24  2  0
 21 25  1  0
 25 26  1  0
 25 27  1  0
 13 28  1  0
 28 29  1  6
 28 30  1  0
 30 31  1  0
 31 32  1  0
 32 33  2  0
 33 34  1  0
 34 35  2  0
 35 36  1  0
 33 37  1  0
 37 38  1  0
 38 39  1  0
 39 40  1  0
 40 41  1  0
 41 42  1  0
  9  4  1  0
 18 16  1  0
 24 19  1  0
 36 31  2  0
 42  6  1  0
M  END
$$$$
