
     RDKit          3D

 42 46  0  0  0  0  0  0  0  0999 V2000
  -18.4083  -46.7021   -5.0672 C   0  0  0  0  0  0  0  0  0  0  0  0
  -17.5411  -46.6240   -6.1528 O   0  0  0  0  0  0  0  0  0  0  0  0
  -18.2531  -46.5299   -7.3669 C   0  0  0  0  0  0  0  0  0  0  0  0
  -17.6601  -45.4683   -8.2261 C   0  0  0  0  0  0  0  0  0  0  0  0
  -16.6091  -45.6934   -9.0589 C   0  0  0  0  0  0  0  0  0  0  0  0
  -16.0295  -44.6964   -9.8971 C   0  0  0  0  0  0  0  0  0  0  0  0
  -16.5469  -43.4165   -9.8822 C   0  0  0  0  0  0  0  0  0  0  0  0
  -17.6246  -43.1509   -9.0367 C   0  0  0  0  0  0  0  0  0  0  0  0
  -18.1542  -44.1838   -8.2307 C   0  0  0  0  0  0  0  0  0  0  0  0
  -18.3602  -41.8985   -8.7783 C   0  0  0  0  0  0  0  0  0  0  0  0
  -19.6653  -42.0903   -8.6914 O   0  0  0  0  0  0  0  0  0  0  0  0
  -17.9797  -40.6179   -8.6144 O   0  0  0  0  0  0  0  0  0  0  0  0
  -17.1576  -39.8146   -7.9293 C   0  0  1  0  0  0  0  0  0  0  0  0
  -17.1829  -39.9376   -6.4038 C   0  0  0  0  0  0  0  0  0  0  0  0
  -18.3283  -39.3189   -5.8323 N   0  0  0  0  0  0  0  0  0  0  0  0
  -19.1088  -38.6290   -6.8400 C   0  0  0  0  0  0  0  0  0  0  0  0
  -18.9705  -37.1283   -6.8097 C   0  0  0  0  0  0  0  0  0  0  0  0
  -18.4577  -37.9268   -7.9743 C   0  0  0  0  0  0  0  0  0  0  0  0
  -20.4445  -39.1930   -7.1642 C   0  0  0  0  0  0  0  0  0  0  0  0
  -21.2247  -39.8065   -6.2171 C   0  0  0  0  0  0  0  0  0  0  0  0
  -22.4744  -40.3369   -6.4977 C   0  0  0  0  0  0  0  0  0  0  0  0
  -22.9525  -40.2462   -7.7777 C   0  0  0  0  0  0  0  0  0  0  0  0
  -22.1912  -39.6333   -8.7599 C   0  0  0  0  0  0  0  0  0  0  0  0
  -20.9611  -39.1199   -8.4449 C   0  0  0  0  0  0  0  0  0  0  0  0
  -23.2588  -40.9835   -5.4330 C   0  0  0  0  0  0  0  0  0  0  0  0
  -22.3825  -41.5553   -4.3382 C   0  0  0  0  0  0  0  0  0  0  0  0
  -24.2572  -40.0734   -4.7967 C   0  0  0  0  0  0  0  0  0  0  0  0
  -15.7175  -39.7075   -8.3003 C   0  0  1  0  0  0  0  0  0  0  0  0
  -15.1009  -41.0104   -8.2666 N   0  0  0  0  0  0  0  0  0  0  0  0
  -15.5884  -39.1596   -9.6936 C   0  0  0  0  0  0  0  0  0  0  0  0
  -14.2499  -39.4544  -10.2772 C   0  0  0  0  0  0  0  0  0  0  0  0
  -13.8064  -40.4705  -11.0591 C   0  0  0  0  0  0  0  0  0  0  0  0
  -12.4694  -40.5028  -11.4272 C   0  0  0  0  0  0  0  0  0  0  0  0
  -11.6074  -39.4939  -10.9922 C   0  0  0  0  0  0  0  0  0  0  0  0
  -12.0085  -38.4381  -10.1962 C   0  0  0  0  0  0  0  0  0  0  0  0
  -13.3328  -38.4591   -9.8638 C   0  0  0  0  0  0  0  0  0  0  0  0
  -11.8158  -41.4403  -12.2079 O   0  0  0  0  0  0  0  0  0  0  0  0
  -11.5526  -42.7876  -12.1767 C   0  0  0  0  0  0  0  0  0  0  0  0
  -12.6927  -43.5820  -12.7429 C   0  0  0  0  0  0  0  0  0  0  0  0
  -12.9481  -44.8584  -11.9844 C   0  0  0  0  0  0  0  0  0  0  0  0
  -14.4258  -45.1010  -11.9507 C   0  0  0  0  0  0  0  0  0  0  0  0
  -14.9302  -45.2715  -10.6020 N   0  0  0  0  0  0  0  0  0  0  0  0
  1  2  1  0
  2  3  1  0
  3  4  1  0
  4  5  2  0
  5  6  1  0
  6  7  2  0
  7  8  1  0
  8  9  2  0
  8 10  1  0
 10 11  2  0
 10 12  1  0
 12 13  1  0
 13 14  1  1
 14 15  1  0
 15 16  1  0
 16 17  1  0
 17 18  1  0
 16 19  1  0
 19 20  2  0
 20 21  1  0
 21 22  2  0
 22 23  1  0
 23 24  2  0
 21 25  1  0
 25 26  1  0
 25 27  1  0
 13 28  1  0
 28 29  1  6
 28 30  1  0
 30 31  1  0
 31 32  1  0
 32 33  2  0
 33 34  1  0
 34 35  2  0
 35 36  1  0
 33 37  1  0
 37 38  1  0
 38 39  1  0
 39 40  1  0
 40 41  1  0
 41 42  1  0
  9  4  1  0
 18 16  1  0
 24 19  1  0
 36 31  2  0
 42  6  1  0
M  END
$$$$
