
     RDKit          3D

 42 46  0  0  0  0  0  0  0  0999 V2000
  -18.0302  -36.2512  -15.8556 C   0  0  0  0  0  0  0  0  0  0  0  0
  -18.3486  -36.7101  -14.5810 O   0  0  0  0  0  0  0  0  0  0  0  0
  -17.9976  -35.7626  -13.5967 C   0  0  0  0  0  0  0  0  0  0  0  0
  -17.1778  -36.4086  -12.5349 C   0  0  0  0  0  0  0  0  0  0  0  0
  -15.8198  -36.4606  -12.5792 C   0  0  0  0  0  0  0  0  0  0  0  0
  -15.0127  -37.0653  -11.5715 C   0  0  0  0  0  0  0  0  0  0  0  0
  -15.6206  -37.6405  -10.4735 C   0  0  0  0  0  0  0  0  0  0  0  0
  -17.0135  -37.6066  -10.3980 C   0  0  0  0  0  0  0  0  0  0  0  0
  -17.7565  -36.9908  -11.4303 C   0  0  0  0  0  0  0  0  0  0  0  0
  -17.9368  -38.1544   -9.3861 C   0  0  0  0  0  0  0  0  0  0  0  0
  -18.9275  -37.3247   -9.1074 O   0  0  0  0  0  0  0  0  0  0  0  0
  -17.9770  -39.3107   -8.6984 O   0  0  0  0  0  0  0  0  0  0  0  0
  -17.9491  -40.6427   -8.8224 C   0  0  1  0  0  0  0  0  0  0  0  0
  -18.9398  -41.2664   -9.8084 C   0  0  0  0  0  0  0  0  0  0  0  0
  -20.1454  -41.6748   -9.1750 N   0  0  0  0  0  0  0  0  0  0  0  0
  -20.7563  -40.5764   -8.4534 C   0  0  0  0  0  0  0  0  0  0  0  0
  -21.7272  -39.7630   -9.2706 C   0  0  0  0  0  0  0  0  0  0  0  0
  -22.1998  -40.5876   -8.1072 C   0  0  0  0  0  0  0  0  0  0  0  0
  -19.9047  -39.8546   -7.4729 C   0  0  0  0  0  0  0  0  0  0  0  0
  -19.9160  -38.4868   -7.3675 C   0  0  0  0  0  0  0  0  0  0  0  0
  -19.1317  -37.7940   -6.4583 C   0  0  0  0  0  0  0  0  0  0  0  0
  -18.3072  -38.5055   -5.6282 C   0  0  0  0  0  0  0  0  0  0  0  0
  -18.2700  -39.8884   -5.7073 C   0  0  0  0  0  0  0  0  0  0  0  0
  -19.0602  -40.5385   -6.6179 C   0  0  0  0  0  0  0  0  0  0  0  0
  -19.1922  -36.3244   -6.3992 C   0  0  0  0  0  0  0  0  0  0  0  0
  -20.5219  -35.8232   -5.8757 C   0  0  0  0  0  0  0  0  0  0  0  0
  -18.1107  -35.7199   -5.5654 C   0  0  0  0  0  0  0  0  0  0  0  0
  -16.6593  -41.3578   -9.0417 C   0  0  1  0  0  0  0  0  0  0  0  0
  -16.0057  -40.8465  -10.2208 N   0  0  0  0  0  0  0  0  0  0  0  0
  -15.7491  -41.1418   -7.8657 C   0  0  0  0  0  0  0  0  0  0  0  0
  -14.3286  -41.4280   -8.2115 C   0  0  0  0  0  0  0  0  0  0  0  0
  -13.3206  -40.6260   -8.6373 C   0  0  0  0  0  0  0  0  0  0  0  0
  -12.0858  -41.1900   -8.9217 C   0  0  0  0  0  0  0  0  0  0  0  0
  -11.9001  -42.5651   -8.7635 C   0  0  0  0  0  0  0  0  0  0  0  0
  -12.8925  -43.4244   -8.3326 C   0  0  0  0  0  0  0  0  0  0  0  0
  -14.0859  -42.8149   -8.0699 C   0  0  0  0  0  0  0  0  0  0  0  0
  -10.9362  -40.5610   -9.3671 O   0  0  0  0  0  0  0  0  0  0  0  0
  -10.5351  -39.8178  -10.4498 C   0  0  0  0  0  0  0  0  0  0  0  0
  -10.8774  -38.3672  -10.2758 C   0  0  0  0  0  0  0  0  0  0  0  0
  -11.3455  -37.7207  -11.5537 C   0  0  0  0  0  0  0  0  0  0  0  0
  -12.4209  -36.7336  -11.2179 C   0  0  0  0  0  0  0  0  0  0  0  0
  -13.6434  -36.9695  -11.9611 N   0  0  0  0  0  0  0  0  0  0  0  0
  1  2  1  0
  2  3  1  0
  3  4  1  0
  4  5  2  0
  5  6  1  0
  6  7  2  0
  7  8  1  0
  8  9  2  0
  8 10  1  0
 10 11  2  0
 10 12  1  0
 12 13  1  0
 13 14  1  6
 14 15  1  0
 15 16  1  0
 16 17  1  0
 17 18  1  0
 16 19  1  0
 19 20  2  0
 20 21  1  0
 21 22  2  0
 22 23  1  0
 23 24  2  0
 21 25  1  0
 25 26  1  0
 25 27  1  0
 13 28  1  0
 28 29  1  6
 28 30  1  0
 30 31  1  0
 31 32  1  0
 32 33  2  0
 33 34  1  0
 34 35  2  0
 35 36  1  0
 33 37  1  0
 37 38  1  0
 38 39  1  0
 39 40  1  0
 40 41  1  0
 41 42  1  0
  9  4  1  0
 18 16  1  0
 24 19  1  0
 36 31  2  0
 42  6  1  0
M  END
$$$$
