
     RDKit          3D

 42 46  0  0  0  0  0  0  0  0999 V2000
  -11.4943  -35.3717  -10.1401 C   0  0  0  0  0  0  0  0  0  0  0  0
  -11.1709  -36.4135  -11.0042 O   0  0  0  0  0  0  0  0  0  0  0  0
  -10.7281  -37.5472  -10.2910 C   0  0  0  0  0  0  0  0  0  0  0  0
  -11.7706  -38.6097  -10.3220 C   0  0  0  0  0  0  0  0  0  0  0  0
  -11.7655  -39.6233  -11.2284 C   0  0  0  0  0  0  0  0  0  0  0  0
  -12.7468  -40.6565  -11.2732 C   0  0  0  0  0  0  0  0  0  0  0  0
  -13.7756  -40.6520  -10.3525 C   0  0  0  0  0  0  0  0  0  0  0  0
  -13.8119  -39.6242   -9.4096 C   0  0  0  0  0  0  0  0  0  0  0  0
  -12.8080  -38.6296   -9.4180 C   0  0  0  0  0  0  0  0  0  0  0  0
  -14.7840  -39.3336   -8.3386 C   0  0  0  0  0  0  0  0  0  0  0  0
  -14.1977  -38.9514   -7.2170 O   0  0  0  0  0  0  0  0  0  0  0  0
  -16.1275  -39.3766   -8.2706 O   0  0  0  0  0  0  0  0  0  0  0  0
  -17.2529  -38.9625   -8.8643 C   0  0  1  0  0  0  0  0  0  0  0  0
  -17.3767  -37.4624   -9.1421 C   0  0  0  0  0  0  0  0  0  0  0  0
  -17.5614  -36.7074   -7.9516 N   0  0  0  0  0  0  0  0  0  0  0  0
  -18.6896  -37.2014   -7.1876 C   0  0  0  0  0  0  0  0  0  0  0  0
  -18.3101  -37.9202   -5.9182 C   0  0  0  0  0  0  0  0  0  0  0  0
  -19.0491  -36.6130   -5.8730 C   0  0  0  0  0  0  0  0  0  0  0  0
  -19.8504  -37.7218   -7.9552 C   0  0  0  0  0  0  0  0  0  0  0  0
  -20.5872  -38.7948   -7.5219 C   0  0  0  0  0  0  0  0  0  0  0  0
  -21.6750  -39.2944   -8.2212 C   0  0  0  0  0  0  0  0  0  0  0  0
  -22.0305  -38.6916   -9.3982 C   0  0  0  0  0  0  0  0  0  0  0  0
  -21.3084  -37.6054   -9.8661 C   0  0  0  0  0  0  0  0  0  0  0  0
  -20.2398  -37.1391   -9.1473 C   0  0  0  0  0  0  0  0  0  0  0  0
  -22.4213  -40.4507   -7.6990 C   0  0  0  0  0  0  0  0  0  0  0  0
  -22.0559  -41.7392   -8.4060 C   0  0  0  0  0  0  0  0  0  0  0  0
  -22.2373  -40.6613   -6.2320 C   0  0  0  0  0  0  0  0  0  0  0  0
  -17.7579  -39.6419  -10.0917 C   0  0  1  0  0  0  0  0  0  0  0  0
  -16.7476  -39.6182  -11.1201 N   0  0  0  0  0  0  0  0  0  0  0  0
  -18.0852  -41.0758   -9.7838 C   0  0  0  0  0  0  0  0  0  0  0  0
  -18.1482  -41.9022  -11.0217 C   0  0  0  0  0  0  0  0  0  0  0  0
  -17.2176  -42.6614  -11.6525 C   0  0  0  0  0  0  0  0  0  0  0  0
  -17.5598  -43.3026  -12.8339 C   0  0  0  0  0  0  0  0  0  0  0  0
  -18.8493  -43.1596  -13.3504 C   0  0  0  0  0  0  0  0  0  0  0  0
  -19.8330  -42.3995  -12.7472 C   0  0  0  0  0  0  0  0  0  0  0  0
  -19.4394  -41.7907  -11.5901 C   0  0  0  0  0  0  0  0  0  0  0  0
  -16.7704  -44.1131  -13.6311 O   0  0  0  0  0  0  0  0  0  0  0  0
  -15.6042  -44.0121  -14.3488 C   0  0  0  0  0  0  0  0  0  0  0  0
  -14.4036  -44.2433  -13.4789 C   0  0  0  0  0  0  0  0  0  0  0  0
  -13.2534  -43.3307  -13.8169 C   0  0  0  0  0  0  0  0  0  0  0  0
  -12.5554  -42.9585  -12.5449 C   0  0  0  0  0  0  0  0  0  0  0  0
  -12.4516  -41.5230  -12.3677 N   0  0  0  0  0  0  0  0  0  0  0  0
  1  2  1  0
  2  3  1  0
  3  4  1  0
  4  5  2  0
  5  6  1  0
  6  7  2  0
  7  8  1  0
  8  9  2  0
  8 10  1  0
 10 11  2  0
 10 12  1  0
 12 13  1  0
 13 14  1  6
 14 15  1  0
 15 16  1  0
 16 17  1  0
 17 18  1  0
 16 19  1  0
 19 20  2  0
 20 21  1  0
 21 22  2  0
 22 23  1  0
 23 24  2  0
 21 25  1  0
 25 26  1  0
 25 27  1  0
 13 28  1  0
 28 29  1  6
 28 30  1  0
 30 31  1  0
 31 32  1  0
 32 33  2  0
 33 34  1  0
 34 35  2  0
 35 36  1  0
 33 37  1  0
 37 38  1  0
 38 39  1  0
 39 40  1  0
 40 41  1  0
 41 42  1  0
  9  4  1  0
 18 16  1  0
 24 19  1  0
 36 31  2  0
 42  6  1  0
M  END
$$$$
