
     RDKit          3D

 42 46  0  0  0  0  0  0  0  0999 V2000
  -13.0113  -43.6837   -7.4298 C   0  0  0  0  0  0  0  0  0  0  0  0
  -14.0841  -44.2752   -8.0900 O   0  0  0  0  0  0  0  0  0  0  0  0
  -13.9093  -44.2278   -9.4890 C   0  0  0  0  0  0  0  0  0  0  0  0
  -14.4256  -42.9384  -10.0250 C   0  0  0  0  0  0  0  0  0  0  0  0
  -13.6953  -42.1323  -10.8410 C   0  0  0  0  0  0  0  0  0  0  0  0
  -14.1701  -40.8981  -11.3738 C   0  0  0  0  0  0  0  0  0  0  0  0
  -15.4446  -40.4714  -11.0583 C   0  0  0  0  0  0  0  0  0  0  0  0
  -16.2202  -41.2741  -10.2209 C   0  0  0  0  0  0  0  0  0  0  0  0
  -15.6911  -42.4875   -9.7262 C   0  0  0  0  0  0  0  0  0  0  0  0
  -17.5810  -41.0762   -9.6866 C   0  0  0  0  0  0  0  0  0  0  0  0
  -18.2965  -42.1875   -9.7080 O   0  0  0  0  0  0  0  0  0  0  0  0
  -18.2341  -40.0103   -9.1877 O   0  0  0  0  0  0  0  0  0  0  0  0
  -18.1618  -39.0238   -8.2865 C   0  0  1  0  0  0  0  0  0  0  0  0
  -17.8441  -39.4264   -6.8443 C   0  0  0  0  0  0  0  0  0  0  0  0
  -18.8841  -39.0683   -5.9435 N   0  0  0  0  0  0  0  0  0  0  0  0
  -20.1691  -39.0354   -6.6131 C   0  0  0  0  0  0  0  0  0  0  0  0
  -21.3245  -38.6688   -5.7172 C   0  0  0  0  0  0  0  0  0  0  0  0
  -20.8935  -37.7583   -6.8318 C   0  0  0  0  0  0  0  0  0  0  0  0
  -20.4088  -40.0550   -7.6669 C   0  0  0  0  0  0  0  0  0  0  0  0
  -21.4731  -40.9190   -7.6147 C   0  0  0  0  0  0  0  0  0  0  0  0
  -21.7164  -41.8755   -8.5882 C   0  0  0  0  0  0  0  0  0  0  0  0
  -20.8560  -41.9638   -9.6498 C   0  0  0  0  0  0  0  0  0  0  0  0
  -19.7702  -41.1072   -9.7348 C   0  0  0  0  0  0  0  0  0  0  0  0
  -19.5624  -40.1739   -8.7540 C   0  0  0  0  0  0  0  0  0  0  0  0
  -22.8776  -42.7723   -8.4691 C   0  0  0  0  0  0  0  0  0  0  0  0
  -22.5512  -44.0391   -7.7061 C   0  0  0  0  0  0  0  0  0  0  0  0
  -24.0571  -42.1309   -7.8152 C   0  0  0  0  0  0  0  0  0  0  0  0
  -17.3402  -37.8089   -8.5553 C   0  0  1  0  0  0  0  0  0  0  0  0
  -15.9750  -38.1861   -8.8252 N   0  0  0  0  0  0  0  0  0  0  0  0
  -17.8770  -37.0849   -9.7577 C   0  0  0  0  0  0  0  0  0  0  0  0
  -16.8644  -36.1591  -10.3379 C   0  0  0  0  0  0  0  0  0  0  0  0
  -15.9544  -36.3192  -11.3312 C   0  0  0  0  0  0  0  0  0  0  0  0
  -15.0995  -35.2706  -11.6368 C   0  0  0  0  0  0  0  0  0  0  0  0
  -15.1905  -34.0733  -10.9236 C   0  0  0  0  0  0  0  0  0  0  0  0
  -16.0990  -33.8592   -9.9048 C   0  0  0  0  0  0  0  0  0  0  0  0
  -16.9123  -34.9252   -9.6466 C   0  0  0  0  0  0  0  0  0  0  0  0
  -14.1066  -35.2245  -12.5999 O   0  0  0  0  0  0  0  0  0  0  0  0
  -12.9448  -35.8925  -12.8990 C   0  0  0  0  0  0  0  0  0  0  0  0
  -13.2164  -37.1340  -13.6968 C   0  0  0  0  0  0  0  0  0  0  0  0
  -12.3348  -38.2887  -13.2977 C   0  0  0  0  0  0  0  0  0  0  0  0
  -13.1370  -39.5503  -13.3909 C   0  0  0  0  0  0  0  0  0  0  0  0
  -13.1322  -40.3045  -12.1525 N   0  0  0  0  0  0  0  0  0  0  0  0
  1  2  1  0
  2  3  1  0
  3  4  1  0
  4  5  2  0
  5  6  1  0
  6  7  2  0
  7  8  1  0
  8  9  2  0
  8 10  1  0
 10 11  2  0
 10 12  1  0
 12 13  1  0
 13 14  1  1
 14 15  1  0
 15 16  1  0
 16 17  1  0
 17 18  1  0
 16 19  1  0
 19 20  2  0
 20 21  1  0
 21 22  2  0
 22 23  1  0
 23 24  2  0
 21 25  1  0
 25 26  1  0
 25 27  1  0
 13 28  1  0
 28 29  1  6
 28 30  1  0
 30 31  1  0
 31 32  1  0
 32 33  2  0
 33 34  1  0
 34 35  2  0
 35 36  1  0
 33 37  1  0
 37 38  1  0
 38 39  1  0
 39 40  1  0
 40 41  1  0
 41 42  1  0
  9  4  1  0
 18 16  1  0
 24 19  1  0
 36 31  2  0
 42  6  1  0
M  END
$$$$
