
     RDKit          3D

 42 46  0  0  0  0  0  0  0  0999 V2000
  -15.5109  -46.8210  -10.4682 C   0  0  0  0  0  0  0  0  0  0  0  0
  -15.1754  -45.9428   -9.4422 O   0  0  0  0  0  0  0  0  0  0  0  0
  -16.2375  -45.0576   -9.1625 C   0  0  0  0  0  0  0  0  0  0  0  0
  -16.0074  -43.7526   -9.8412 C   0  0  0  0  0  0  0  0  0  0  0  0
  -14.7868  -43.3611  -10.2948 C   0  0  0  0  0  0  0  0  0  0  0  0
  -14.5427  -42.1212  -10.9550 C   0  0  0  0  0  0  0  0  0  0  0  0
  -15.5910  -41.2463  -11.1592 C   0  0  0  0  0  0  0  0  0  0  0  0
  -16.8568  -41.6164  -10.7036 C   0  0  0  0  0  0  0  0  0  0  0  0
  -17.0328  -42.8605  -10.0568 C   0  0  0  0  0  0  0  0  0  0  0  0
  -18.1434  -40.8956  -10.7432 C   0  0  0  0  0  0  0  0  0  0  0  0
  -19.1542  -41.6873  -11.0580 O   0  0  0  0  0  0  0  0  0  0  0  0
  -18.4943  -39.6144  -10.5266 O   0  0  0  0  0  0  0  0  0  0  0  0
  -18.4034  -38.6019   -9.6565 C   0  0  1  0  0  0  0  0  0  0  0  0
  -18.8124  -38.8936   -8.2106 C   0  0  0  0  0  0  0  0  0  0  0  0
  -20.2194  -38.8143   -8.0223 N   0  0  0  0  0  0  0  0  0  0  0  0
  -20.8549  -40.0919   -8.2763 C   0  0  0  0  0  0  0  0  0  0  0  0
  -21.2978  -40.2897   -9.7035 C   0  0  0  0  0  0  0  0  0  0  0  0
  -20.1992  -41.1276   -9.1136 C   0  0  0  0  0  0  0  0  0  0  0  0
  -21.7212  -40.6419   -7.2019 C   0  0  0  0  0  0  0  0  0  0  0  0
  -21.3881  -40.5399   -5.8749 C   0  0  0  0  0  0  0  0  0  0  0  0
  -22.1829  -41.0436   -4.8570 C   0  0  0  0  0  0  0  0  0  0  0  0
  -23.3529  -41.6727   -5.1893 C   0  0  0  0  0  0  0  0  0  0  0  0
  -23.7208  -41.7940   -6.5197 C   0  0  0  0  0  0  0  0  0  0  0  0
  -22.9100  -41.2829   -7.4983 C   0  0  0  0  0  0  0  0  0  0  0  0
  -21.7643  -40.9005   -3.4530 C   0  0  0  0  0  0  0  0  0  0  0  0
  -21.1968  -42.1856   -2.8872 C   0  0  0  0  0  0  0  0  0  0  0  0
  -20.7562  -39.8190   -3.2425 C   0  0  0  0  0  0  0  0  0  0  0  0
  -17.1570  -37.7887   -9.5656 C   0  0  1  0  0  0  0  0  0  0  0  0
  -16.0301  -38.6426   -9.2834 N   0  0  0  0  0  0  0  0  0  0  0  0
  -16.9058  -37.0912  -10.8727 C   0  0  0  0  0  0  0  0  0  0  0  0
  -15.4873  -36.6535  -10.9972 C   0  0  0  0  0  0  0  0  0  0  0  0
  -14.4022  -37.2458  -11.5560 C   0  0  0  0  0  0  0  0  0  0  0  0
  -13.1747  -36.6035  -11.4881 C   0  0  0  0  0  0  0  0  0  0  0  0
  -13.0765  -35.3640  -10.8522 C   0  0  0  0  0  0  0  0  0  0  0  0
  -14.1499  -34.7186  -10.2687 C   0  0  0  0  0  0  0  0  0  0  0  0
  -15.3308  -35.3976  -10.3641 C   0  0  0  0  0  0  0  0  0  0  0  0
  -11.9544  -37.0283  -11.9840 O   0  0  0  0  0  0  0  0  0  0  0  0
  -11.0970  -38.0869  -11.8122 C   0  0  0  0  0  0  0  0  0  0  0  0
  -11.4897  -39.2548  -12.6687 C   0  0  0  0  0  0  0  0  0  0  0  0
  -11.3080  -40.5776  -11.9709 C   0  0  0  0  0  0  0  0  0  0  0  0
  -12.4213  -41.4890  -12.3877 C   0  0  0  0  0  0  0  0  0  0  0  0
  -13.1512  -42.0278  -11.2565 N   0  0  0  0  0  0  0  0  0  0  0  0
  1  2  1  0
  2  3  1  0
  3  4  1  0
  4  5  2  0
  5  6  1  0
  6  7  2  0
  7  8  1  0
  8  9  2  0
  8 10  1  0
 10 11  2  0
 10 12  1  0
 12 13  1  0
 13 14  1  1
 14 15  1  0
 15 16  1  0
 16 17  1  0
 17 18  1  0
 16 19  1  0
 19 20  2  0
 20 21  1  0
 21 22  2  0
 22 23  1  0
 23 24  2  0
 21 25  1  0
 25 26  1  0
 25 27  1  0
 13 28  1  0
 28 29  1  6
 28 30  1  0
 30 31  1  0
 31 32  1  0
 32 33  2  0
 33 34  1  0
 34 35  2  0
 35 36  1  0
 33 37  1  0
 37 38  1  0
 38 39  1  0
 39 40  1  0
 40 41  1  0
 41 42  1  0
  9  4  1  0
 18 16  1  0
 24 19  1  0
 36 31  2  0
 42  6  1  0
M  END
$$$$
