
     RDKit          3D

 42 46  0  0  0  0  0  0  0  0999 V2000
  -13.5077  -32.8199  -12.0404 C   0  0  0  0  0  0  0  0  0  0  0  0
  -13.9972  -33.7942  -12.9052 O   0  0  0  0  0  0  0  0  0  0  0  0
  -15.1126  -34.4545  -12.3486 C   0  0  0  0  0  0  0  0  0  0  0  0
  -14.6736  -35.6831  -11.6312 C   0  0  0  0  0  0  0  0  0  0  0  0
  -13.4035  -36.1640  -11.6990 C   0  0  0  0  0  0  0  0  0  0  0  0
  -12.9569  -37.3324  -11.0151 C   0  0  0  0  0  0  0  0  0  0  0  0
  -13.8467  -38.0375  -10.2296 C   0  0  0  0  0  0  0  0  0  0  0  0
  -15.1591  -37.5724  -10.1401 C   0  0  0  0  0  0  0  0  0  0  0  0
  -15.5389  -36.4066  -10.8427 C   0  0  0  0  0  0  0  0  0  0  0  0
  -16.3270  -38.1166   -9.4215 C   0  0  0  0  0  0  0  0  0  0  0  0
  -17.0410  -37.1720   -8.8336 O   0  0  0  0  0  0  0  0  0  0  0  0
  -16.8084  -39.3610   -9.2449 O   0  0  0  0  0  0  0  0  0  0  0  0
  -17.1765  -40.4775   -9.8839 C   0  0  1  0  0  0  0  0  0  0  0  0
  -18.1775  -40.3198  -11.0311 C   0  0  0  0  0  0  0  0  0  0  0  0
  -19.4803  -39.9891  -10.5677 N   0  0  0  0  0  0  0  0  0  0  0  0
  -19.7415  -40.5820   -9.2713 C   0  0  0  0  0  0  0  0  0  0  0  0
  -19.9157  -42.0790   -9.2993 C   0  0  0  0  0  0  0  0  0  0  0  0
  -18.7406  -41.4521   -8.6043 C   0  0  0  0  0  0  0  0  0  0  0  0
  -20.5902  -39.8054   -8.3310 C   0  0  0  0  0  0  0  0  0  0  0  0
  -20.4853  -39.9461   -6.9704 C   0  0  0  0  0  0  0  0  0  0  0  0
  -21.2653  -39.2298   -6.0759 C   0  0  0  0  0  0  0  0  0  0  0  0
  -22.1830  -38.3423   -6.5711 C   0  0  0  0  0  0  0  0  0  0  0  0
  -22.3162  -38.1748   -7.9401 C   0  0  0  0  0  0  0  0  0  0  0  0
  -21.5272  -38.8997   -8.7934 C   0  0  0  0  0  0  0  0  0  0  0  0
  -21.1016  -39.4310   -4.6269 C   0  0  0  0  0  0  0  0  0  0  0  0
  -20.7124  -40.8536   -4.2832 C   0  0  0  0  0  0  0  0  0  0  0  0
  -20.0946  -38.5158   -4.0116 C   0  0  0  0  0  0  0  0  0  0  0  0
  -16.1528  -41.4447  -10.3735 C   0  0  1  0  0  0  0  0  0  0  0  0
  -15.2293  -40.7798  -11.2589 N   0  0  0  0  0  0  0  0  0  0  0  0
  -15.3775  -41.9995   -9.2119 C   0  0  0  0  0  0  0  0  0  0  0  0
  -14.0824  -42.5915   -9.6494 C   0  0  0  0  0  0  0  0  0  0  0  0
  -12.8309  -42.0740   -9.7296 C   0  0  0  0  0  0  0  0  0  0  0  0
  -11.8041  -42.8677  -10.2192 C   0  0  0  0  0  0  0  0  0  0  0  0
  -12.0726  -44.1793  -10.6165 C   0  0  0  0  0  0  0  0  0  0  0  0
  -13.3278  -44.7536  -10.5543 C   0  0  0  0  0  0  0  0  0  0  0  0
  -14.2986  -43.9262  -10.0670 C   0  0  0  0  0  0  0  0  0  0  0  0
  -10.4699  -42.5398  -10.3862 O   0  0  0  0  0  0  0  0  0  0  0  0
   -9.7253  -41.6260  -11.0904 C   0  0  0  0  0  0  0  0  0  0  0  0
   -9.6233  -40.3207  -10.3573 C   0  0  0  0  0  0  0  0  0  0  0  0
   -9.7032  -39.1283  -11.2747 C   0  0  0  0  0  0  0  0  0  0  0  0
  -10.4558  -38.0405  -10.5719 C   0  0  0  0  0  0  0  0  0  0  0  0
  -11.5867  -37.5602  -11.3420 N   0  0  0  0  0  0  0  0  0  0  0  0
  1  2  1  0
  2  3  1  0
  3  4  1  0
  4  5  2  0
  5  6  1  0
  6  7  2  0
  7  8  1  0
  8  9  2  0
  8 10  1  0
 10 11  2  0
 10 12  1  0
 12 13  1  0
 13 14  1  6
 14 15  1  0
 15 16  1  0
 16 17  1  0
 17 18  1  0
 16 19  1  0
 19 20  2  0
 20 21  1  0
 21 22  2  0
 22 23  1  0
 23 24  2  0
 21 25  1  0
 25 26  1  0
 25 27  1  0
 13 28  1  0
 28 29  1  6
 28 30  1  0
 30 31  1  0
 31 32  1  0
 32 33  2  0
 33 34  1  0
 34 35  2  0
 35 36  1  0
 33 37  1  0
 37 38  1  0
 38 39  1  0
 39 40  1  0
 40 41  1  0
 41 42  1  0
  9  4  1  0
 18 16  1  0
 24 19  1  0
 36 31  2  0
 42  6  1  0
M  END
$$$$
