
     RDKit          3D

 42 46  0  0  0  0  0  0  0  0999 V2000
   -9.2884  -41.9857   -7.6885 C   0  0  0  0  0  0  0  0  0  0  0  0
  -10.5345  -42.4579   -8.0899 O   0  0  0  0  0  0  0  0  0  0  0  0
  -11.5757  -41.7106   -7.5005 C   0  0  0  0  0  0  0  0  0  0  0  0
  -12.4548  -41.1378   -8.5568 C   0  0  0  0  0  0  0  0  0  0  0  0
  -11.9956  -40.3049   -9.5285 C   0  0  0  0  0  0  0  0  0  0  0  0
  -12.8151  -39.7508  -10.5552 C   0  0  0  0  0  0  0  0  0  0  0  0
  -14.1597  -40.0619  -10.5884 C   0  0  0  0  0  0  0  0  0  0  0  0
  -14.6642  -40.9123   -9.6039 C   0  0  0  0  0  0  0  0  0  0  0  0
  -13.7987  -41.4291   -8.6136 C   0  0  0  0  0  0  0  0  0  0  0  0
  -16.0368  -41.3941   -9.3583 C   0  0  0  0  0  0  0  0  0  0  0  0
  -16.0695  -42.6740   -9.0291 O   0  0  0  0  0  0  0  0  0  0  0  0
  -17.2463  -40.8051   -9.3995 O   0  0  0  0  0  0  0  0  0  0  0  0
  -17.9548  -39.7606   -8.9550 C   0  0  1  0  0  0  0  0  0  0  0  0
  -17.9574  -39.5195   -7.4435 C   0  0  0  0  0  0  0  0  0  0  0  0
  -18.4525  -40.6390   -6.7202 N   0  0  0  0  0  0  0  0  0  0  0  0
  -19.8934  -40.7425   -6.8367 C   0  0  0  0  0  0  0  0  0  0  0  0
  -20.3796  -42.0807   -7.3316 C   0  0  0  0  0  0  0  0  0  0  0  0
  -20.6802  -41.6196   -5.9337 C   0  0  0  0  0  0  0  0  0  0  0  0
  -20.6239  -39.5312   -7.2911 C   0  0  0  0  0  0  0  0  0  0  0  0
  -21.5385  -39.5735   -8.3128 C   0  0  0  0  0  0  0  0  0  0  0  0
  -22.2326  -38.4562   -8.7504 C   0  0  0  0  0  0  0  0  0  0  0  0
  -21.9949  -37.2552   -8.1371 C   0  0  0  0  0  0  0  0  0  0  0  0
  -21.0775  -37.1755   -7.1017 C   0  0  0  0  0  0  0  0  0  0  0  0
  -20.4112  -38.3013   -6.6959 C   0  0  0  0  0  0  0  0  0  0  0  0
  -23.1999  -38.5725   -9.8539 C   0  0  0  0  0  0  0  0  0  0  0  0
  -22.9452  -39.7903  -10.7173 C   0  0  0  0  0  0  0  0  0  0  0  0
  -24.6200  -38.6216   -9.3944 C   0  0  0  0  0  0  0  0  0  0  0  0
  -17.7944  -38.4148   -9.5767 C   0  0  1  0  0  0  0  0  0  0  0  0
  -16.4146  -38.0018   -9.5103 N   0  0  0  0  0  0  0  0  0  0  0  0
  -18.2029  -38.4678  -11.0218 C   0  0  0  0  0  0  0  0  0  0  0  0
  -17.6474  -37.3196  -11.7914 C   0  0  0  0  0  0  0  0  0  0  0  0
  -16.5142  -37.1841  -12.5248 C   0  0  0  0  0  0  0  0  0  0  0  0
  -16.2340  -35.9586  -13.1110 C   0  0  0  0  0  0  0  0  0  0  0  0
  -17.1184  -34.8914  -12.9402 C   0  0  0  0  0  0  0  0  0  0  0  0
  -18.2848  -34.9774  -12.2045 C   0  0  0  0  0  0  0  0  0  0  0  0
  -18.5078  -36.2050  -11.6497 C   0  0  0  0  0  0  0  0  0  0  0  0
  -15.1436  -35.6072  -13.8876 O   0  0  0  0  0  0  0  0  0  0  0  0
  -13.7780  -35.5443  -13.7586 C   0  0  0  0  0  0  0  0  0  0  0  0
  -13.1399  -36.8744  -14.0330 C   0  0  0  0  0  0  0  0  0  0  0  0
  -11.9860  -37.1696  -13.1103 C   0  0  0  0  0  0  0  0  0  0  0  0
  -11.9930  -38.6346  -12.7982 C   0  0  0  0  0  0  0  0  0  0  0  0
  -12.0138  -38.8989  -11.3726 N   0  0  0  0  0  0  0  0  0  0  0  0
  1  2  1  0
  2  3  1  0
  3  4  1  0
  4  5  2  0
  5  6  1  0
  6  7  2  0
  7  8  1  0
  8  9  2  0
  8 10  1  0
 10 11  2  0
 10 12  1  0
 12 13  1  0
 13 14  1  1
 14 15  1  0
 15 16  1  0
 16 17  1  0
 17 18  1  0
 16 19  1  0
 19 20  2  0
 20 21  1  0
 21 22  2  0
 22 23  1  0
 23 24  2  0
 21 25  1  0
 25 26  1  0
 25 27  1  0
 13 28  1  0
 28 29  1  6
 28 30  1  0
 30 31  1  0
 31 32  1  0
 32 33  2  0
 33 34  1  0
 34 35  2  0
 35 36  1  0
 33 37  1  0
 37 38  1  0
 38 39  1  0
 39 40  1  0
 40 41  1  0
 41 42  1  0
  9  4  1  0
 18 16  1  0
 24 19  1  0
 36 31  2  0
 42  6  1  0
M  END
$$$$
