
     RDKit          3D

 42 46  0  0  0  0  0  0  0  0999 V2000
  -17.9533  -33.7252  -12.8994 C   0  0  0  0  0  0  0  0  0  0  0  0
  -18.7160  -34.8358  -13.2481 O   0  0  0  0  0  0  0  0  0  0  0  0
  -17.8985  -35.8925  -13.7009 C   0  0  0  0  0  0  0  0  0  0  0  0
  -17.0060  -36.3548  -12.6026 C   0  0  0  0  0  0  0  0  0  0  0  0
  -15.7005  -35.9865  -12.5072 C   0  0  0  0  0  0  0  0  0  0  0  0
  -14.8285  -36.4084  -11.4611 C   0  0  0  0  0  0  0  0  0  0  0  0
  -15.3125  -37.2416  -10.4724 C   0  0  0  0  0  0  0  0  0  0  0  0
  -16.6477  -37.6407  -10.5418 C   0  0  0  0  0  0  0  0  0  0  0  0
  -17.4606  -37.1864  -11.6048 C   0  0  0  0  0  0  0  0  0  0  0  0
  -17.4320  -38.5358   -9.6700 C   0  0  0  0  0  0  0  0  0  0  0  0
  -18.6511  -38.0771   -9.4442 O   0  0  0  0  0  0  0  0  0  0  0  0
  -17.1643  -39.7085   -9.0661 O   0  0  0  0  0  0  0  0  0  0  0  0
  -16.7124  -40.9511   -9.2720 C   0  0  1  0  0  0  0  0  0  0  0  0
  -17.3768  -41.7515  -10.3948 C   0  0  0  0  0  0  0  0  0  0  0  0
  -18.7601  -41.9733  -10.1526 N   0  0  0  0  0  0  0  0  0  0  0  0
  -19.0651  -41.8854   -8.7384 C   0  0  0  0  0  0  0  0  0  0  0  0
  -19.0296  -43.2071   -8.0145 C   0  0  0  0  0  0  0  0  0  0  0  0
  -18.0259  -42.1322   -7.7075 C   0  0  0  0  0  0  0  0  0  0  0  0
  -20.1010  -40.9019   -8.3298 C   0  0  0  0  0  0  0  0  0  0  0  0
  -20.3667  -40.6303   -7.0116 C   0  0  0  0  0  0  0  0  0  0  0  0
  -21.3267  -39.7148   -6.6089 C   0  0  0  0  0  0  0  0  0  0  0  0
  -22.0436  -39.0519   -7.5689 C   0  0  0  0  0  0  0  0  0  0  0  0
  -21.8018  -39.3014   -8.9103 C   0  0  0  0  0  0  0  0  0  0  0  0
  -20.8444  -40.2125   -9.2702 C   0  0  0  0  0  0  0  0  0  0  0  0
  -21.5617  -39.4725   -5.1761 C   0  0  0  0  0  0  0  0  0  0  0  0
  -21.0075  -38.1393   -4.7189 C   0  0  0  0  0  0  0  0  0  0  0  0
  -23.0045  -39.5276   -4.7946 C   0  0  0  0  0  0  0  0  0  0  0  0
  -15.2506  -41.2157   -9.4000 C   0  0  1  0  0  0  0  0  0  0  0  0
  -14.6970  -40.4215  -10.4685 N   0  0  0  0  0  0  0  0  0  0  0  0
  -14.5505  -40.8440   -8.1234 C   0  0  0  0  0  0  0  0  0  0  0  0
  -13.0888  -40.6504   -8.3356 C   0  0  0  0  0  0  0  0  0  0  0  0
  -12.3506  -39.5434   -8.6005 C   0  0  0  0  0  0  0  0  0  0  0  0
  -10.9828  -39.6754   -8.7892 C   0  0  0  0  0  0  0  0  0  0  0  0
  -10.3907  -40.9371   -8.7011 C   0  0  0  0  0  0  0  0  0  0  0  0
  -11.0967  -42.0943   -8.4332 C   0  0  0  0  0  0  0  0  0  0  0  0
  -12.4376  -41.9044   -8.2588 C   0  0  0  0  0  0  0  0  0  0  0  0
  -10.0552  -38.6874   -9.0698 O   0  0  0  0  0  0  0  0  0  0  0  0
   -9.8206  -37.7593  -10.0543 C   0  0  0  0  0  0  0  0  0  0  0  0
  -10.6111  -36.5048   -9.8243 C   0  0  0  0  0  0  0  0  0  0  0  0
  -11.1537  -35.9148  -11.1000 C   0  0  0  0  0  0  0  0  0  0  0  0
  -12.5066  -35.3380  -10.8164 C   0  0  0  0  0  0  0  0  0  0  0  0
  -13.5308  -35.8641  -11.6976 N   0  0  0  0  0  0  0  0  0  0  0  0
  1  2  1  0
  2  3  1  0
  3  4  1  0
  4  5  2  0
  5  6  1  0
  6  7  2  0
  7  8  1  0
  8  9  2  0
  8 10  1  0
 10 11  2  0
 10 12  1  0
 12 13  1  0
 13 14  1  6
 14 15  1  0
 15 16  1  0
 16 17  1  0
 17 18  1  0
 16 19  1  0
 19 20  2  0
 20 21  1  0
 21 22  2  0
 22 23  1  0
 23 24  2  0
 21 25  1  0
 25 26  1  0
 25 27  1  0
 13 28  1  0
 28 29  1  6
 28 30  1  0
 30 31  1  0
 31 32  1  0
 32 33  2  0
 33 34  1  0
 34 35  2  0
 35 36  1  0
 33 37  1  0
 37 38  1  0
 38 39  1  0
 39 40  1  0
 40 41  1  0
 41 42  1  0
  9  4  1  0
 18 16  1  0
 24 19  1  0
 36 31  2  0
 42  6  1  0
M  END
$$$$
