
     RDKit          3D

 42 46  0  0  0  0  0  0  0  0999 V2000
  -11.4986  -43.6804   -7.7628 C   0  0  0  0  0  0  0  0  0  0  0  0
  -12.4286  -44.6335   -8.1669 O   0  0  0  0  0  0  0  0  0  0  0  0
  -13.7342  -44.2672   -7.7782 C   0  0  0  0  0  0  0  0  0  0  0  0
  -14.2576  -43.2060   -8.6817 C   0  0  0  0  0  0  0  0  0  0  0  0
  -13.4994  -42.6139   -9.6427 C   0  0  0  0  0  0  0  0  0  0  0  0
  -13.9797  -41.6025  -10.5252 C   0  0  0  0  0  0  0  0  0  0  0  0
  -15.2897  -41.1797  -10.4198 C   0  0  0  0  0  0  0  0  0  0  0  0
  -16.0948  -41.7653   -9.4420 C   0  0  0  0  0  0  0  0  0  0  0  0
  -15.5583  -42.7641   -8.5984 C   0  0  0  0  0  0  0  0  0  0  0  0
  -17.4984  -41.5070   -9.0686 C   0  0  0  0  0  0  0  0  0  0  0  0
  -18.1673  -42.6209   -8.8249 O   0  0  0  0  0  0  0  0  0  0  0  0
  -18.2275  -40.3846   -8.9263 O   0  0  0  0  0  0  0  0  0  0  0  0
  -18.2608  -39.1864   -8.3316 C   0  0  1  0  0  0  0  0  0  0  0  0
  -18.0373  -39.1593   -6.8176 C   0  0  0  0  0  0  0  0  0  0  0  0
  -19.0206  -38.3862   -6.1416 N   0  0  0  0  0  0  0  0  0  0  0  0
  -20.3544  -38.7156   -6.6031 C   0  0  0  0  0  0  0  0  0  0  0  0
  -21.3491  -37.5903   -6.4745 C   0  0  0  0  0  0  0  0  0  0  0  0
  -20.9244  -38.0938   -7.8247 C   0  0  0  0  0  0  0  0  0  0  0  0
  -20.8372  -40.0969   -6.3457 C   0  0  0  0  0  0  0  0  0  0  0  0
  -20.1564  -41.2008   -6.7928 C   0  0  0  0  0  0  0  0  0  0  0  0
  -20.5878  -42.4978   -6.5615 C   0  0  0  0  0  0  0  0  0  0  0  0
  -21.7461  -42.6872   -5.8563 C   0  0  0  0  0  0  0  0  0  0  0  0
  -22.4598  -41.5949   -5.3897 C   0  0  0  0  0  0  0  0  0  0  0  0
  -22.0019  -40.3279   -5.6370 C   0  0  0  0  0  0  0  0  0  0  0  0
  -19.8085  -43.6377   -7.0715 C   0  0  0  0  0  0  0  0  0  0  0  0
  -19.3044  -44.5342   -5.9599 C   0  0  0  0  0  0  0  0  0  0  0  0
  -20.5642  -44.4857   -8.0411 C   0  0  0  0  0  0  0  0  0  0  0  0
  -17.4684  -38.0466   -8.8757 C   0  0  1  0  0  0  0  0  0  0  0  0
  -16.0734  -38.4042   -8.9456 N   0  0  0  0  0  0  0  0  0  0  0  0
  -17.9406  -37.7121  -10.2625 C   0  0  0  0  0  0  0  0  0  0  0  0
  -16.9234  -36.9242  -11.0132 C   0  0  0  0  0  0  0  0  0  0  0  0
  -15.9359  -37.2979  -11.8650 C   0  0  0  0  0  0  0  0  0  0  0  0
  -15.1011  -36.3258  -12.3962 C   0  0  0  0  0  0  0  0  0  0  0  0
  -15.2911  -34.9862  -12.0503 C   0  0  0  0  0  0  0  0  0  0  0  0
  -16.2812  -34.5536  -11.1890 C   0  0  0  0  0  0  0  0  0  0  0  0
  -17.0703  -35.5529  -10.6958 C   0  0  0  0  0  0  0  0  0  0  0  0
  -14.0411  -36.4885  -13.2711 O   0  0  0  0  0  0  0  0  0  0  0  0
  -12.8355  -37.1449  -13.3009 C   0  0  0  0  0  0  0  0  0  0  0  0
  -12.9987  -38.5710  -13.7381 C   0  0  0  0  0  0  0  0  0  0  0  0
  -12.1061  -39.5194  -12.9807 C   0  0  0  0  0  0  0  0  0  0  0  0
  -12.8501  -40.8022  -12.7694 C   0  0  0  0  0  0  0  0  0  0  0  0
  -12.9096  -41.1865  -11.3725 N   0  0  0  0  0  0  0  0  0  0  0  0
  1  2  1  0
  2  3  1  0
  3  4  1  0
  4  5  2  0
  5  6  1  0
  6  7  2  0
  7  8  1  0
  8  9  2  0
  8 10  1  0
 10 11  2  0
 10 12  1  0
 12 13  1  0
 13 14  1  1
 14 15  1  0
 15 16  1  0
 16 17  1  0
 17 18  1  0
 16 19  1  0
 19 20  2  0
 20 21  1  0
 21 22  2  0
 22 23  1  0
 23 24  2  0
 21 25  1  0
 25 26  1  0
 25 27  1  0
 13 28  1  0
 28 29  1  6
 28 30  1  0
 30 31  1  0
 31 32  1  0
 32 33  2  0
 33 34  1  0
 34 35  2  0
 35 36  1  0
 33 37  1  0
 37 38  1  0
 38 39  1  0
 39 40  1  0
 40 41  1  0
 41 42  1  0
  9  4  1  0
 18 16  1  0
 24 19  1  0
 36 31  2  0
 42  6  1  0
M  END
$$$$
