
     RDKit          3D

 42 46  0  0  0  0  0  0  0  0999 V2000
  -12.0262  -44.6121   -9.7979 C   0  0  0  0  0  0  0  0  0  0  0  0
  -11.6540  -43.4063   -9.2113 O   0  0  0  0  0  0  0  0  0  0  0  0
  -12.7646  -42.7590   -8.6303 C   0  0  0  0  0  0  0  0  0  0  0  0
  -13.1911  -41.6138   -9.4807 C   0  0  0  0  0  0  0  0  0  0  0  0
  -12.4622  -40.4723   -9.6023 C   0  0  0  0  0  0  0  0  0  0  0  0
  -12.8447  -39.3662  -10.4164 C   0  0  0  0  0  0  0  0  0  0  0  0
  -14.0215  -39.4310  -11.1354 C   0  0  0  0  0  0  0  0  0  0  0  0
  -14.7949  -40.5877  -11.0311 C   0  0  0  0  0  0  0  0  0  0  0  0
  -14.3595  -41.6499  -10.2070 C   0  0  0  0  0  0  0  0  0  0  0  0
  -16.0933  -40.9362  -11.6387 C   0  0  0  0  0  0  0  0  0  0  0  0
  -16.1291  -42.1863  -12.0670 O   0  0  0  0  0  0  0  0  0  0  0  0
  -17.2339  -40.2514  -11.8427 O   0  0  0  0  0  0  0  0  0  0  0  0
  -18.1622  -39.4961  -11.2440 C   0  0  1  0  0  0  0  0  0  0  0  0
  -18.8027  -40.0639   -9.9750 C   0  0  0  0  0  0  0  0  0  0  0  0
  -18.8873  -41.4829  -10.0028 N   0  0  0  0  0  0  0  0  0  0  0  0
  -19.3843  -42.0028   -8.7445 C   0  0  0  0  0  0  0  0  0  0  0  0
  -20.7291  -42.6768   -8.8415 C   0  0  0  0  0  0  0  0  0  0  0  0
  -19.4949  -43.4632   -8.5022 C   0  0  0  0  0  0  0  0  0  0  0  0
  -19.0972  -41.2070   -7.5232 C   0  0  0  0  0  0  0  0  0  0  0  0
  -20.0495  -40.4192   -6.9276 C   0  0  0  0  0  0  0  0  0  0  0  0
  -19.8034  -39.6711   -5.7868 C   0  0  0  0  0  0  0  0  0  0  0  0
  -18.5538  -39.7184   -5.2288 C   0  0  0  0  0  0  0  0  0  0  0  0
  -17.5674  -40.5034   -5.8041 C   0  0  0  0  0  0  0  0  0  0  0  0
  -17.8479  -41.2298   -6.9309 C   0  0  0  0  0  0  0  0  0  0  0  0
  -20.8715  -38.8455   -5.1998 C   0  0  0  0  0  0  0  0  0  0  0  0
  -21.5635  -37.9798   -6.2319 C   0  0  0  0  0  0  0  0  0  0  0  0
  -21.9164  -39.6441   -4.4921 C   0  0  0  0  0  0  0  0  0  0  0  0
  -17.8982  -38.0579  -10.9523 C   0  0  1  0  0  0  0  0  0  0  0  0
  -16.7131  -37.9282  -10.1414 N   0  0  0  0  0  0  0  0  0  0  0  0
  -17.6768  -37.3087  -12.2360 C   0  0  0  0  0  0  0  0  0  0  0  0
  -16.9740  -36.0161  -12.0026 C   0  0  0  0  0  0  0  0  0  0  0  0
  -15.6603  -35.6797  -12.0392 C   0  0  0  0  0  0  0  0  0  0  0  0
  -15.2898  -34.3779  -11.7356 C   0  0  0  0  0  0  0  0  0  0  0  0
  -16.2689  -33.4397  -11.4021 C   0  0  0  0  0  0  0  0  0  0  0  0
  -17.6187  -33.7307  -11.3512 C   0  0  0  0  0  0  0  0  0  0  0  0
  -17.9242  -35.0260  -11.6570 C   0  0  0  0  0  0  0  0  0  0  0  0
  -14.0189  -33.8304  -11.7097 O   0  0  0  0  0  0  0  0  0  0  0  0
  -12.8373  -34.0280  -11.0389 C   0  0  0  0  0  0  0  0  0  0  0  0
  -12.0135  -35.1030  -11.6850 C   0  0  0  0  0  0  0  0  0  0  0  0
  -11.3110  -35.9816  -10.6828 C   0  0  0  0  0  0  0  0  0  0  0  0
  -11.2980  -37.3836  -11.2101 C   0  0  0  0  0  0  0  0  0  0  0  0
  -11.8697  -38.3339  -10.2759 N   0  0  0  0  0  0  0  0  0  0  0  0
  1  2  1  0
  2  3  1  0
  3  4  1  0
  4  5  2  0
  5  6  1  0
  6  7  2  0
  7  8  1  0
  8  9  2  0
  8 10  1  0
 10 11  2  0
 10 12  1  0
 12 13  1  0
 13 14  1  1
 14 15  1  0
 15 16  1  0
 16 17  1  0
 17 18  1  0
 16 19  1  0
 19 20  2  0
 20 21  1  0
 21 22  2  0
 22 23  1  0
 23 24  2  0
 21 25  1  0
 25 26  1  0
 25 27  1  0
 13 28  1  0
 28 29  1  1
 28 30  1  0
 30 31  1  0
 31 32  1  0
 32 33  2  0
 33 34  1  0
 34 35  2  0
 35 36  1  0
 33 37  1  0
 37 38  1  0
 38 39  1  0
 39 40  1  0
 40 41  1  0
 41 42  1  0
  9  4  1  0
 18 16  1  0
 24 19  1  0
 36 31  2  0
 42  6  1  0
M  END
$$$$
