
     RDKit          3D

 42 46  0  0  0  0  0  0  0  0999 V2000
  -13.2013  -44.7606  -10.1819 C   0  0  0  0  0  0  0  0  0  0  0  0
  -12.6146  -44.8012   -8.9206 O   0  0  0  0  0  0  0  0  0  0  0  0
  -12.8181  -43.5905   -8.2257 C   0  0  0  0  0  0  0  0  0  0  0  0
  -13.4652  -42.5910   -9.1194 C   0  0  0  0  0  0  0  0  0  0  0  0
  -12.7854  -41.9087  -10.0792 C   0  0  0  0  0  0  0  0  0  0  0  0
  -13.3839  -40.9537  -10.9524 C   0  0  0  0  0  0  0  0  0  0  0  0
  -14.7334  -40.6860  -10.8383 C   0  0  0  0  0  0  0  0  0  0  0  0
  -15.4604  -41.3672   -9.8614 C   0  0  0  0  0  0  0  0  0  0  0  0
  -14.8079  -42.3029   -9.0274 C   0  0  0  0  0  0  0  0  0  0  0  0
  -16.8826  -41.2755   -9.4801 C   0  0  0  0  0  0  0  0  0  0  0  0
  -17.4170  -42.4609   -9.2416 O   0  0  0  0  0  0  0  0  0  0  0  0
  -17.7358  -40.2459   -9.3266 O   0  0  0  0  0  0  0  0  0  0  0  0
  -17.9044  -39.0637   -8.7231 C   0  0  1  0  0  0  0  0  0  0  0  0
  -17.6779  -39.0210   -7.2100 C   0  0  0  0  0  0  0  0  0  0  0  0
  -18.7508  -38.3907   -6.5221 N   0  0  0  0  0  0  0  0  0  0  0  0
  -20.0235  -38.6962   -7.1445 C   0  0  0  0  0  0  0  0  0  0  0  0
  -21.0107  -37.5572   -7.1257 C   0  0  0  0  0  0  0  0  0  0  0  0
  -20.4330  -38.0560   -8.4197 C   0  0  0  0  0  0  0  0  0  0  0  0
  -20.5532  -40.0721   -6.9609 C   0  0  0  0  0  0  0  0  0  0  0  0
  -20.7904  -40.6006   -5.7173 C   0  0  0  0  0  0  0  0  0  0  0  0
  -21.2865  -41.8805   -5.5239 C   0  0  0  0  0  0  0  0  0  0  0  0
  -21.5510  -42.6538   -6.6225 C   0  0  0  0  0  0  0  0  0  0  0  0
  -21.3231  -42.1523   -7.8940 C   0  0  0  0  0  0  0  0  0  0  0  0
  -20.8330  -40.8824   -8.0459 C   0  0  0  0  0  0  0  0  0  0  0  0
  -21.5167  -42.3856   -4.1605 C   0  0  0  0  0  0  0  0  0  0  0  0
  -20.5474  -41.7969   -3.1568 C   0  0  0  0  0  0  0  0  0  0  0  0
  -22.9029  -42.1380   -3.6631 C   0  0  0  0  0  0  0  0  0  0  0  0
  -17.2519  -37.8362   -9.2623 C   0  0  1  0  0  0  0  0  0  0  0  0
  -15.8252  -38.0296   -9.3407 N   0  0  0  0  0  0  0  0  0  0  0  0
  -17.7666  -37.5493  -10.6446 C   0  0  0  0  0  0  0  0  0  0  0  0
  -16.8511  -36.6440  -11.3940 C   0  0  0  0  0  0  0  0  0  0  0  0
  -15.8313  -36.8953  -12.2526 C   0  0  0  0  0  0  0  0  0  0  0  0
  -15.1172  -35.8296  -12.7803 C   0  0  0  0  0  0  0  0  0  0  0  0
  -15.4590  -34.5234  -12.4239 C   0  0  0  0  0  0  0  0  0  0  0  0
  -16.4881  -34.2139  -11.5553 C   0  0  0  0  0  0  0  0  0  0  0  0
  -17.1539  -35.3011  -11.0660 C   0  0  0  0  0  0  0  0  0  0  0  0
  -14.0499  -35.8628  -13.6609 O   0  0  0  0  0  0  0  0  0  0  0  0
  -12.7767  -36.3752  -13.7005 C   0  0  0  0  0  0  0  0  0  0  0  0
  -12.7761  -37.8077  -14.1473 C   0  0  0  0  0  0  0  0  0  0  0  0
  -11.7761  -38.6516  -13.4006 C   0  0  0  0  0  0  0  0  0  0  0  0
  -12.3657  -40.0132  -13.1955 C   0  0  0  0  0  0  0  0  0  0  0  0
  -12.3733  -40.4111  -11.8012 N   0  0  0  0  0  0  0  0  0  0  0  0
  1  2  1  0
  2  3  1  0
  3  4  1  0
  4  5  2  0
  5  6  1  0
  6  7  2  0
  7  8  1  0
  8  9  2  0
  8 10  1  0
 10 11  2  0
 10 12  1  0
 12 13  1  0
 13 14  1  1
 14 15  1  0
 15 16  1  0
 16 17  1  0
 17 18  1  0
 16 19  1  0
 19 20  2  0
 20 21  1  0
 21 22  2  0
 22 23  1  0
 23 24  2  0
 21 25  1  0
 25 26  1  0
 25 27  1  0
 13 28  1  0
 28 29  1  6
 28 30  1  0
 30 31  1  0
 31 32  1  0
 32 33  2  0
 33 34  1  0
 34 35  2  0
 35 36  1  0
 33 37  1  0
 37 38  1  0
 38 39  1  0
 39 40  1  0
 40 41  1  0
 41 42  1  0
  9  4  1  0
 18 16  1  0
 24 19  1  0
 36 31  2  0
 42  6  1  0
M  END
$$$$
