
     RDKit          3D

 42 46  0  0  0  0  0  0  0  0999 V2000
  -14.1447  -46.5714  -10.3727 C   0  0  0  0  0  0  0  0  0  0  0  0
  -13.1386  -45.6241  -10.2080 O   0  0  0  0  0  0  0  0  0  0  0  0
  -13.5090  -44.6483   -9.2590 C   0  0  0  0  0  0  0  0  0  0  0  0
  -13.7058  -43.3332   -9.9285 C   0  0  0  0  0  0  0  0  0  0  0  0
  -12.7032  -42.6711  -10.5653 C   0  0  0  0  0  0  0  0  0  0  0  0
  -12.8684  -41.4158  -11.2207 C   0  0  0  0  0  0  0  0  0  0  0  0
  -14.1107  -40.8135  -11.2244 C   0  0  0  0  0  0  0  0  0  0  0  0
  -15.1613  -41.4652  -10.5776 C   0  0  0  0  0  0  0  0  0  0  0  0
  -14.9322  -42.7088   -9.9468 C   0  0  0  0  0  0  0  0  0  0  0  0
  -16.5685  -41.0669  -10.3842 C   0  0  0  0  0  0  0  0  0  0  0  0
  -17.4049  -42.0770  -10.5511 O   0  0  0  0  0  0  0  0  0  0  0  0
  -17.1672  -39.9015  -10.0761 O   0  0  0  0  0  0  0  0  0  0  0  0
  -17.1711  -38.8866   -9.2040 C   0  0  1  0  0  0  0  0  0  0  0  0
  -17.2540  -39.2506   -7.7196 C   0  0  0  0  0  0  0  0  0  0  0  0
  -18.3962  -38.6852   -7.0892 N   0  0  0  0  0  0  0  0  0  0  0  0
  -19.5447  -39.5620   -7.2022 C   0  0  0  0  0  0  0  0  0  0  0  0
  -19.2380  -41.0177   -6.9595 C   0  0  0  0  0  0  0  0  0  0  0  0
  -20.1139  -40.2459   -6.0139 C   0  0  0  0  0  0  0  0  0  0  0  0
  -20.5469  -39.2325   -8.2483 C   0  0  0  0  0  0  0  0  0  0  0  0
  -21.4435  -40.1601   -8.7149 C   0  0  0  0  0  0  0  0  0  0  0  0
  -22.3879  -39.8729   -9.6882 C   0  0  0  0  0  0  0  0  0  0  0  0
  -22.4282  -38.6072  -10.2092 C   0  0  0  0  0  0  0  0  0  0  0  0
  -21.5373  -37.6449   -9.7615 C   0  0  0  0  0  0  0  0  0  0  0  0
  -20.6185  -37.9655   -8.7976 C   0  0  0  0  0  0  0  0  0  0  0  0
  -23.3198  -40.9170  -10.1445 C   0  0  0  0  0  0  0  0  0  0  0  0
  -24.7224  -40.3857  -10.3544 C   0  0  0  0  0  0  0  0  0  0  0  0
  -22.8868  -41.5874  -11.4068 C   0  0  0  0  0  0  0  0  0  0  0  0
  -16.1514  -37.8027   -9.2961 C   0  0  1  0  0  0  0  0  0  0  0  0
  -14.8256  -38.3654   -9.2278 N   0  0  0  0  0  0  0  0  0  0  0  0
  -16.2911  -37.0799  -10.6060 C   0  0  0  0  0  0  0  0  0  0  0  0
  -15.0548  -36.3230  -10.9495 C   0  0  0  0  0  0  0  0  0  0  0  0
  -13.9703  -36.6502  -11.6961 C   0  0  0  0  0  0  0  0  0  0  0  0
  -12.9327  -35.7371  -11.8126 C   0  0  0  0  0  0  0  0  0  0  0  0
  -13.0215  -34.5025  -11.1661 C   0  0  0  0  0  0  0  0  0  0  0  0
  -14.1031  -34.1207  -10.3956 C   0  0  0  0  0  0  0  0  0  0  0  0
  -15.0921  -35.0587  -10.3149 C   0  0  0  0  0  0  0  0  0  0  0  0
  -11.7471  -35.8691  -12.5144 O   0  0  0  0  0  0  0  0  0  0  0  0
  -10.6503  -36.6952  -12.5165 C   0  0  0  0  0  0  0  0  0  0  0  0
  -10.8971  -37.9317  -13.3300 C   0  0  0  0  0  0  0  0  0  0  0  0
  -10.2984  -39.1673  -12.7100 C   0  0  0  0  0  0  0  0  0  0  0  0
  -11.2220  -40.3189  -12.9640 C   0  0  0  0  0  0  0  0  0  0  0  0
  -11.6072  -41.0017  -11.7442 N   0  0  0  0  0  0  0  0  0  0  0  0
  1  2  1  0
  2  3  1  0
  3  4  1  0
  4  5  2  0
  5  6  1  0
  6  7  2  0
  7  8  1  0
  8  9  2  0
  8 10  1  0
 10 11  2  0
 10 12  1  0
 12 13  1  0
 13 14  1  1
 14 15  1  0
 15 16  1  0
 16 17  1  0
 17 18  1  0
 16 19  1  0
 19 20  2  0
 20 21  1  0
 21 22  2  0
 22 23  1  0
 23 24  2  0
 21 25  1  0
 25 26  1  0
 25 27  1  0
 13 28  1  0
 28 29  1  6
 28 30  1  0
 30 31  1  0
 31 32  1  0
 32 33  2  0
 33 34  1  0
 34 35  2  0
 35 36  1  0
 33 37  1  0
 37 38  1  0
 38 39  1  0
 39 40  1  0
 40 41  1  0
 41 42  1  0
  9  4  1  0
 18 16  1  0
 24 19  1  0
 36 31  2  0
 42  6  1  0
M  END
$$$$
