
     RDKit          3D

 42 46  0  0  0  0  0  0  0  0999 V2000
  -14.9026  -47.1369   -7.9040 C   0  0  0  0  0  0  0  0  0  0  0  0
  -14.8211  -46.2368   -8.9623 O   0  0  0  0  0  0  0  0  0  0  0  0
  -13.8635  -45.2336   -8.7042 C   0  0  0  0  0  0  0  0  0  0  0  0
  -14.1692  -44.0170   -9.5062 C   0  0  0  0  0  0  0  0  0  0  0  0
  -13.2701  -43.4429  -10.3493 C   0  0  0  0  0  0  0  0  0  0  0  0
  -13.5416  -42.2838  -11.1338 C   0  0  0  0  0  0  0  0  0  0  0  0
  -14.7842  -41.6880  -11.0519 C   0  0  0  0  0  0  0  0  0  0  0  0
  -15.7299  -42.2507  -10.1940 C   0  0  0  0  0  0  0  0  0  0  0  0
  -15.3985  -43.4013   -9.4436 C   0  0  0  0  0  0  0  0  0  0  0  0
  -17.1069  -41.8315   -9.8705 C   0  0  0  0  0  0  0  0  0  0  0  0
  -17.9397  -42.8554   -9.7942 O   0  0  0  0  0  0  0  0  0  0  0  0
  -17.6811  -40.6363   -9.6393 O   0  0  0  0  0  0  0  0  0  0  0  0
  -17.5895  -39.5165   -8.9127 C   0  0  1  0  0  0  0  0  0  0  0  0
  -17.4719  -39.6840   -7.3958 C   0  0  0  0  0  0  0  0  0  0  0  0
  -18.4689  -40.5509   -6.8706 N   0  0  0  0  0  0  0  0  0  0  0  0
  -19.7613  -39.8965   -6.8253 C   0  0  0  0  0  0  0  0  0  0  0  0
  -20.5734  -40.2151   -5.5961 C   0  0  0  0  0  0  0  0  0  0  0  0
  -20.0513  -38.8272   -5.8373 C   0  0  0  0  0  0  0  0  0  0  0  0
  -20.4875  -39.7439   -8.1125 C   0  0  0  0  0  0  0  0  0  0  0  0
  -21.0616  -38.5557   -8.4875 C   0  0  0  0  0  0  0  0  0  0  0  0
  -21.7412  -38.3912   -9.6846 C   0  0  0  0  0  0  0  0  0  0  0  0
  -21.8459  -39.4622  -10.5313 C   0  0  0  0  0  0  0  0  0  0  0  0
  -21.2783  -40.6778  -10.1845 C   0  0  0  0  0  0  0  0  0  0  0  0
  -20.6135  -40.8023   -8.9934 C   0  0  0  0  0  0  0  0  0  0  0  0
  -22.3348  -37.0877  -10.0242 C   0  0  0  0  0  0  0  0  0  0  0  0
  -22.6081  -36.2421   -8.7979 C   0  0  0  0  0  0  0  0  0  0  0  0
  -21.4983  -36.2821  -10.9630 C   0  0  0  0  0  0  0  0  0  0  0  0
  -16.6099  -38.4531   -9.2771 C   0  0  1  0  0  0  0  0  0  0  0  0
  -15.2767  -39.0011   -9.3116 N   0  0  0  0  0  0  0  0  0  0  0  0
  -16.9318  -37.9072  -10.6396 C   0  0  0  0  0  0  0  0  0  0  0  0
  -15.7645  -37.2007  -11.2374 C   0  0  0  0  0  0  0  0  0  0  0  0
  -14.7808  -37.6216  -12.0715 C   0  0  0  0  0  0  0  0  0  0  0  0
  -13.7836  -36.7307  -12.4402 C   0  0  0  0  0  0  0  0  0  0  0  0
  -13.8095  -35.4224  -11.9525 C   0  0  0  0  0  0  0  0  0  0  0  0
  -14.7882  -34.9443  -11.1024 C   0  0  0  0  0  0  0  0  0  0  0  0
  -15.7414  -35.8645  -10.7720 C   0  0  0  0  0  0  0  0  0  0  0  0
  -12.6974  -36.9522  -13.2688 O   0  0  0  0  0  0  0  0  0  0  0  0
  -11.5956  -37.7707  -13.3084 C   0  0  0  0  0  0  0  0  0  0  0  0
  -11.9241  -39.1028  -13.9159 C   0  0  0  0  0  0  0  0  0  0  0  0
  -11.2278  -40.2467  -13.2256 C   0  0  0  0  0  0  0  0  0  0  0  0
  -12.1560  -41.4223  -13.2052 C   0  0  0  0  0  0  0  0  0  0  0  0
  -12.3668  -41.9405  -11.8675 N   0  0  0  0  0  0  0  0  0  0  0  0
  1  2  1  0
  2  3  1  0
  3  4  1  0
  4  5  2  0
  5  6  1  0
  6  7  2  0
  7  8  1  0
  8  9  2  0
  8 10  1  0
 10 11  2  0
 10 12  1  0
 12 13  1  0
 13 14  1  1
 14 15  1  0
 15 16  1  0
 16 17  1  0
 17 18  1  0
 16 19  1  0
 19 20  2  0
 20 21  1  0
 21 22  2  0
 22 23  1  0
 23 24  2  0
 21 25  1  0
 25 26  1  0
 25 27  1  0
 13 28  1  0
 28 29  1  6
 28 30  1  0
 30 31  1  0
 31 32  1  0
 32 33  2  0
 33 34  1  0
 34 35  2  0
 35 36  1  0
 33 37  1  0
 37 38  1  0
 38 39  1  0
 39 40  1  0
 40 41  1  0
 41 42  1  0
  9  4  1  0
 18 16  1  0
 24 19  1  0
 36 31  2  0
 42  6  1  0
M  END
$$$$
