
     RDKit          3D

 42 46  0  0  0  0  0  0  0  0999 V2000
  -21.3264  -44.4318   -9.2485 C   0  0  0  0  0  0  0  0  0  0  0  0
  -20.3109  -43.5049   -9.4632 O   0  0  0  0  0  0  0  0  0  0  0  0
  -19.8247  -43.5800  -10.7853 C   0  0  0  0  0  0  0  0  0  0  0  0
  -18.5185  -42.8732  -10.8903 C   0  0  0  0  0  0  0  0  0  0  0  0
  -17.3939  -43.4669  -11.3714 C   0  0  0  0  0  0  0  0  0  0  0  0
  -16.1345  -42.8092  -11.4898 C   0  0  0  0  0  0  0  0  0  0  0  0
  -16.0217  -41.4897  -11.0997 C   0  0  0  0  0  0  0  0  0  0  0  0
  -17.1567  -40.8510  -10.5989 C   0  0  0  0  0  0  0  0  0  0  0  0
  -18.3763  -41.5588  -10.5077 C   0  0  0  0  0  0  0  0  0  0  0  0
  -17.3415  -39.4825  -10.0797 C   0  0  0  0  0  0  0  0  0  0  0  0
  -18.4746  -38.9380  -10.4886 O   0  0  0  0  0  0  0  0  0  0  0  0
  -16.6031  -38.6858   -9.2850 O   0  0  0  0  0  0  0  0  0  0  0  0
  -15.9670  -38.6232   -8.1095 C   0  0  1  0  0  0  0  0  0  0  0  0
  -16.7703  -39.0142   -6.8667 C   0  0  0  0  0  0  0  0  0  0  0  0
  -18.1025  -38.5192   -6.9085 N   0  0  0  0  0  0  0  0  0  0  0  0
  -19.0613  -39.6022   -7.0000 C   0  0  0  0  0  0  0  0  0  0  0  0
  -18.4439  -40.9566   -7.2378 C   0  0  0  0  0  0  0  0  0  0  0  0
  -19.1496  -40.6463   -5.9484 C   0  0  0  0  0  0  0  0  0  0  0  0
  -20.3546  -39.3057   -7.6683 C   0  0  0  0  0  0  0  0  0  0  0  0
  -21.2244  -40.2983   -8.0429 C   0  0  0  0  0  0  0  0  0  0  0  0
  -22.4367  -40.0435   -8.6651 C   0  0  0  0  0  0  0  0  0  0  0  0
  -22.7826  -38.7431   -8.9188 C   0  0  0  0  0  0  0  0  0  0  0  0
  -21.9281  -37.7151   -8.5542 C   0  0  0  0  0  0  0  0  0  0  0  0
  -20.7386  -38.0054   -7.9403 C   0  0  0  0  0  0  0  0  0  0  0  0
  -23.3224  -41.1573   -9.0417 C   0  0  0  0  0  0  0  0  0  0  0  0
  -24.6846  -40.6802   -9.5006 C   0  0  0  0  0  0  0  0  0  0  0  0
  -22.7545  -42.0300  -10.1123 C   0  0  0  0  0  0  0  0  0  0  0  0
  -14.6269  -39.2538   -7.9370 C   0  0  1  0  0  0  0  0  0  0  0  0
  -14.6955  -40.6562   -8.2647 N   0  0  0  0  0  0  0  0  0  0  0  0
  -13.6333  -38.6017   -8.8566 C   0  0  0  0  0  0  0  0  0  0  0  0
  -12.4338  -39.4599   -9.0656 C   0  0  0  0  0  0  0  0  0  0  0  0
  -12.1276  -40.3714  -10.0226 C   0  0  0  0  0  0  0  0  0  0  0  0
  -10.9259  -41.0589   -9.9379 C   0  0  0  0  0  0  0  0  0  0  0  0
  -10.0547  -40.8015   -8.8773 C   0  0  0  0  0  0  0  0  0  0  0  0
  -10.3186  -39.8839   -7.8785 C   0  0  0  0  0  0  0  0  0  0  0  0
  -11.5150  -39.2394   -8.0121 C   0  0  0  0  0  0  0  0  0  0  0  0
  -10.4252  -42.0224  -10.7961 O   0  0  0  0  0  0  0  0  0  0  0  0
  -10.7848  -43.2661  -11.2536 C   0  0  0  0  0  0  0  0  0  0  0  0
  -11.7215  -43.1704  -12.4221 C   0  0  0  0  0  0  0  0  0  0  0  0
  -12.8046  -44.2170  -12.3890 C   0  0  0  0  0  0  0  0  0  0  0  0
  -14.0669  -43.6082  -12.9179 C   0  0  0  0  0  0  0  0  0  0  0  0
  -15.1765  -43.7390  -11.9937 N   0  0  0  0  0  0  0  0  0  0  0  0
  1  2  1  0
  2  3  1  0
  3  4  1  0
  4  5  2  0
  5  6  1  0
  6  7  2  0
  7  8  1  0
  8  9  2  0
  8 10  1  0
 10 11  2  0
 10 12  1  0
 12 13  1  0
 13 14  1  1
 14 15  1  0
 15 16  1  0
 16 17  1  0
 17 18  1  0
 16 19  1  0
 19 20  2  0
 20 21  1  0
 21 22  2  0
 22 23  1  0
 23 24  2  0
 21 25  1  0
 25 26  1  0
 25 27  1  0
 13 28  1  0
 28 29  1  6
 28 30  1  0
 30 31  1  0
 31 32  1  0
 32 33  2  0
 33 34  1  0
 34 35  2  0
 35 36  1  0
 33 37  1  0
 37 38  1  0
 38 39  1  0
 39 40  1  0
 40 41  1  0
 41 42  1  0
  9  4  1  0
 18 16  1  0
 24 19  1  0
 36 31  2  0
 42  6  1  0
M  END
$$$$
