
     RDKit          3D

 42 46  0  0  0  0  0  0  0  0999 V2000
  -10.5087  -42.5947   -8.1382 C   0  0  0  0  0  0  0  0  0  0  0  0
  -11.4759  -43.5292   -8.4960 O   0  0  0  0  0  0  0  0  0  0  0  0
  -11.6056  -43.6156   -9.8981 C   0  0  0  0  0  0  0  0  0  0  0  0
  -12.5328  -42.5603  -10.3914 C   0  0  0  0  0  0  0  0  0  0  0  0
  -12.1092  -41.4703  -11.0853 C   0  0  0  0  0  0  0  0  0  0  0  0
  -12.9776  -40.4513  -11.5753 C   0  0  0  0  0  0  0  0  0  0  0  0
  -14.3352  -40.5521  -11.3458 C   0  0  0  0  0  0  0  0  0  0  0  0
  -14.8032  -41.6575  -10.6344 C   0  0  0  0  0  0  0  0  0  0  0  0
  -13.8901  -42.6338  -10.1760 C   0  0  0  0  0  0  0  0  0  0  0  0
  -16.1682  -42.0221  -10.2098 C   0  0  0  0  0  0  0  0  0  0  0  0
  -16.4167  -43.3110  -10.3671 O   0  0  0  0  0  0  0  0  0  0  0  0
  -17.1983  -41.3208   -9.7012 O   0  0  0  0  0  0  0  0  0  0  0  0
  -17.5498  -40.4653   -8.7343 C   0  0  1  0  0  0  0  0  0  0  0  0
  -17.1884  -40.8569   -7.2994 C   0  0  0  0  0  0  0  0  0  0  0  0
  -17.9169  -41.9926   -6.8511 N   0  0  0  0  0  0  0  0  0  0  0  0
  -18.9966  -42.3156   -7.7624 C   0  0  0  0  0  0  0  0  0  0  0  0
  -18.5719  -42.4489   -9.2025 C   0  0  0  0  0  0  0  0  0  0  0  0
  -19.0720  -43.6380   -8.4326 C   0  0  0  0  0  0  0  0  0  0  0  0
  -20.3208  -41.7006   -7.4870 C   0  0  0  0  0  0  0  0  0  0  0  0
  -20.4599  -40.3624   -7.2188 C   0  0  0  0  0  0  0  0  0  0  0  0
  -21.6857  -39.7682   -6.9618 C   0  0  0  0  0  0  0  0  0  0  0  0
  -22.8091  -40.5511   -6.9749 C   0  0  0  0  0  0  0  0  0  0  0  0
  -22.7058  -41.9068   -7.2419 C   0  0  0  0  0  0  0  0  0  0  0  0
  -21.4773  -42.4586   -7.4921 C   0  0  0  0  0  0  0  0  0  0  0  0
  -21.7630  -38.3255   -6.6799 C   0  0  0  0  0  0  0  0  0  0  0  0
  -22.0339  -38.0380   -5.2179 C   0  0  0  0  0  0  0  0  0  0  0  0
  -20.5330  -37.5775   -7.0770 C   0  0  0  0  0  0  0  0  0  0  0  0
  -17.2250  -39.0147   -8.8493 C   0  0  1  0  0  0  0  0  0  0  0  0
  -15.8044  -38.8392   -9.0224 N   0  0  0  0  0  0  0  0  0  0  0  0
  -17.9227  -38.4281  -10.0440 C   0  0  0  0  0  0  0  0  0  0  0  0
  -17.2956  -37.1461  -10.4708 C   0  0  0  0  0  0  0  0  0  0  0  0
  -16.3360  -36.8684  -11.3887 C   0  0  0  0  0  0  0  0  0  0  0  0
  -15.9164  -35.5560  -11.5482 C   0  0  0  0  0  0  0  0  0  0  0  0
  -16.4867  -34.5475  -10.7686 C   0  0  0  0  0  0  0  0  0  0  0  0
  -17.4665  -34.7770   -9.8218 C   0  0  0  0  0  0  0  0  0  0  0  0
  -17.8384  -36.0858   -9.7067 C   0  0  0  0  0  0  0  0  0  0  0  0
  -14.9584  -35.0599  -12.4152 O   0  0  0  0  0  0  0  0  0  0  0  0
  -13.6164  -35.2253  -12.6544 C   0  0  0  0  0  0  0  0  0  0  0  0
  -13.3606  -36.3996  -13.5529 C   0  0  0  0  0  0  0  0  0  0  0  0
  -12.1373  -37.1836  -13.1547 C   0  0  0  0  0  0  0  0  0  0  0  0
  -12.4060  -38.6365  -13.4009 C   0  0  0  0  0  0  0  0  0  0  0  0
  -12.1920  -39.4491  -12.2191 N   0  0  0  0  0  0  0  0  0  0  0  0
  1  2  1  0
  2  3  1  0
  3  4  1  0
  4  5  2  0
  5  6  1  0
  6  7  2  0
  7  8  1  0
  8  9  2  0
  8 10  1  0
 10 11  2  0
 10 12  1  0
 12 13  1  0
 13 14  1  1
 14 15  1  0
 15 16  1  0
 16 17  1  0
 17 18  1  0
 16 19  1  0
 19 20  2  0
 20 21  1  0
 21 22  2  0
 22 23  1  0
 23 24  2  0
 21 25  1  0
 25 26  1  0
 25 27  1  0
 13 28  1  0
 28 29  1  6
 28 30  1  0
 30 31  1  0
 31 32  1  0
 32 33  2  0
 33 34  1  0
 34 35  2  0
 35 36  1  0
 33 37  1  0
 37 38  1  0
 38 39  1  0
 39 40  1  0
 40 41  1  0
 41 42  1  0
  9  4  1  0
 18 16  1  0
 24 19  1  0
 36 31  2  0
 42  6  1  0
M  END
$$$$
