
     RDKit          3D

 42 46  0  0  0  0  0  0  0  0999 V2000
  -10.4841  -34.6282   -8.8791 C   0  0  0  0  0  0  0  0  0  0  0  0
  -11.2559  -35.7023   -8.4464 O   0  0  0  0  0  0  0  0  0  0  0  0
  -12.5257  -35.6966   -9.0609 C   0  0  0  0  0  0  0  0  0  0  0  0
  -13.0104  -37.0922   -9.2452 C   0  0  0  0  0  0  0  0  0  0  0  0
  -12.3630  -38.0028  -10.0201 C   0  0  0  0  0  0  0  0  0  0  0  0
  -12.8020  -39.3465  -10.2053 C   0  0  0  0  0  0  0  0  0  0  0  0
  -13.9509  -39.7757   -9.5714 C   0  0  0  0  0  0  0  0  0  0  0  0
  -14.6412  -38.8653   -8.7703 C   0  0  0  0  0  0  0  0  0  0  0  0
  -14.1528  -37.5470   -8.6270 C   0  0  0  0  0  0  0  0  0  0  0  0
  -15.8938  -39.0123   -8.0050 C   0  0  0  0  0  0  0  0  0  0  0  0
  -15.8273  -38.4385   -6.8160 O   0  0  0  0  0  0  0  0  0  0  0  0
  -17.0750  -39.6024   -8.2664 O   0  0  0  0  0  0  0  0  0  0  0  0
  -18.0715  -39.6773   -9.1562 C   0  0  1  0  0  0  0  0  0  0  0  0
  -18.7038  -38.3558   -9.5995 C   0  0  0  0  0  0  0  0  0  0  0  0
  -19.6796  -37.8892   -8.6767 N   0  0  0  0  0  0  0  0  0  0  0  0
  -20.9716  -38.4957   -8.9290 C   0  0  0  0  0  0  0  0  0  0  0  0
  -21.8499  -37.7117   -9.8703 C   0  0  0  0  0  0  0  0  0  0  0  0
  -21.3133  -39.0600  -10.2589 C   0  0  0  0  0  0  0  0  0  0  0  0
  -21.6265  -39.1904   -7.7907 C   0  0  0  0  0  0  0  0  0  0  0  0
  -21.0520  -39.2489   -6.5462 C   0  0  0  0  0  0  0  0  0  0  0  0
  -21.6469  -39.8895   -5.4703 C   0  0  0  0  0  0  0  0  0  0  0  0
  -22.8621  -40.4924   -5.6568 C   0  0  0  0  0  0  0  0  0  0  0  0
  -23.4715  -40.4532   -6.9007 C   0  0  0  0  0  0  0  0  0  0  0  0
  -22.8536  -39.8100   -7.9402 C   0  0  0  0  0  0  0  0  0  0  0  0
  -20.9739  -39.9153   -4.1615 C   0  0  0  0  0  0  0  0  0  0  0  0
  -20.1741  -41.1838   -3.9499 C   0  0  0  0  0  0  0  0  0  0  0  0
  -20.0625  -38.7531   -3.9408 C   0  0  0  0  0  0  0  0  0  0  0  0
  -17.9203  -40.4876  -10.3987 C   0  0  1  0  0  0  0  0  0  0  0  0
  -16.7704  -40.0388  -11.1437 N   0  0  0  0  0  0  0  0  0  0  0  0
  -17.7186  -41.9338  -10.0440 C   0  0  0  0  0  0  0  0  0  0  0  0
  -17.1178  -42.6971  -11.1735 C   0  0  0  0  0  0  0  0  0  0  0  0
  -15.8314  -43.0005  -11.4791 C   0  0  0  0  0  0  0  0  0  0  0  0
  -15.5645  -43.7099  -12.6408 C   0  0  0  0  0  0  0  0  0  0  0  0
  -16.6177  -44.1004  -13.4705 C   0  0  0  0  0  0  0  0  0  0  0  0
  -17.9438  -43.8176  -13.2046 C   0  0  0  0  0  0  0  0  0  0  0  0
  -18.1463  -43.1164  -12.0505 C   0  0  0  0  0  0  0  0  0  0  0  0
  -14.3378  -44.1156  -13.1368 O   0  0  0  0  0  0  0  0  0  0  0  0
  -13.1638  -43.5366  -13.5513 C   0  0  0  0  0  0  0  0  0  0  0  0
  -12.2470  -43.2676  -12.3942 C   0  0  0  0  0  0  0  0  0  0  0  0
  -11.5105  -41.9598  -12.5250 C   0  0  0  0  0  0  0  0  0  0  0  0
  -11.3816  -41.3514  -11.1623 C   0  0  0  0  0  0  0  0  0  0  0  0
  -11.9085  -40.0017  -11.1044 N   0  0  0  0  0  0  0  0  0  0  0  0
  1  2  1  0
  2  3  1  0
  3  4  1  0
  4  5  2  0
  5  6  1  0
  6  7  2  0
  7  8  1  0
  8  9  2  0
  8 10  1  0
 10 11  2  0
 10 12  1  0
 12 13  1  0
 13 14  1  6
 14 15  1  0
 15 16  1  0
 16 17  1  0
 17 18  1  0
 16 19  1  0
 19 20  2  0
 20 21  1  0
 21 22  2  0
 22 23  1  0
 23 24  2  0
 21 25  1  0
 25 26  1  0
 25 27  1  0
 13 28  1  0
 28 29  1  1
 28 30  1  0
 30 31  1  0
 31 32  1  0
 32 33  2  0
 33 34  1  0
 34 35  2  0
 35 36  1  0
 33 37  1  0
 37 38  1  0
 38 39  1  0
 39 40  1  0
 40 41  1  0
 41 42  1  0
  9  4  1  0
 18 16  1  0
 24 19  1  0
 36 31  2  0
 42  6  1  0
M  END
$$$$
