
     RDKit          3D

 45 48  0  0  0  0  0  0  0  0999 V2000
  -12.1018  -35.0892  -13.7560 C   0  0  0  0  0  0  0  0  0  0  0  0
  -13.0292  -35.6313  -12.7062 C   0  0  0  0  0  0  0  0  0  0  0  0
  -12.6889  -34.9828  -11.3637 C   0  0  0  0  0  0  0  0  0  0  0  0
  -12.9095  -37.0999  -12.5185 C   0  0  0  0  0  0  0  0  0  0  0  0
  -12.7463  -37.6029  -11.2512 C   0  0  0  0  0  0  0  0  0  0  0  0
  -12.6378  -38.9568  -11.0233 C   0  0  0  0  0  0  0  0  0  0  0  0
  -12.4577  -39.4965   -9.6324 C   0  0  0  0  0  0  0  0  0  0  0  0
  -13.4723  -38.9541   -8.7971 N   0  0  0  0  0  0  0  0  0  0  0  0
  -14.8016  -38.9253   -9.3384 C   0  0  0  0  0  0  0  0  0  0  0  0
  -15.8607  -38.4869   -8.4231 C   0  0  1  0  0  0  0  0  0  0  0  0
  -16.3742  -37.2380   -8.7208 O   0  0  0  0  0  0  0  0  0  0  0  0
  -17.0596  -39.4512   -8.3645 C   0  0  2  0  0  0  0  0  0  0  0  0
  -17.8963  -39.1103   -7.1855 C   0  0  0  0  0  0  0  0  0  0  0  0
  -19.1904  -38.4364   -7.4477 C   0  0  2  0  0  0  0  0  0  0  0  0
  -19.2144  -37.1626   -6.5960 C   0  0  0  0  0  0  0  0  0  0  0  0
  -20.4463  -39.1945   -7.4029 C   0  0  0  0  0  0  0  0  0  0  0  0
  -20.9384  -39.9244   -8.5603 C   0  0  0  0  0  0  0  0  0  0  0  0
  -22.0977  -40.8473   -8.3731 C   0  0  0  0  0  0  0  0  0  0  0  0
  -23.2752  -40.2831   -7.6906 C   0  0  0  0  0  0  0  0  0  0  0  0
  -23.7563  -40.9201   -6.4493 C   0  0  0  0  0  0  0  0  0  0  0  0
  -22.9425  -41.8851   -5.7262 C   0  0  0  0  0  0  0  0  0  0  0  0
  -22.6005  -43.1546   -6.2868 N   0  0  0  0  0  0  0  0  0  0  0  0
  -21.3550  -43.7908   -6.0538 N   0  0  0  0  0  0  0  0  0  0  0  0
  -20.0017  -43.3296   -6.1227 C   0  0  0  0  0  0  0  0  0  0  0  0
  -19.1927  -42.7658   -7.0930 C   0  0  0  0  0  0  0  0  0  0  0  0
  -17.8717  -42.4638   -6.7426 C   0  0  0  0  0  0  0  0  0  0  0  0
  -17.4535  -42.7571   -5.4191 C   0  0  0  0  0  0  0  0  0  0  0  0
  -18.2599  -43.3118   -4.4763 C   0  0  0  0  0  0  0  0  0  0  0  0
  -17.7449  -43.5967   -3.0877 C   0  0  0  0  0  0  0  0  0  0  0  0
  -19.4697  -43.5694   -4.8545 N   0  0  0  0  0  0  0  0  0  0  0  0
  -16.7480  -41.8690   -7.4728 C   0  0  0  0  0  0  0  0  0  0  0  0
  -15.5672  -42.4010   -7.2308 O   0  0  0  0  0  0  0  0  0  0  0  0
  -16.6210  -40.8275   -8.4057 N   0  0  0  0  0  0  0  0  0  0  0  0
  -23.5338  -43.8765   -7.0827 C   0  0  0  0  0  0  0  0  0  0  0  0
  -23.1162  -44.7666   -7.9454 O   0  0  0  0  0  0  0  0  0  0  0  0
  -24.9727  -43.7806   -7.0906 C   0  0  0  0  0  0  0  0  0  0  0  0
  -25.7597  -44.2217   -6.0349 C   0  0  0  0  0  0  0  0  0  0  0  0
  -27.1276  -44.1422   -6.1092 C   0  0  0  0  0  0  0  0  0  0  0  0
  -27.7664  -43.6222   -7.2329 C   0  0  0  0  0  0  0  0  0  0  0  0
  -29.1021  -43.5308   -7.3381 F   0  0  0  0  0  0  0  0  0  0  0  0
  -27.0040  -43.1795   -8.2905 C   0  0  0  0  0  0  0  0  0  0  0  0
  -25.6529  -43.2656   -8.2005 C   0  0  0  0  0  0  0  0  0  0  0  0
  -12.6952  -39.8271  -12.1048 C   0  0  0  0  0  0  0  0  0  0  0  0
  -12.8589  -39.3304  -13.3834 C   0  0  0  0  0  0  0  0  0  0  0  0
  -12.9652  -37.9785  -13.5889 C   0  0  0  0  0  0  0  0  0  0  0  0
  1  2  1  0
  2  3  1  0
  2  4  1  0
  4  5  2  0
  5  6  1  0
  6  7  1  0
  7  8  1  0
  8  9  1  0
  9 10  1  0
 10 11  1  6
 10 12  1  0
 12 13  1  1
 13 14  1  0
 14 15  1  1
 14 16  1  0
 16 17  1  0
 17 18  1  0
 18 19  1  0
 19 20  1  0
 20 21  1  0
 21 22  1  0
 22 23  1  0
 23 24  1  0
 24 25  2  0
 25 26  1  0
 26 27  2  0
 27 28  1  0
 28 29  1  0
 28 30  2  0
 26 31  1  0
 31 32  2  0
 31 33  1  0
 22 34  1  0
 34 35  2  0
 34 36  1  0
 36 37  2  0
 37 38  1  0
 38 39  2  0
 39 40  1  0
 39 41  1  0
 41 42  2  0
  6 43  2  0
 43 44  1  0
 44 45  2  0
 30 24  1  0
 33 12  1  0
 42 36  1  0
 45  4  1  0
M  END
$$$$
