
     RDKit          3D

 45 48  0  0  0  0  0  0  0  0999 V2000
  -12.9322  -34.5285  -12.1936 C   0  0  0  0  0  0  0  0  0  0  0  0
  -14.4113  -34.7840  -12.2467 C   0  0  0  0  0  0  0  0  0  0  0  0
  -15.0975  -33.9407  -11.1712 C   0  0  0  0  0  0  0  0  0  0  0  0
  -14.7726  -36.2000  -11.9802 C   0  0  0  0  0  0  0  0  0  0  0  0
  -14.1727  -36.8600  -10.9360 C   0  0  0  0  0  0  0  0  0  0  0  0
  -14.4784  -38.1706  -10.6430 C   0  0  0  0  0  0  0  0  0  0  0  0
  -13.8146  -38.8839   -9.4990 C   0  0  0  0  0  0  0  0  0  0  0  0
  -14.3318  -38.3700   -8.2784 N   0  0  0  0  0  0  0  0  0  0  0  0
  -15.6982  -38.6893   -7.9755 C   0  0  0  0  0  0  0  0  0  0  0  0
  -15.9094  -39.8265   -7.0736 C   0  0  1  0  0  0  0  0  0  0  0  0
  -15.9399  -39.4796   -5.7353 O   0  0  0  0  0  0  0  0  0  0  0  0
  -17.2103  -40.6004   -7.3554 C   0  0  2  0  0  0  0  0  0  0  0  0
  -17.8221  -41.0034   -6.0633 C   0  0  0  0  0  0  0  0  0  0  0  0
  -19.0346  -40.2680   -5.6315 C   0  0  2  0  0  0  0  0  0  0  0  0
  -18.7656  -39.7510   -4.2141 C   0  0  0  0  0  0  0  0  0  0  0  0
  -20.3648  -40.8664   -5.7939 C   0  0  0  0  0  0  0  0  0  0  0  0
  -21.1070  -40.7494   -7.0388 C   0  0  0  0  0  0  0  0  0  0  0  0
  -22.3457  -41.5677   -7.2025 C   0  0  0  0  0  0  0  0  0  0  0  0
  -23.3293  -41.4859   -6.1086 C   0  0  0  0  0  0  0  0  0  0  0  0
  -23.7184  -42.7219   -5.4023 C   0  0  0  0  0  0  0  0  0  0  0  0
  -22.9539  -43.9513   -5.5455 C   0  0  0  0  0  0  0  0  0  0  0  0
  -22.8704  -44.6474   -6.7910 N   0  0  0  0  0  0  0  0  0  0  0  0
  -21.7045  -45.3339   -7.2148 N   0  0  0  0  0  0  0  0  0  0  0  0
  -20.3229  -44.9624   -7.2623 C   0  0  0  0  0  0  0  0  0  0  0  0
  -19.5849  -43.9561   -7.8595 C   0  0  0  0  0  0  0  0  0  0  0  0
  -18.1994  -43.9611   -7.6611 C   0  0  0  0  0  0  0  0  0  0  0  0
  -17.6479  -44.9966   -6.8634 C   0  0  0  0  0  0  0  0  0  0  0  0
  -18.3859  -45.9793   -6.2832 C   0  0  0  0  0  0  0  0  0  0  0  0
  -17.7292  -47.0495   -5.4478 C   0  0  0  0  0  0  0  0  0  0  0  0
  -19.6600  -45.9253   -6.4994 N   0  0  0  0  0  0  0  0  0  0  0  0
  -17.1155  -43.0821   -8.1107 C   0  0  0  0  0  0  0  0  0  0  0  0
  -15.9973  -43.6883   -8.4544 O   0  0  0  0  0  0  0  0  0  0  0  0
  -16.9755  -41.6943   -8.2702 N   0  0  0  0  0  0  0  0  0  0  0  0
  -23.9947  -44.7260   -7.6603 C   0  0  0  0  0  0  0  0  0  0  0  0
  -23.8287  -44.7081   -8.9575 O   0  0  0  0  0  0  0  0  0  0  0  0
  -25.3913  -44.8332   -7.3168 C   0  0  0  0  0  0  0  0  0  0  0  0
  -26.3730  -44.0553   -7.9164 C   0  0  0  0  0  0  0  0  0  0  0  0
  -27.6833  -44.1699   -7.5256 C   0  0  0  0  0  0  0  0  0  0  0  0
  -28.0695  -45.0600   -6.5257 C   0  0  0  0  0  0  0  0  0  0  0  0
  -29.3422  -45.1963   -6.1194 F   0  0  0  0  0  0  0  0  0  0  0  0
  -27.1112  -45.8403   -5.9187 C   0  0  0  0  0  0  0  0  0  0  0  0
  -25.8203  -45.7143   -6.3171 C   0  0  0  0  0  0  0  0  0  0  0  0
  -15.4154  -38.8333  -11.4260 C   0  0  0  0  0  0  0  0  0  0  0  0
  -16.0240  -38.1777  -12.4788 C   0  0  0  0  0  0  0  0  0  0  0  0
  -15.7056  -36.8722  -12.7537 C   0  0  0  0  0  0  0  0  0  0  0  0
  1  2  1  0
  2  3  1  0
  2  4  1  0
  4  5  2  0
  5  6  1  0
  6  7  1  0
  7  8  1  0
  8  9  1  0
  9 10  1  0
 10 11  1  1
 10 12  1  0
 12 13  1  1
 13 14  1  0
 14 15  1  1
 14 16  1  0
 16 17  1  0
 17 18  1  0
 18 19  1  0
 19 20  1  0
 20 21  1  0
 21 22  1  0
 22 23  1  0
 23 24  1  0
 24 25  2  0
 25 26  1  0
 26 27  2  0
 27 28  1  0
 28 29  1  0
 28 30  2  0
 26 31  1  0
 31 32  2  0
 31 33  1  0
 22 34  1  0
 34 35  2  0
 34 36  1  0
 36 37  2  0
 37 38  1  0
 38 39  2  0
 39 40  1  0
 39 41  1  0
 41 42  2  0
  6 43  2  0
 43 44  1  0
 44 45  2  0
 30 24  1  0
 33 12  1  0
 42 36  1  0
 45  4  1  0
M  END
$$$$
