
     RDKit          3D

 45 48  0  0  0  0  0  0  0  0999 V2000
  -12.2122  -33.9327  -11.7499 C   0  0  0  0  0  0  0  0  0  0  0  0
  -12.6090  -34.9537  -12.7775 C   0  0  0  0  0  0  0  0  0  0  0  0
  -14.0122  -34.6223  -13.2871 C   0  0  0  0  0  0  0  0  0  0  0  0
  -12.6607  -36.3378  -12.2407 C   0  0  0  0  0  0  0  0  0  0  0  0
  -13.8677  -36.8579  -11.8425 C   0  0  0  0  0  0  0  0  0  0  0  0
  -13.9700  -38.1381  -11.3449 C   0  0  0  0  0  0  0  0  0  0  0  0
  -15.2957  -38.6968  -10.9104 C   0  0  0  0  0  0  0  0  0  0  0  0
  -16.1322  -37.6225  -10.5013 N   0  0  0  0  0  0  0  0  0  0  0  0
  -16.4079  -37.5231   -9.0960 C   0  0  0  0  0  0  0  0  0  0  0  0
  -16.1752  -38.7370   -8.3063 C   0  0  1  0  0  0  0  0  0  0  0  0
  -15.8234  -38.4892   -6.9921 O   0  0  0  0  0  0  0  0  0  0  0  0
  -17.3883  -39.6842   -8.2641 C   0  0  2  0  0  0  0  0  0  0  0  0
  -17.6180  -40.1126   -6.8605 C   0  0  0  0  0  0  0  0  0  0  0  0
  -18.7830  -39.5250   -6.1569 C   0  0  2  0  0  0  0  0  0  0  0  0
  -18.2604  -38.9223   -4.8483 C   0  0  0  0  0  0  0  0  0  0  0  0
  -20.0201  -40.2974   -5.9930 C   0  0  0  0  0  0  0  0  0  0  0  0
  -21.0434  -40.3269   -7.0255 C   0  0  0  0  0  0  0  0  0  0  0  0
  -22.1628  -41.3054   -6.8831 C   0  0  0  0  0  0  0  0  0  0  0  0
  -22.8628  -41.3096   -5.5867 C   0  0  0  0  0  0  0  0  0  0  0  0
  -22.9031  -42.5572   -4.7993 C   0  0  0  0  0  0  0  0  0  0  0  0
  -22.0341  -43.6812   -5.1123 C   0  0  0  0  0  0  0  0  0  0  0  0
  -22.1526  -44.4086   -6.3369 N   0  0  0  0  0  0  0  0  0  0  0  0
  -21.0372  -44.9535   -7.0219 N   0  0  0  0  0  0  0  0  0  0  0  0
  -19.7694  -44.4074   -7.4004 C   0  0  0  0  0  0  0  0  0  0  0  0
  -19.3365  -43.3377   -8.1635 C   0  0  0  0  0  0  0  0  0  0  0  0
  -17.9557  -43.1545   -8.3014 C   0  0  0  0  0  0  0  0  0  0  0  0
  -17.0965  -44.0773   -7.6513 C   0  0  0  0  0  0  0  0  0  0  0  0
  -17.5365  -45.1242   -6.9049 C   0  0  0  0  0  0  0  0  0  0  0  0
  -16.5625  -46.0664   -6.2429 C   0  0  0  0  0  0  0  0  0  0  0  0
  -18.8209  -45.2452   -6.8111 N   0  0  0  0  0  0  0  0  0  0  0  0
  -17.1380  -42.1600   -9.0028 C   0  0  0  0  0  0  0  0  0  0  0  0
  -16.0605  -42.6284   -9.5993 O   0  0  0  0  0  0  0  0  0  0  0  0
  -17.2293  -40.7731   -9.2008 N   0  0  0  0  0  0  0  0  0  0  0  0
  -23.4286  -44.6670   -6.9121 C   0  0  0  0  0  0  0  0  0  0  0  0
  -23.5203  -45.1753   -8.1138 O   0  0  0  0  0  0  0  0  0  0  0  0
  -24.7342  -44.4453   -6.3409 C   0  0  0  0  0  0  0  0  0  0  0  0
  -25.3635  -43.2077   -6.3659 C   0  0  0  0  0  0  0  0  0  0  0  0
  -26.5901  -43.0414   -5.7738 C   0  0  0  0  0  0  0  0  0  0  0  0
  -27.2389  -44.0960   -5.1349 C   0  0  0  0  0  0  0  0  0  0  0  0
  -28.4387  -43.9671   -4.5455 F   0  0  0  0  0  0  0  0  0  0  0  0
  -26.6316  -45.3311   -5.0991 C   0  0  0  0  0  0  0  0  0  0  0  0
  -25.4187  -45.4781   -5.6893 C   0  0  0  0  0  0  0  0  0  0  0  0
  -12.8222  -38.9146  -11.2463 C   0  0  0  0  0  0  0  0  0  0  0  0
  -11.6035  -38.3998  -11.6442 C   0  0  0  0  0  0  0  0  0  0  0  0
  -11.5231  -37.1225  -12.1372 C   0  0  0  0  0  0  0  0  0  0  0  0
  1  2  1  0
  2  3  1  0
  2  4  1  0
  4  5  2  0
  5  6  1  0
  6  7  1  0
  7  8  1  0
  8  9  1  0
  9 10  1  0
 10 11  1  1
 10 12  1  0
 12 13  1  1
 13 14  1  0
 14 15  1  1
 14 16  1  0
 16 17  1  0
 17 18  1  0
 18 19  1  0
 19 20  1  0
 20 21  1  0
 21 22  1  0
 22 23  1  0
 23 24  1  0
 24 25  2  0
 25 26  1  0
 26 27  2  0
 27 28  1  0
 28 29  1  0
 28 30  2  0
 26 31  1  0
 31 32  2  0
 31 33  1  0
 22 34  1  0
 34 35  2  0
 34 36  1  0
 36 37  2  0
 37 38  1  0
 38 39  2  0
 39 40  1  0
 39 41  1  0
 41 42  2  0
  6 43  2  0
 43 44  1  0
 44 45  2  0
 30 24  1  0
 33 12  1  0
 42 36  1  0
 45  4  1  0
M  END
$$$$
