
     RDKit          3D

 45 48  0  0  0  0  0  0  0  0999 V2000
  -12.6233  -33.7000  -11.2478 C   0  0  0  0  0  0  0  0  0  0  0  0
  -13.7028  -34.3693  -12.0493 C   0  0  0  0  0  0  0  0  0  0  0  0
  -15.0607  -34.0182  -11.4397 C   0  0  0  0  0  0  0  0  0  0  0  0
  -13.6006  -35.8512  -12.0501 C   0  0  0  0  0  0  0  0  0  0  0  0
  -13.1413  -36.4923  -10.9259 C   0  0  0  0  0  0  0  0  0  0  0  0
  -13.0349  -37.8644  -10.8734 C   0  0  0  0  0  0  0  0  0  0  0  0
  -12.5293  -38.5557   -9.6384 C   0  0  0  0  0  0  0  0  0  0  0  0
  -13.5419  -38.5084   -8.6416 N   0  0  0  0  0  0  0  0  0  0  0  0
  -14.7222  -39.2874   -8.8885 C   0  0  0  0  0  0  0  0  0  0  0  0
  -16.0019  -38.6126   -8.6467 C   0  0  1  0  0  0  0  0  0  0  0  0
  -16.3283  -37.6736   -9.6079 O   0  0  0  0  0  0  0  0  0  0  0  0
  -17.1974  -39.5784   -8.5536 C   0  0  2  0  0  0  0  0  0  0  0  0
  -17.6618  -39.6376   -7.1439 C   0  0  0  0  0  0  0  0  0  0  0  0
  -18.9345  -38.9489   -6.8225 C   0  0  2  0  0  0  0  0  0  0  0  0
  -18.6490  -37.9994   -5.6539 C   0  0  0  0  0  0  0  0  0  0  0  0
  -20.1758  -39.7158   -6.6641 C   0  0  0  0  0  0  0  0  0  0  0  0
  -21.0063  -40.0670   -7.8048 C   0  0  0  0  0  0  0  0  0  0  0  0
  -22.1264  -41.0319   -7.5928 C   0  0  0  0  0  0  0  0  0  0  0  0
  -23.0387  -40.7349   -6.4747 C   0  0  0  0  0  0  0  0  0  0  0  0
  -23.2047  -41.7345   -5.4017 C   0  0  0  0  0  0  0  0  0  0  0  0
  -22.2869  -42.8540   -5.2580 C   0  0  0  0  0  0  0  0  0  0  0  0
  -22.1879  -43.8806   -6.2474 N   0  0  0  0  0  0  0  0  0  0  0  0
  -20.9675  -44.5258   -6.5707 N   0  0  0  0  0  0  0  0  0  0  0  0
  -19.6574  -44.0315   -6.8678 C   0  0  0  0  0  0  0  0  0  0  0  0
  -19.1075  -43.1764   -7.8061 C   0  0  0  0  0  0  0  0  0  0  0  0
  -17.7249  -42.9633   -7.7597 C   0  0  0  0  0  0  0  0  0  0  0  0
  -16.9836  -43.6383   -6.7560 C   0  0  0  0  0  0  0  0  0  0  0  0
  -17.5379  -44.4762   -5.8408 C   0  0  0  0  0  0  0  0  0  0  0  0
  -16.6853  -45.1607   -4.8019 C   0  0  0  0  0  0  0  0  0  0  0  0
  -18.8183  -44.6357   -5.9299 N   0  0  0  0  0  0  0  0  0  0  0  0
  -16.8060  -42.1445   -8.5564 C   0  0  0  0  0  0  0  0  0  0  0  0
  -15.6388  -42.6949   -8.8221 O   0  0  0  0  0  0  0  0  0  0  0  0
  -16.8719  -40.8638   -9.1280 N   0  0  0  0  0  0  0  0  0  0  0  0
  -23.3442  -44.3466   -6.9342 C   0  0  0  0  0  0  0  0  0  0  0  0
  -23.2664  -44.7057   -8.1895 O   0  0  0  0  0  0  0  0  0  0  0  0
  -24.6872  -44.5012   -6.4320 C   0  0  0  0  0  0  0  0  0  0  0  0
  -24.9797  -45.2230   -5.2823 C   0  0  0  0  0  0  0  0  0  0  0  0
  -26.2795  -45.3715   -4.8686 C   0  0  0  0  0  0  0  0  0  0  0  0
  -27.3381  -44.8097   -5.5791 C   0  0  0  0  0  0  0  0  0  0  0  0
  -28.6209  -44.9364   -5.2023 F   0  0  0  0  0  0  0  0  0  0  0  0
  -27.0693  -44.0903   -6.7218 C   0  0  0  0  0  0  0  0  0  0  0  0
  -25.7784  -43.9534   -7.1168 C   0  0  0  0  0  0  0  0  0  0  0  0
  -13.4018  -38.6100  -11.9867 C   0  0  0  0  0  0  0  0  0  0  0  0
  -13.8647  -37.9740  -13.1223 C   0  0  0  0  0  0  0  0  0  0  0  0
  -13.9634  -36.6063  -13.1541 C   0  0  0  0  0  0  0  0  0  0  0  0
  1  2  1  0
  2  3  1  0
  2  4  1  0
  4  5  2  0
  5  6  1  0
  6  7  1  0
  7  8  1  0
  8  9  1  0
  9 10  1  0
 10 11  1  6
 10 12  1  0
 12 13  1  1
 13 14  1  0
 14 15  1  1
 14 16  1  0
 16 17  1  0
 17 18  1  0
 18 19  1  0
 19 20  1  0
 20 21  1  0
 21 22  1  0
 22 23  1  0
 23 24  1  0
 24 25  2  0
 25 26  1  0
 26 27  2  0
 27 28  1  0
 28 29  1  0
 28 30  2  0
 26 31  1  0
 31 32  2  0
 31 33  1  0
 22 34  1  0
 34 35  2  0
 34 36  1  0
 36 37  2  0
 37 38  1  0
 38 39  2  0
 39 40  1  0
 39 41  1  0
 41 42  2  0
  6 43  2  0
 43 44  1  0
 44 45  2  0
 30 24  1  0
 33 12  1  0
 42 36  1  0
 45  4  1  0
M  END
$$$$
