
     RDKit          3D

 45 48  0  0  0  0  0  0  0  0999 V2000
  -18.5512  -36.2859  -10.9588 C   0  0  0  0  0  0  0  0  0  0  0  0
  -17.8091  -36.9629  -12.0754 C   0  0  0  0  0  0  0  0  0  0  0  0
  -18.2011  -38.4408  -12.1045 C   0  0  0  0  0  0  0  0  0  0  0  0
  -16.3332  -36.9112  -11.9158 C   0  0  0  0  0  0  0  0  0  0  0  0
  -15.7388  -37.6589  -10.9291 C   0  0  0  0  0  0  0  0  0  0  0  0
  -14.3740  -37.6513  -10.7447 C   0  0  0  0  0  0  0  0  0  0  0  0
  -13.7340  -38.4721   -9.6607 C   0  0  0  0  0  0  0  0  0  0  0  0
  -14.7340  -39.2715   -9.0423 N   0  0  0  0  0  0  0  0  0  0  0  0
  -15.8689  -38.5765   -8.5040 C   0  0  0  0  0  0  0  0  0  0  0  0
  -16.4405  -39.1324   -7.2729 C   0  0  1  0  0  0  0  0  0  0  0  0
  -16.6469  -38.1930   -6.2793 O   0  0  0  0  0  0  0  0  0  0  0  0
  -17.7880  -39.8453   -7.4889 C   0  0  2  0  0  0  0  0  0  0  0  0
  -18.1696  -40.5464   -6.2363 C   0  0  0  0  0  0  0  0  0  0  0  0
  -19.2691  -39.9534   -5.4382 C   0  0  2  0  0  0  0  0  0  0  0  0
  -18.7409  -39.7715   -4.0111 C   0  0  0  0  0  0  0  0  0  0  0  0
  -20.6203  -40.5236   -5.4943 C   0  0  0  0  0  0  0  0  0  0  0  0
  -21.5689  -40.1373   -6.5263 C   0  0  0  0  0  0  0  0  0  0  0  0
  -22.8352  -40.9194   -6.6505 C   0  0  0  0  0  0  0  0  0  0  0  0
  -23.6068  -41.1103   -5.4099 C   0  0  0  0  0  0  0  0  0  0  0  0
  -23.8923  -42.4829   -4.9489 C   0  0  0  0  0  0  0  0  0  0  0  0
  -23.1936  -43.6315   -5.5047 C   0  0  0  0  0  0  0  0  0  0  0  0
  -23.3485  -44.0205   -6.8712 N   0  0  0  0  0  0  0  0  0  0  0  0
  -22.2923  -44.5687   -7.6421 N   0  0  0  0  0  0  0  0  0  0  0  0
  -20.9331  -44.1700   -7.8482 C   0  0  0  0  0  0  0  0  0  0  0  0
  -20.2901  -43.0394   -8.3197 C   0  0  0  0  0  0  0  0  0  0  0  0
  -18.8919  -43.0636   -8.3777 C   0  0  0  0  0  0  0  0  0  0  0  0
  -18.2312  -44.2441   -7.9507 C   0  0  0  0  0  0  0  0  0  0  0  0
  -18.8766  -45.3479   -7.4900 C   0  0  0  0  0  0  0  0  0  0  0  0
  -18.1065  -46.5690   -7.0536 C   0  0  0  0  0  0  0  0  0  0  0  0
  -20.1673  -45.2699   -7.4576 N   0  0  0  0  0  0  0  0  0  0  0  0
  -17.8854  -42.0842   -8.7988 C   0  0  0  0  0  0  0  0  0  0  0  0
  -16.8601  -42.5736   -9.4661 O   0  0  0  0  0  0  0  0  0  0  0  0
  -17.7444  -40.6945   -8.6573 N   0  0  0  0  0  0  0  0  0  0  0  0
  -24.6108  -43.9184   -7.5208 C   0  0  0  0  0  0  0  0  0  0  0  0
  -25.5626  -43.1860   -7.0026 O   0  0  0  0  0  0  0  0  0  0  0  0
  -25.0416  -44.5353   -8.7511 C   0  0  0  0  0  0  0  0  0  0  0  0
  -26.3791  -44.6398   -9.1097 C   0  0  0  0  0  0  0  0  0  0  0  0
  -26.7376  -45.2707  -10.2743 C   0  0  0  0  0  0  0  0  0  0  0  0
  -25.7835  -45.8215  -11.1271 C   0  0  0  0  0  0  0  0  0  0  0  0
  -26.1002  -46.4456  -12.2733 F   0  0  0  0  0  0  0  0  0  0  0  0
  -24.4519  -45.7285  -10.7896 C   0  0  0  0  0  0  0  0  0  0  0  0
  -24.1149  -45.1016   -9.6345 C   0  0  0  0  0  0  0  0  0  0  0  0
  -13.5874  -36.8670  -11.5792 C   0  0  0  0  0  0  0  0  0  0  0  0
  -14.1764  -36.1112  -12.5743 C   0  0  0  0  0  0  0  0  0  0  0  0
  -15.5375  -36.1329  -12.7415 C   0  0  0  0  0  0  0  0  0  0  0  0
  1  2  1  0
  2  3  1  0
  2  4  1  0
  4  5  2  0
  5  6  1  0
  6  7  1  0
  7  8  1  0
  8  9  1  0
  9 10  1  0
 10 11  1  1
 10 12  1  0
 12 13  1  1
 13 14  1  0
 14 15  1  1
 14 16  1  0
 16 17  1  0
 17 18  1  0
 18 19  1  0
 19 20  1  0
 20 21  1  0
 21 22  1  0
 22 23  1  0
 23 24  1  0
 24 25  2  0
 25 26  1  0
 26 27  2  0
 27 28  1  0
 28 29  1  0
 28 30  2  0
 26 31  1  0
 31 32  2  0
 31 33  1  0
 22 34  1  0
 34 35  2  0
 34 36  1  0
 36 37  2  0
 37 38  1  0
 38 39  2  0
 39 40  1  0
 39 41  1  0
 41 42  2  0
  6 43  2  0
 43 44  1  0
 44 45  2  0
 30 24  1  0
 33 12  1  0
 42 36  1  0
 45  4  1  0
M  END
$$$$
