
     RDKit          3D

 45 48  0  0  0  0  0  0  0  0999 V2000
  -13.6543  -38.0400  -15.2040 C   0  0  0  0  0  0  0  0  0  0  0  0
  -14.1162  -36.7753  -14.5383 C   0  0  0  0  0  0  0  0  0  0  0  0
  -13.7865  -35.5899  -15.4463 C   0  0  0  0  0  0  0  0  0  0  0  0
  -13.4490  -36.5197  -13.2360 C   0  0  0  0  0  0  0  0  0  0  0  0
  -13.3598  -37.5364  -12.3172 C   0  0  0  0  0  0  0  0  0  0  0  0
  -12.7448  -37.3527  -11.0987 C   0  0  0  0  0  0  0  0  0  0  0  0
  -12.6543  -38.4718  -10.0998 C   0  0  0  0  0  0  0  0  0  0  0  0
  -13.5321  -38.1902   -9.0175 N   0  0  0  0  0  0  0  0  0  0  0  0
  -14.5604  -39.1574   -8.7569 C   0  0  0  0  0  0  0  0  0  0  0  0
  -15.8009  -38.6374   -8.1718 C   0  0  1  0  0  0  0  0  0  0  0  0
  -16.1670  -37.3940   -8.6535 O   0  0  0  0  0  0  0  0  0  0  0  0
  -17.0134  -39.5628   -8.3807 C   0  0  2  0  0  0  0  0  0  0  0  0
  -17.7354  -39.7115   -7.0911 C   0  0  0  0  0  0  0  0  0  0  0  0
  -19.0304  -39.0028   -6.9563 C   0  0  2  0  0  0  0  0  0  0  0  0
  -18.9485  -38.1557   -5.6819 C   0  0  0  0  0  0  0  0  0  0  0  0
  -20.2959  -39.7334   -7.0936 C   0  0  0  0  0  0  0  0  0  0  0  0
  -20.9050  -39.9665   -8.3932 C   0  0  0  0  0  0  0  0  0  0  0  0
  -22.0659  -40.9029   -8.4716 C   0  0  0  0  0  0  0  0  0  0  0  0
  -23.1652  -40.6579   -7.5216 C   0  0  0  0  0  0  0  0  0  0  0  0
  -23.5515  -41.7291   -6.5828 C   0  0  0  0  0  0  0  0  0  0  0  0
  -22.7018  -42.8892   -6.3629 C   0  0  0  0  0  0  0  0  0  0  0  0
  -22.4414  -43.8410   -7.3969 N   0  0  0  0  0  0  0  0  0  0  0  0
  -21.1964  -44.5043   -7.5396 N   0  0  0  0  0  0  0  0  0  0  0  0
  -19.8434  -44.0373   -7.5475 C   0  0  0  0  0  0  0  0  0  0  0  0
  -19.1085  -43.1345   -8.2950 C   0  0  0  0  0  0  0  0  0  0  0  0
  -17.7549  -42.9764   -7.9760 C   0  0  0  0  0  0  0  0  0  0  0  0
  -17.2301  -43.7523   -6.9105 C   0  0  0  0  0  0  0  0  0  0  0  0
  -17.9646  -44.6361   -6.1850 C   0  0  0  0  0  0  0  0  0  0  0  0
  -17.3374  -45.4281   -5.0652 C   0  0  0  0  0  0  0  0  0  0  0  0
  -19.2087  -44.7413   -6.5226 N   0  0  0  0  0  0  0  0  0  0  0  0
  -16.6850  -42.1340   -8.5193 C   0  0  0  0  0  0  0  0  0  0  0  0
  -15.5010  -42.7053   -8.6079 O   0  0  0  0  0  0  0  0  0  0  0  0
  -16.6143  -40.8122   -8.9873 N   0  0  0  0  0  0  0  0  0  0  0  0
  -23.4582  -44.2109   -8.3216 C   0  0  0  0  0  0  0  0  0  0  0  0
  -23.1512  -44.4984   -9.5601 O   0  0  0  0  0  0  0  0  0  0  0  0
  -24.8776  -44.3317   -8.0968 C   0  0  0  0  0  0  0  0  0  0  0  0
  -25.4186  -45.2233   -7.1799 C   0  0  0  0  0  0  0  0  0  0  0  0
  -26.7789  -45.3259   -7.0319 C   0  0  0  0  0  0  0  0  0  0  0  0
  -27.6538  -44.5481   -7.7874 C   0  0  0  0  0  0  0  0  0  0  0  0
  -28.9893  -44.6241   -7.6678 F   0  0  0  0  0  0  0  0  0  0  0  0
  -27.1374  -43.6580   -8.7021 C   0  0  0  0  0  0  0  0  0  0  0  0
  -25.7900  -43.5694   -8.8358 C   0  0  0  0  0  0  0  0  0  0  0  0
  -12.2053  -36.1080  -10.7991 C   0  0  0  0  0  0  0  0  0  0  0  0
  -12.2903  -35.0790  -11.7169 C   0  0  0  0  0  0  0  0  0  0  0  0
  -12.9069  -35.2828  -12.9251 C   0  0  0  0  0  0  0  0  0  0  0  0
  1  2  1  0
  2  3  1  0
  2  4  1  0
  4  5  2  0
  5  6  1  0
  6  7  1  0
  7  8  1  0
  8  9  1  0
  9 10  1  0
 10 11  1  6
 10 12  1  0
 12 13  1  1
 13 14  1  0
 14 15  1  1
 14 16  1  0
 16 17  1  0
 17 18  1  0
 18 19  1  0
 19 20  1  0
 20 21  1  0
 21 22  1  0
 22 23  1  0
 23 24  1  0
 24 25  2  0
 25 26  1  0
 26 27  2  0
 27 28  1  0
 28 29  1  0
 28 30  2  0
 26 31  1  0
 31 32  2  0
 31 33  1  0
 22 34  1  0
 34 35  2  0
 34 36  1  0
 36 37  2  0
 37 38  1  0
 38 39  2  0
 39 40  1  0
 39 41  1  0
 41 42  2  0
  6 43  2  0
 43 44  1  0
 44 45  2  0
 30 24  1  0
 33 12  1  0
 42 36  1  0
 45  4  1  0
M  END
$$$$
