
     RDKit          3D

 45 48  0  0  0  0  0  0  0  0999 V2000
  -11.7199  -33.3131  -11.5292 C   0  0  0  0  0  0  0  0  0  0  0  0
  -12.8289  -33.8499  -12.3883 C   0  0  0  0  0  0  0  0  0  0  0  0
  -14.1664  -33.3601  -11.8318 C   0  0  0  0  0  0  0  0  0  0  0  0
  -12.8885  -35.3339  -12.4109 C   0  0  0  0  0  0  0  0  0  0  0  0
  -12.9883  -36.0192  -11.2251 C   0  0  0  0  0  0  0  0  0  0  0  0
  -13.0542  -37.3945  -11.1926 C   0  0  0  0  0  0  0  0  0  0  0  0
  -13.1616  -38.1345   -9.8890 C   0  0  0  0  0  0  0  0  0  0  0  0
  -14.2700  -39.0222   -9.9577 N   0  0  0  0  0  0  0  0  0  0  0  0
  -15.5678  -38.4458   -9.7474 C   0  0  0  0  0  0  0  0  0  0  0  0
  -16.1407  -38.6194   -8.4084 C   0  0  1  0  0  0  0  0  0  0  0  0
  -16.5211  -37.4343   -7.8058 O   0  0  0  0  0  0  0  0  0  0  0  0
  -17.3747  -39.5398   -8.3831 C   0  0  2  0  0  0  0  0  0  0  0  0
  -17.5914  -40.0193   -6.9940 C   0  0  0  0  0  0  0  0  0  0  0  0
  -18.7306  -39.4343   -6.2474 C   0  0  2  0  0  0  0  0  0  0  0  0
  -18.1728  -38.8970   -4.9250 C   0  0  0  0  0  0  0  0  0  0  0  0
  -19.9825  -40.1846   -6.0932 C   0  0  0  0  0  0  0  0  0  0  0  0
  -21.0231  -40.1491   -7.1082 C   0  0  0  0  0  0  0  0  0  0  0  0
  -22.1625  -41.1070   -6.9857 C   0  0  0  0  0  0  0  0  0  0  0  0
  -22.8410  -41.1477   -5.6785 C   0  0  0  0  0  0  0  0  0  0  0  0
  -22.8975  -42.4249   -4.9411 C   0  0  0  0  0  0  0  0  0  0  0  0
  -22.0602  -43.5547   -5.3139 C   0  0  0  0  0  0  0  0  0  0  0  0
  -22.2157  -44.2292   -6.5643 N   0  0  0  0  0  0  0  0  0  0  0  0
  -21.1246  -44.7710   -7.2898 N   0  0  0  0  0  0  0  0  0  0  0  0
  -19.8508  -44.2389   -7.6680 C   0  0  0  0  0  0  0  0  0  0  0  0
  -19.4056  -43.1494   -8.3951 C   0  0  0  0  0  0  0  0  0  0  0  0
  -18.0234  -42.9920   -8.5495 C   0  0  0  0  0  0  0  0  0  0  0  0
  -17.1754  -43.9595   -7.9518 C   0  0  0  0  0  0  0  0  0  0  0  0
  -17.6275  -45.0256   -7.2403 C   0  0  0  0  0  0  0  0  0  0  0  0
  -16.6649  -46.0155   -6.6335 C   0  0  0  0  0  0  0  0  0  0  0  0
  -18.9126  -45.1211   -7.1292 N   0  0  0  0  0  0  0  0  0  0  0  0
  -17.1943  -41.9888   -9.2246 C   0  0  0  0  0  0  0  0  0  0  0  0
  -16.1381  -42.4570   -9.8579 O   0  0  0  0  0  0  0  0  0  0  0  0
  -17.2565  -40.5933   -9.3653 N   0  0  0  0  0  0  0  0  0  0  0  0
  -23.5066  -44.4352   -7.1272 C   0  0  0  0  0  0  0  0  0  0  0  0
  -23.6323  -44.7727   -8.3846 O   0  0  0  0  0  0  0  0  0  0  0  0
  -24.7945  -44.3267   -6.4874 C   0  0  0  0  0  0  0  0  0  0  0  0
  -25.3835  -43.1049   -6.1895 C   0  0  0  0  0  0  0  0  0  0  0  0
  -26.5940  -43.0574   -5.5451 C   0  0  0  0  0  0  0  0  0  0  0  0
  -27.2660  -44.2195   -5.1720 C   0  0  0  0  0  0  0  0  0  0  0  0
  -28.4509  -44.2083   -4.5400 F   0  0  0  0  0  0  0  0  0  0  0  0
  -26.6987  -45.4410   -5.4581 C   0  0  0  0  0  0  0  0  0  0  0  0
  -25.5013  -45.4698   -6.0957 C   0  0  0  0  0  0  0  0  0  0  0  0
  -13.0178  -38.0975  -12.3903 C   0  0  0  0  0  0  0  0  0  0  0  0
  -12.9172  -37.4169  -13.5882 C   0  0  0  0  0  0  0  0  0  0  0  0
  -12.8531  -36.0468  -13.5988 C   0  0  0  0  0  0  0  0  0  0  0  0
  1  2  1  0
  2  3  1  0
  2  4  1  0
  4  5  2  0
  5  6  1  0
  6  7  1  0
  7  8  1  0
  8  9  1  0
  9 10  1  0
 10 11  1  6
 10 12  1  0
 12 13  1  1
 13 14  1  0
 14 15  1  1
 14 16  1  0
 16 17  1  0
 17 18  1  0
 18 19  1  0
 19 20  1  0
 20 21  1  0
 21 22  1  0
 22 23  1  0
 23 24  1  0
 24 25  2  0
 25 26  1  0
 26 27  2  0
 27 28  1  0
 28 29  1  0
 28 30  2  0
 26 31  1  0
 31 32  2  0
 31 33  1  0
 22 34  1  0
 34 35  2  0
 34 36  1  0
 36 37  2  0
 37 38  1  0
 38 39  2  0
 39 40  1  0
 39 41  1  0
 41 42  2  0
  6 43  2  0
 43 44  1  0
 44 45  2  0
 30 24  1  0
 33 12  1  0
 42 36  1  0
 45  4  1  0
M  END
$$$$
