
     RDKit          3D

 45 48  0  0  0  0  0  0  0  0999 V2000
  -10.7838  -36.6618  -15.6481 C   0  0  0  0  0  0  0  0  0  0  0  0
  -11.2214  -37.7072  -14.6624 C   0  0  0  0  0  0  0  0  0  0  0  0
  -12.1239  -38.7136  -15.3774 C   0  0  0  0  0  0  0  0  0  0  0  0
  -12.0056  -37.1538  -13.5287 C   0  0  0  0  0  0  0  0  0  0  0  0
  -12.1300  -37.8905  -12.3765 C   0  0  0  0  0  0  0  0  0  0  0  0
  -12.8402  -37.4191  -11.2947 C   0  0  0  0  0  0  0  0  0  0  0  0
  -12.9714  -38.2344  -10.0391 C   0  0  0  0  0  0  0  0  0  0  0  0
  -14.1610  -39.0087  -10.1195 N   0  0  0  0  0  0  0  0  0  0  0  0
  -15.3905  -38.3284   -9.8259 C   0  0  0  0  0  0  0  0  0  0  0  0
  -15.9581  -38.5689   -8.4949 C   0  0  1  0  0  0  0  0  0  0  0  0
  -16.3471  -37.4163   -7.8372 O   0  0  0  0  0  0  0  0  0  0  0  0
  -17.1839  -39.5004   -8.5093 C   0  0  2  0  0  0  0  0  0  0  0  0
  -17.7272  -39.6050   -7.1308 C   0  0  0  0  0  0  0  0  0  0  0  0
  -18.9956  -38.8916   -6.8485 C   0  0  2  0  0  0  0  0  0  0  0  0
  -18.7482  -38.0019   -5.6255 C   0  0  0  0  0  0  0  0  0  0  0  0
  -20.2651  -39.6258   -6.7914 C   0  0  0  0  0  0  0  0  0  0  0  0
  -21.0408  -39.9025   -7.9897 C   0  0  0  0  0  0  0  0  0  0  0  0
  -22.1981  -40.8405   -7.8814 C   0  0  0  0  0  0  0  0  0  0  0  0
  -23.1620  -40.5631   -6.8022 C   0  0  0  0  0  0  0  0  0  0  0  0
  -23.4156  -41.6017   -5.7849 C   0  0  0  0  0  0  0  0  0  0  0  0
  -22.5394  -42.7542   -5.6413 C   0  0  0  0  0  0  0  0  0  0  0  0
  -22.4152  -43.7404   -6.6682 N   0  0  0  0  0  0  0  0  0  0  0  0
  -21.1976  -44.4087   -6.9532 N   0  0  0  0  0  0  0  0  0  0  0  0
  -19.8595  -43.9429   -7.1569 C   0  0  0  0  0  0  0  0  0  0  0  0
  -19.2344  -43.0662   -8.0255 C   0  0  0  0  0  0  0  0  0  0  0  0
  -17.8510  -42.8980   -7.8950 C   0  0  0  0  0  0  0  0  0  0  0  0
  -17.1859  -43.6376   -6.8835 C   0  0  0  0  0  0  0  0  0  0  0  0
  -17.8136  -44.4961   -6.0374 C   0  0  0  0  0  0  0  0  0  0  0  0
  -17.0398  -45.2501   -4.9852 C   0  0  0  0  0  0  0  0  0  0  0  0
  -19.0912  -44.6121   -6.2026 N   0  0  0  0  0  0  0  0  0  0  0  0
  -16.8664  -42.0749   -8.6040 C   0  0  0  0  0  0  0  0  0  0  0  0
  -15.7024  -42.6494   -8.8303 O   0  0  0  0  0  0  0  0  0  0  0  0
  -16.8640  -40.7697   -9.1214 N   0  0  0  0  0  0  0  0  0  0  0  0
  -23.5445  -44.1409   -7.4364 C   0  0  0  0  0  0  0  0  0  0  0  0
  -23.3811  -44.7569   -8.5786 O   0  0  0  0  0  0  0  0  0  0  0  0
  -24.9442  -43.9671   -7.1356 C   0  0  0  0  0  0  0  0  0  0  0  0
  -25.4251  -42.8936   -6.3976 C   0  0  0  0  0  0  0  0  0  0  0  0
  -26.7625  -42.7957   -6.1068 C   0  0  0  0  0  0  0  0  0  0  0  0
  -27.6733  -43.7583   -6.5370 C   0  0  0  0  0  0  0  0  0  0  0  0
  -28.9877  -43.6929   -6.2693 F   0  0  0  0  0  0  0  0  0  0  0  0
  -27.2165  -44.8305   -7.2699 C   0  0  0  0  0  0  0  0  0  0  0  0
  -25.8910  -44.9120   -7.5484 C   0  0  0  0  0  0  0  0  0  0  0  0
  -13.4419  -36.1697  -11.3786 C   0  0  0  0  0  0  0  0  0  0  0  0
  -13.3225  -35.4214  -12.5337 C   0  0  0  0  0  0  0  0  0  0  0  0
  -12.6106  -35.9090  -13.5998 C   0  0  0  0  0  0  0  0  0  0  0  0
  1  2  1  0
  2  3  1  0
  2  4  1  0
  4  5  2  0
  5  6  1  0
  6  7  1  0
  7  8  1  0
  8  9  1  0
  9 10  1  0
 10 11  1  6
 10 12  1  0
 12 13  1  1
 13 14  1  0
 14 15  1  1
 14 16  1  0
 16 17  1  0
 17 18  1  0
 18 19  1  0
 19 20  1  0
 20 21  1  0
 21 22  1  0
 22 23  1  0
 23 24  1  0
 24 25  2  0
 25 26  1  0
 26 27  2  0
 27 28  1  0
 28 29  1  0
 28 30  2  0
 26 31  1  0
 31 32  2  0
 31 33  1  0
 22 34  1  0
 34 35  2  0
 34 36  1  0
 36 37  2  0
 37 38  1  0
 38 39  2  0
 39 40  1  0
 39 41  1  0
 41 42  2  0
  6 43  2  0
 43 44  1  0
 44 45  2  0
 30 24  1  0
 33 12  1  0
 42 36  1  0
 45  4  1  0
M  END
$$$$
