
     RDKit          3D

 45 48  0  0  0  0  0  0  0  0999 V2000
  -10.9615  -34.9648  -12.8672 C   0  0  0  0  0  0  0  0  0  0  0  0
  -12.3633  -35.4594  -12.6522 C   0  0  0  0  0  0  0  0  0  0  0  0
  -12.9502  -34.7629  -11.4238 C   0  0  0  0  0  0  0  0  0  0  0  0
  -12.4377  -36.9207  -12.3961 C   0  0  0  0  0  0  0  0  0  0  0  0
  -12.5362  -37.3706  -11.1024 C   0  0  0  0  0  0  0  0  0  0  0  0
  -12.6153  -38.7147  -10.8125 C   0  0  0  0  0  0  0  0  0  0  0  0
  -12.7211  -39.1963   -9.3929 C   0  0  0  0  0  0  0  0  0  0  0  0
  -13.9337  -39.9240   -9.2466 N   0  0  0  0  0  0  0  0  0  0  0  0
  -15.1427  -39.1519   -9.1917 C   0  0  0  0  0  0  0  0  0  0  0  0
  -15.9471  -39.3000   -7.9741 C   0  0  1  0  0  0  0  0  0  0  0  0
  -16.2487  -38.1008   -7.3550 O   0  0  0  0  0  0  0  0  0  0  0  0
  -17.2868  -40.0220   -8.2073 C   0  0  2  0  0  0  0  0  0  0  0  0
  -18.0156  -40.1164   -6.9164 C   0  0  0  0  0  0  0  0  0  0  0  0
  -19.1878  -39.2272   -6.7358 C   0  0  2  0  0  0  0  0  0  0  0  0
  -18.9716  -38.4587   -5.4276 C   0  0  0  0  0  0  0  0  0  0  0  0
  -20.5500  -39.7519   -6.8885 C   0  0  0  0  0  0  0  0  0  0  0  0
  -21.1947  -39.8333   -8.1892 C   0  0  0  0  0  0  0  0  0  0  0  0
  -22.4842  -40.5796   -8.2931 C   0  0  0  0  0  0  0  0  0  0  0  0
  -23.5284  -40.2136   -7.3202 C   0  0  0  0  0  0  0  0  0  0  0  0
  -24.0669  -41.2544   -6.4230 C   0  0  0  0  0  0  0  0  0  0  0  0
  -23.4010  -42.5379   -6.2630 C   0  0  0  0  0  0  0  0  0  0  0  0
  -23.2934  -43.4718   -7.3396 N   0  0  0  0  0  0  0  0  0  0  0  0
  -22.1638  -44.3083   -7.5256 N   0  0  0  0  0  0  0  0  0  0  0  0
  -20.7558  -44.0508   -7.5302 C   0  0  0  0  0  0  0  0  0  0  0  0
  -19.8972  -43.2373   -8.2476 C   0  0  0  0  0  0  0  0  0  0  0  0
  -18.5334  -43.2992   -7.9388 C   0  0  0  0  0  0  0  0  0  0  0  0
  -18.1259  -44.1912   -6.9137 C   0  0  0  0  0  0  0  0  0  0  0  0
  -18.9813  -44.9851   -6.2174 C   0  0  0  0  0  0  0  0  0  0  0  0
  -18.4748  -45.9110   -5.1400 C   0  0  0  0  0  0  0  0  0  0  0  0
  -20.2290  -44.8866   -6.5439 N   0  0  0  0  0  0  0  0  0  0  0  0
  -17.3516  -42.6047   -8.4589 C   0  0  0  0  0  0  0  0  0  0  0  0
  -16.2680  -43.3435   -8.5861 O   0  0  0  0  0  0  0  0  0  0  0  0
  -17.0845  -41.2895   -8.8713 N   0  0  0  0  0  0  0  0  0  0  0  0
  -24.3596  -43.6433   -8.2667 C   0  0  0  0  0  0  0  0  0  0  0  0
  -24.1091  -43.9756   -9.5067 O   0  0  0  0  0  0  0  0  0  0  0  0
  -25.7773  -43.5022   -8.0430 C   0  0  0  0  0  0  0  0  0  0  0  0
  -26.5612  -42.5968   -8.7460 C   0  0  0  0  0  0  0  0  0  0  0  0
  -27.8993  -42.4754   -8.4674 C   0  0  0  0  0  0  0  0  0  0  0  0
  -28.5104  -43.2473   -7.4816 C   0  0  0  0  0  0  0  0  0  0  0  0
  -29.8165  -43.1530   -7.1837 F   0  0  0  0  0  0  0  0  0  0  0  0
  -27.7506  -44.1508   -6.7731 C   0  0  0  0  0  0  0  0  0  0  0  0
  -26.4290  -44.2580   -7.0612 C   0  0  0  0  0  0  0  0  0  0  0  0
  -12.5939  -39.6300  -11.8575 C   0  0  0  0  0  0  0  0  0  0  0  0
  -12.4948  -39.1869  -13.1622 C   0  0  0  0  0  0  0  0  0  0  0  0
  -12.4173  -37.8439  -13.4296 C   0  0  0  0  0  0  0  0  0  0  0  0
  1  2  1  0
  2  3  1  0
  2  4  1  0
  4  5  2  0
  5  6  1  0
  6  7  1  0
  7  8  1  0
  8  9  1  0
  9 10  1  0
 10 11  1  6
 10 12  1  0
 12 13  1  1
 13 14  1  0
 14 15  1  1
 14 16  1  0
 16 17  1  0
 17 18  1  0
 18 19  1  0
 19 20  1  0
 20 21  1  0
 21 22  1  0
 22 23  1  0
 23 24  1  0
 24 25  2  0
 25 26  1  0
 26 27  2  0
 27 28  1  0
 28 29  1  0
 28 30  2  0
 26 31  1  0
 31 32  2  0
 31 33  1  0
 22 34  1  0
 34 35  2  0
 34 36  1  0
 36 37  2  0
 37 38  1  0
 38 39  2  0
 39 40  1  0
 39 41  1  0
 41 42  2  0
  6 43  2  0
 43 44  1  0
 44 45  2  0
 30 24  1  0
 33 12  1  0
 42 36  1  0
 45  4  1  0
M  END
$$$$
