
     RDKit          3D

 45 48  0  0  0  0  0  0  0  0999 V2000
  -11.8301  -38.9112  -12.5088 C   0  0  0  0  0  0  0  0  0  0  0  0
  -11.2017  -37.8579  -11.6419 C   0  0  0  0  0  0  0  0  0  0  0  0
  -10.7915  -38.4923  -10.3123 C   0  0  0  0  0  0  0  0  0  0  0  0
  -12.1216  -36.7371  -11.3194 C   0  0  0  0  0  0  0  0  0  0  0  0
  -13.4771  -36.9313  -11.4224 C   0  0  0  0  0  0  0  0  0  0  0  0
  -14.3719  -35.9266  -11.1279 C   0  0  0  0  0  0  0  0  0  0  0  0
  -15.8535  -36.1493  -11.2456 C   0  0  0  0  0  0  0  0  0  0  0  0
  -16.1267  -37.5277  -11.0293 N   0  0  0  0  0  0  0  0  0  0  0  0
  -16.1034  -37.9803   -9.6672 C   0  0  0  0  0  0  0  0  0  0  0  0
  -17.3059  -37.7014   -8.8748 C   0  0  1  0  0  0  0  0  0  0  0  0
  -18.1048  -36.7047   -9.4045 O   0  0  0  0  0  0  0  0  0  0  0  0
  -18.2112  -38.9313   -8.6791 C   0  0  2  0  0  0  0  0  0  0  0  0
  -18.5111  -39.0849   -7.2325 C   0  0  0  0  0  0  0  0  0  0  0  0
  -19.8783  -38.7279   -6.7844 C   0  0  2  0  0  0  0  0  0  0  0  0
  -19.7271  -37.7221   -5.6380 C   0  0  0  0  0  0  0  0  0  0  0  0
  -20.8708  -39.7755   -6.5171 C   0  0  0  0  0  0  0  0  0  0  0  0
  -21.6927  -40.3359   -7.5776 C   0  0  0  0  0  0  0  0  0  0  0  0
  -22.5144  -41.5448   -7.2707 C   0  0  0  0  0  0  0  0  0  0  0  0
  -23.3619  -41.4677   -6.0680 C   0  0  0  0  0  0  0  0  0  0  0  0
  -23.1735  -42.4632   -4.9949 C   0  0  0  0  0  0  0  0  0  0  0  0
  -21.9980  -43.3193   -4.9509 C   0  0  0  0  0  0  0  0  0  0  0  0
  -21.7424  -44.3025   -5.9562 N   0  0  0  0  0  0  0  0  0  0  0  0
  -20.4366  -44.6304   -6.4007 N   0  0  0  0  0  0  0  0  0  0  0  0
  -19.3235  -43.8316   -6.8154 C   0  0  0  0  0  0  0  0  0  0  0  0
  -19.0933  -42.8796   -7.7924 C   0  0  0  0  0  0  0  0  0  0  0  0
  -17.8083  -42.3309   -7.8751 C   0  0  0  0  0  0  0  0  0  0  0  0
  -16.8316  -42.7887   -6.9536 C   0  0  0  0  0  0  0  0  0  0  0  0
  -17.0725  -43.7254   -5.9989 C   0  0  0  0  0  0  0  0  0  0  0  0
  -15.9829  -44.1645   -5.0531 C   0  0  0  0  0  0  0  0  0  0  0  0
  -18.2763  -44.1975   -5.9679 N   0  0  0  0  0  0  0  0  0  0  0  0
  -17.1998  -41.3210   -8.7465 C   0  0  0  0  0  0  0  0  0  0  0  0
  -15.9633  -41.5694   -9.1277 O   0  0  0  0  0  0  0  0  0  0  0  0
  -17.6340  -40.1039   -9.2956 N   0  0  0  0  0  0  0  0  0  0  0  0
  -22.8073  -45.0487   -6.5352 C   0  0  0  0  0  0  0  0  0  0  0  0
  -22.6442  -45.6468   -7.6869 O   0  0  0  0  0  0  0  0  0  0  0  0
  -24.1349  -45.2710   -6.0178 C   0  0  0  0  0  0  0  0  0  0  0  0
  -24.5472  -46.4966   -5.5117 C   0  0  0  0  0  0  0  0  0  0  0  0
  -25.8341  -46.6656   -5.0666 C   0  0  0  0  0  0  0  0  0  0  0  0
  -26.7604  -45.6256   -5.1063 C   0  0  0  0  0  0  0  0  0  0  0  0
  -28.0269  -45.7575   -4.6795 F   0  0  0  0  0  0  0  0  0  0  0  0
  -26.3714  -44.4025   -5.6045 C   0  0  0  0  0  0  0  0  0  0  0  0
  -25.0953  -44.2527   -6.0406 C   0  0  0  0  0  0  0  0  0  0  0  0
  -13.8849  -34.6916  -10.7184 C   0  0  0  0  0  0  0  0  0  0  0  0
  -12.5228  -34.4867  -10.6120 C   0  0  0  0  0  0  0  0  0  0  0  0
  -11.6484  -35.5005  -10.9099 C   0  0  0  0  0  0  0  0  0  0  0  0
  1  2  1  0
  2  3  1  0
  2  4  1  0
  4  5  2  0
  5  6  1  0
  6  7  1  0
  7  8  1  0
  8  9  1  0
  9 10  1  0
 10 11  1  6
 10 12  1  0
 12 13  1  1
 13 14  1  0
 14 15  1  1
 14 16  1  0
 16 17  1  0
 17 18  1  0
 18 19  1  0
 19 20  1  0
 20 21  1  0
 21 22  1  0
 22 23  1  0
 23 24  1  0
 24 25  2  0
 25 26  1  0
 26 27  2  0
 27 28  1  0
 28 29  1  0
 28 30  2  0
 26 31  1  0
 31 32  2  0
 31 33  1  0
 22 34  1  0
 34 35  2  0
 34 36  1  0
 36 37  2  0
 37 38  1  0
 38 39  2  0
 39 40  1  0
 39 41  1  0
 41 42  2  0
  6 43  2  0
 43 44  1  0
 44 45  2  0
 30 24  1  0
 33 12  1  0
 42 36  1  0
 45  4  1  0
M  END
$$$$
