
     RDKit          3D

 45 48  0  0  0  0  0  0  0  0999 V2000
  -10.2404  -36.7337  -11.1020 C   0  0  0  0  0  0  0  0  0  0  0  0
  -10.8274  -37.1981  -12.4042 C   0  0  0  0  0  0  0  0  0  0  0  0
  -10.3710  -36.2534  -13.5168 C   0  0  0  0  0  0  0  0  0  0  0  0
  -12.3128  -37.1908  -12.4145 C   0  0  0  0  0  0  0  0  0  0  0  0
  -12.9875  -36.5704  -11.3920 C   0  0  0  0  0  0  0  0  0  0  0  0
  -14.3638  -36.5296  -11.3591 C   0  0  0  0  0  0  0  0  0  0  0  0
  -15.0922  -35.8493  -10.2344 C   0  0  0  0  0  0  0  0  0  0  0  0
  -16.3682  -36.4574  -10.0826 N   0  0  0  0  0  0  0  0  0  0  0  0
  -16.3794  -37.8247   -9.6451 C   0  0  0  0  0  0  0  0  0  0  0  0
  -16.8796  -38.0626   -8.2869 C   0  0  1  0  0  0  0  0  0  0  0  0
  -17.3106  -36.9177   -7.6422 O   0  0  0  0  0  0  0  0  0  0  0  0
  -18.0475  -39.0641   -8.2293 C   0  0  2  0  0  0  0  0  0  0  0  0
  -18.0278  -39.7539   -6.9139 C   0  0  0  0  0  0  0  0  0  0  0  0
  -19.0696  -39.3676   -5.9328 C   0  0  2  0  0  0  0  0  0  0  0  0
  -18.3467  -38.9881   -4.6358 C   0  0  0  0  0  0  0  0  0  0  0  0
  -20.2444  -40.2212   -5.7202 C   0  0  0  0  0  0  0  0  0  0  0  0
  -21.4265  -40.1150   -6.5602 C   0  0  0  0  0  0  0  0  0  0  0  0
  -22.4845  -41.1607   -6.4266 C   0  0  0  0  0  0  0  0  0  0  0  0
  -22.9553  -41.4394   -5.0586 C   0  0  0  0  0  0  0  0  0  0  0  0
  -22.8352  -42.8105   -4.5259 C   0  0  0  0  0  0  0  0  0  0  0  0
  -22.0076  -43.8106   -5.1826 C   0  0  0  0  0  0  0  0  0  0  0  0
  -22.3155  -44.3066   -6.4872 N   0  0  0  0  0  0  0  0  0  0  0  0
  -21.3202  -44.6571   -7.4343 N   0  0  0  0  0  0  0  0  0  0  0  0
  -20.1465  -43.9847   -7.9025 C   0  0  0  0  0  0  0  0  0  0  0  0
  -19.8717  -42.7719   -8.5089 C   0  0  0  0  0  0  0  0  0  0  0  0
  -18.5383  -42.4939   -8.8311 C   0  0  0  0  0  0  0  0  0  0  0  0
  -17.5620  -43.4735   -8.5153 C   0  0  0  0  0  0  0  0  0  0  0  0
  -17.8471  -44.6612   -7.9196 C   0  0  0  0  0  0  0  0  0  0  0  0
  -16.7553  -45.6559   -7.6145 C   0  0  0  0  0  0  0  0  0  0  0  0
  -19.0943  -44.8650   -7.6439 N   0  0  0  0  0  0  0  0  0  0  0  0
  -17.8723  -41.3460   -9.4543 C   0  0  0  0  0  0  0  0  0  0  0  0
  -16.9012  -41.6396  -10.2950 O   0  0  0  0  0  0  0  0  0  0  0  0
  -18.0255  -39.9530   -9.3685 N   0  0  0  0  0  0  0  0  0  0  0  0
  -23.6644  -44.5223   -6.8868 C   0  0  0  0  0  0  0  0  0  0  0  0
  -24.0076  -44.4035   -8.1434 O   0  0  0  0  0  0  0  0  0  0  0  0
  -24.7980  -44.8800   -6.0703 C   0  0  0  0  0  0  0  0  0  0  0  0
  -24.8443  -46.0487   -5.3217 C   0  0  0  0  0  0  0  0  0  0  0  0
  -25.9632  -46.3605   -4.5912 C   0  0  0  0  0  0  0  0  0  0  0  0
  -27.0781  -45.5251   -4.5754 C   0  0  0  0  0  0  0  0  0  0  0  0
  -28.1886  -45.8007   -3.8722 F   0  0  0  0  0  0  0  0  0  0  0  0
  -27.0523  -44.3616   -5.3110 C   0  0  0  0  0  0  0  0  0  0  0  0
  -25.9380  -44.0687   -6.0277 C   0  0  0  0  0  0  0  0  0  0  0  0
  -15.0787  -37.1323  -12.3867 C   0  0  0  0  0  0  0  0  0  0  0  0
  -14.4087  -37.7591  -13.4194 C   0  0  0  0  0  0  0  0  0  0  0  0
  -13.0375  -37.7883  -13.4336 C   0  0  0  0  0  0  0  0  0  0  0  0
  1  2  1  0
  2  3  1  0
  2  4  1  0
  4  5  2  0
  5  6  1  0
  6  7  1  0
  7  8  1  0
  8  9  1  0
  9 10  1  0
 10 11  1  6
 10 12  1  0
 12 13  1  1
 13 14  1  0
 14 15  1  1
 14 16  1  0
 16 17  1  0
 17 18  1  0
 18 19  1  0
 19 20  1  0
 20 21  1  0
 21 22  1  0
 22 23  1  0
 23 24  1  0
 24 25  2  0
 25 26  1  0
 26 27  2  0
 27 28  1  0
 28 29  1  0
 28 30  2  0
 26 31  1  0
 31 32  2  0
 31 33  1  0
 22 34  1  0
 34 35  2  0
 34 36  1  0
 36 37  2  0
 37 38  1  0
 38 39  2  0
 39 40  1  0
 39 41  1  0
 41 42  2  0
  6 43  2  0
 43 44  1  0
 44 45  2  0
 30 24  1  0
 33 12  1  0
 42 36  1  0
 45  4  1  0
M  END
$$$$
