
     RDKit          3D

 45 48  0  0  0  0  0  0  0  0999 V2000
  -11.3253  -33.3413  -10.5171 C   0  0  0  0  0  0  0  0  0  0  0  0
  -12.0900  -33.1485  -11.7954 C   0  0  0  0  0  0  0  0  0  0  0  0
  -13.4868  -32.6235  -11.4612 C   0  0  0  0  0  0  0  0  0  0  0  0
  -12.2743  -34.4056  -12.5649 C   0  0  0  0  0  0  0  0  0  0  0  0
  -12.8655  -35.4846  -11.9550 C   0  0  0  0  0  0  0  0  0  0  0  0
  -13.0657  -36.6700  -12.6270 C   0  0  0  0  0  0  0  0  0  0  0  0
  -13.7123  -37.8452  -11.9493 C   0  0  0  0  0  0  0  0  0  0  0  0
  -15.0008  -38.0467  -12.5152 N   0  0  0  0  0  0  0  0  0  0  0  0
  -15.8956  -38.9001  -11.7859 C   0  0  0  0  0  0  0  0  0  0  0  0
  -16.4995  -38.3211  -10.5810 C   0  0  1  0  0  0  0  0  0  0  0  0
  -17.1356  -37.1131  -10.8006 O   0  0  0  0  0  0  0  0  0  0  0  0
  -17.5316  -39.2439   -9.9074 C   0  0  2  0  0  0  0  0  0  0  0  0
  -17.2186  -39.3422   -8.4587 C   0  0  0  0  0  0  0  0  0  0  0  0
  -18.1134  -38.6193   -7.5237 C   0  0  2  0  0  0  0  0  0  0  0  0
  -17.2242  -37.7292   -6.6486 C   0  0  0  0  0  0  0  0  0  0  0  0
  -19.1412  -39.3444   -6.7674 C   0  0  0  0  0  0  0  0  0  0  0  0
  -20.4530  -39.6176   -7.3319 C   0  0  0  0  0  0  0  0  0  0  0  0
  -21.3600  -40.5472   -6.5943 C   0  0  0  0  0  0  0  0  0  0  0  0
  -21.5612  -40.2610   -5.1631 C   0  0  0  0  0  0  0  0  0  0  0  0
  -21.2124  -41.2961   -4.1705 C   0  0  0  0  0  0  0  0  0  0  0  0
  -20.4096  -42.4544   -4.5312 C   0  0  0  0  0  0  0  0  0  0  0  0
  -20.8813  -43.4434   -5.4490 N   0  0  0  0  0  0  0  0  0  0  0  0
  -20.0301  -44.1208   -6.3583 N   0  0  0  0  0  0  0  0  0  0  0  0
  -19.0280  -43.6649   -7.2731 C   0  0  0  0  0  0  0  0  0  0  0  0
  -18.9860  -42.7942   -8.3473 C   0  0  0  0  0  0  0  0  0  0  0  0
  -17.7621  -42.6356   -9.0078 C   0  0  0  0  0  0  0  0  0  0  0  0
  -16.6510  -43.3781   -8.5317 C   0  0  0  0  0  0  0  0  0  0  0  0
  -16.7076  -44.2306   -7.4748 C   0  0  0  0  0  0  0  0  0  0  0  0
  -15.4835  -44.9882   -7.0251 C   0  0  0  0  0  0  0  0  0  0  0  0
  -17.8625  -44.3378   -6.9022 N   0  0  0  0  0  0  0  0  0  0  0  0
  -17.3328  -41.8208  -10.1485 C   0  0  0  0  0  0  0  0  0  0  0  0
  -16.4931  -42.4039  -10.9797 O   0  0  0  0  0  0  0  0  0  0  0  0
  -17.6116  -40.5166  -10.5872 N   0  0  0  0  0  0  0  0  0  0  0  0
  -22.2490  -43.8372   -5.4588 C   0  0  0  0  0  0  0  0  0  0  0  0
  -22.8856  -43.9838   -6.5919 O   0  0  0  0  0  0  0  0  0  0  0  0
  -23.1100  -44.1250   -4.3382 C   0  0  0  0  0  0  0  0  0  0  0  0
  -23.3473  -45.4167   -3.8870 C   0  0  0  0  0  0  0  0  0  0  0  0
  -24.2059  -45.6386   -2.8399 C   0  0  0  0  0  0  0  0  0  0  0  0
  -24.8612  -44.5883   -2.2008 C   0  0  0  0  0  0  0  0  0  0  0  0
  -25.7075  -44.7707   -1.1742 F   0  0  0  0  0  0  0  0  0  0  0  0
  -24.6395  -43.3001   -2.6332 C   0  0  0  0  0  0  0  0  0  0  0  0
  -23.7876  -43.0984   -3.6699 C   0  0  0  0  0  0  0  0  0  0  0  0
  -12.6575  -36.7690  -13.9513 C   0  0  0  0  0  0  0  0  0  0  0  0
  -12.0616  -35.6889  -14.5732 C   0  0  0  0  0  0  0  0  0  0  0  0
  -11.8715  -34.5171  -13.8862 C   0  0  0  0  0  0  0  0  0  0  0  0
  1  2  1  0
  2  3  1  0
  2  4  1  0
  4  5  2  0
  5  6  1  0
  6  7  1  0
  7  8  1  0
  8  9  1  0
  9 10  1  0
 10 11  1  6
 10 12  1  0
 12 13  1  1
 13 14  1  0
 14 15  1  1
 14 16  1  0
 16 17  1  0
 17 18  1  0
 18 19  1  0
 19 20  1  0
 20 21  1  0
 21 22  1  0
 22 23  1  0
 23 24  1  0
 24 25  2  0
 25 26  1  0
 26 27  2  0
 27 28  1  0
 28 29  1  0
 28 30  2  0
 26 31  1  0
 31 32  2  0
 31 33  1  0
 22 34  1  0
 34 35  2  0
 34 36  1  0
 36 37  2  0
 37 38  1  0
 38 39  2  0
 39 40  1  0
 39 41  1  0
 41 42  2  0
  6 43  2  0
 43 44  1  0
 44 45  2  0
 30 24  1  0
 33 12  1  0
 42 36  1  0
 45  4  1  0
M  END
$$$$
