
     RDKit          3D

 45 48  0  0  0  0  0  0  0  0999 V2000
  -12.2430  -35.9252  -12.8929 C   0  0  0  0  0  0  0  0  0  0  0  0
  -12.8911  -34.6372  -12.4724 C   0  0  0  0  0  0  0  0  0  0  0  0
  -11.8769  -33.8083  -11.6830 C   0  0  0  0  0  0  0  0  0  0  0  0
  -14.0688  -34.8334  -11.5887 C   0  0  0  0  0  0  0  0  0  0  0  0
  -13.8966  -35.4320  -10.3649 C   0  0  0  0  0  0  0  0  0  0  0  0
  -14.9549  -35.6303   -9.5060 C   0  0  0  0  0  0  0  0  0  0  0  0
  -14.7555  -36.2880   -8.1696 C   0  0  0  0  0  0  0  0  0  0  0  0
  -14.7121  -37.6968   -8.3558 N   0  0  0  0  0  0  0  0  0  0  0  0
  -15.9723  -38.3843   -8.3469 C   0  0  0  0  0  0  0  0  0  0  0  0
  -15.9998  -39.6882   -9.0182 C   0  0  1  0  0  0  0  0  0  0  0  0
  -14.7987  -40.3711   -8.9609 O   0  0  0  0  0  0  0  0  0  0  0  0
  -17.0733  -40.6421   -8.4631 C   0  0  2  0  0  0  0  0  0  0  0  0
  -18.3909  -40.2767   -9.0436 C   0  0  0  0  0  0  0  0  0  0  0  0
  -18.9477  -41.1810  -10.0778 C   0  0  2  0  0  0  0  0  0  0  0  0
  -19.2766  -40.3170  -11.3002 C   0  0  0  0  0  0  0  0  0  0  0  0
  -20.0054  -42.1394   -9.7364 C   0  0  0  0  0  0  0  0  0  0  0  0
  -19.6986  -43.4508   -9.1884 C   0  0  0  0  0  0  0  0  0  0  0  0
  -20.8253  -44.2774   -8.6610 C   0  0  0  0  0  0  0  0  0  0  0  0
  -21.9825  -44.4480   -9.5568 C   0  0  0  0  0  0  0  0  0  0  0  0
  -23.3140  -44.0071   -9.0976 C   0  0  0  0  0  0  0  0  0  0  0  0
  -23.4702  -43.1504   -7.9322 C   0  0  0  0  0  0  0  0  0  0  0  0
  -23.1247  -43.5934   -6.6180 N   0  0  0  0  0  0  0  0  0  0  0  0
  -22.5727  -42.7343   -5.6343 N   0  0  0  0  0  0  0  0  0  0  0  0
  -21.4965  -41.7910   -5.6632 C   0  0  0  0  0  0  0  0  0  0  0  0
  -20.1446  -41.8351   -5.9536 C   0  0  0  0  0  0  0  0  0  0  0  0
  -19.4167  -40.6448   -5.8412 C   0  0  0  0  0  0  0  0  0  0  0  0
  -20.1138  -39.4773   -5.4368 C   0  0  0  0  0  0  0  0  0  0  0  0
  -21.4428  -39.4494   -5.1543 C   0  0  0  0  0  0  0  0  0  0  0  0
  -22.1170  -38.1692   -4.7287 C   0  0  0  0  0  0  0  0  0  0  0  0
  -22.0654  -40.5767   -5.2753 N   0  0  0  0  0  0  0  0  0  0  0  0
  -18.0092  -40.3013   -6.0660 C   0  0  0  0  0  0  0  0  0  0  0  0
  -17.4849  -39.4567   -5.2013 O   0  0  0  0  0  0  0  0  0  0  0  0
  -17.0459  -40.6699   -7.0186 N   0  0  0  0  0  0  0  0  0  0  0  0
  -23.3695  -44.9354   -6.2119 C   0  0  0  0  0  0  0  0  0  0  0  0
  -22.6068  -45.5028   -5.3135 O   0  0  0  0  0  0  0  0  0  0  0  0
  -24.4010  -45.8372   -6.6621 C   0  0  0  0  0  0  0  0  0  0  0  0
  -24.7349  -46.9974   -5.9759 C   0  0  0  0  0  0  0  0  0  0  0  0
  -25.6984  -47.8412   -6.4681 C   0  0  0  0  0  0  0  0  0  0  0  0
  -26.3673  -47.5663   -7.6590 C   0  0  0  0  0  0  0  0  0  0  0  0
  -27.3143  -48.3707   -8.1685 F   0  0  0  0  0  0  0  0  0  0  0  0
  -26.0508  -46.4211   -8.3545 C   0  0  0  0  0  0  0  0  0  0  0  0
  -25.0955  -45.5978   -7.8538 C   0  0  0  0  0  0  0  0  0  0  0  0
  -16.2221  -35.2131   -9.8935 C   0  0  0  0  0  0  0  0  0  0  0  0
  -16.4053  -34.6101  -11.1229 C   0  0  0  0  0  0  0  0  0  0  0  0
  -15.3380  -34.4218  -11.9635 C   0  0  0  0  0  0  0  0  0  0  0  0
  1  2  1  0
  2  3  1  0
  2  4  1  0
  4  5  2  0
  5  6  1  0
  6  7  1  0
  7  8  1  0
  8  9  1  0
  9 10  1  0
 10 11  1  1
 10 12  1  0
 12 13  1  1
 13 14  1  0
 14 15  1  6
 14 16  1  0
 16 17  1  0
 17 18  1  0
 18 19  1  0
 19 20  1  0
 20 21  1  0
 21 22  1  0
 22 23  1  0
 23 24  1  0
 24 25  2  0
 25 26  1  0
 26 27  2  0
 27 28  1  0
 28 29  1  0
 28 30  2  0
 26 31  1  0
 31 32  2  0
 31 33  1  0
 22 34  1  0
 34 35  2  0
 34 36  1  0
 36 37  2  0
 37 38  1  0
 38 39  2  0
 39 40  1  0
 39 41  1  0
 41 42  2  0
  6 43  2  0
 43 44  1  0
 44 45  2  0
 30 24  1  0
 33 12  1  0
 42 36  1  0
 45  4  1  0
M  END
$$$$
