
     RDKit          3D

 45 48  0  0  0  0  0  0  0  0999 V2000
  -12.1890  -37.3873  -14.7216 C   0  0  0  0  0  0  0  0  0  0  0  0
  -11.8726  -36.7530  -13.3974 C   0  0  0  0  0  0  0  0  0  0  0  0
  -10.6012  -37.3904  -12.8354 C   0  0  0  0  0  0  0  0  0  0  0  0
  -12.9388  -36.9499  -12.3822 C   0  0  0  0  0  0  0  0  0  0  0  0
  -12.6825  -37.7330  -11.2837 C   0  0  0  0  0  0  0  0  0  0  0  0
  -13.6347  -37.9408  -10.3106 C   0  0  0  0  0  0  0  0  0  0  0  0
  -13.3441  -38.8012   -9.1132 C   0  0  0  0  0  0  0  0  0  0  0  0
  -14.4646  -39.6425   -8.8724 N   0  0  0  0  0  0  0  0  0  0  0  0
  -14.9700  -39.6692   -7.5291 C   0  0  0  0  0  0  0  0  0  0  0  0
  -16.2471  -38.9827   -7.3073 C   0  0  1  0  0  0  0  0  0  0  0  0
  -16.4274  -37.8676   -8.1050 O   0  0  0  0  0  0  0  0  0  0  0  0
  -17.4755  -39.8839   -7.5297 C   0  0  2  0  0  0  0  0  0  0  0  0
  -18.0785  -40.2122   -6.2125 C   0  0  0  0  0  0  0  0  0  0  0  0
  -19.3546  -39.5414   -5.8678 C   0  0  2  0  0  0  0  0  0  0  0  0
  -19.1565  -38.8728   -4.5031 C   0  0  0  0  0  0  0  0  0  0  0  0
  -20.6288  -40.2597   -5.9884 C   0  0  0  0  0  0  0  0  0  0  0  0
  -21.3531  -40.3220   -7.2477 C   0  0  0  0  0  0  0  0  0  0  0  0
  -22.5182  -41.2511   -7.3474 C   0  0  0  0  0  0  0  0  0  0  0  0
  -23.5267  -41.1476   -6.2784 C   0  0  0  0  0  0  0  0  0  0  0  0
  -23.8290  -42.3393   -5.4620 C   0  0  0  0  0  0  0  0  0  0  0  0
  -22.9652  -43.5097   -5.4777 C   0  0  0  0  0  0  0  0  0  0  0  0
  -22.8010  -44.3109   -6.6499 N   0  0  0  0  0  0  0  0  0  0  0  0
  -21.5753  -44.9362   -6.9919 N   0  0  0  0  0  0  0  0  0  0  0  0
  -20.2275  -44.4586   -7.0579 C   0  0  0  0  0  0  0  0  0  0  0  0
  -19.5613  -43.4559   -7.7395 C   0  0  0  0  0  0  0  0  0  0  0  0
  -18.1841  -43.3284   -7.5247 C   0  0  0  0  0  0  0  0  0  0  0  0
  -17.5669  -44.2352   -6.6251 C   0  0  0  0  0  0  0  0  0  0  0  0
  -18.2347  -45.2161   -5.9626 C   0  0  0  0  0  0  0  0  0  0  0  0
  -17.5106  -46.1452   -5.0208 C   0  0  0  0  0  0  0  0  0  0  0  0
  -19.5044  -45.2876   -6.1984 N   0  0  0  0  0  0  0  0  0  0  0  0
  -17.1659  -42.4096   -8.0430 C   0  0  0  0  0  0  0  0  0  0  0  0
  -15.9959  -42.9516   -8.3137 O   0  0  0  0  0  0  0  0  0  0  0  0
  -17.1351  -41.0361   -8.3328 N   0  0  0  0  0  0  0  0  0  0  0  0
  -23.8978  -44.5633   -7.5213 C   0  0  0  0  0  0  0  0  0  0  0  0
  -23.7471  -45.3370   -8.5650 O   0  0  0  0  0  0  0  0  0  0  0  0
  -25.2498  -44.0695   -7.4315 C   0  0  0  0  0  0  0  0  0  0  0  0
  -26.3128  -44.8637   -7.0220 C   0  0  0  0  0  0  0  0  0  0  0  0
  -27.5868  -44.3550   -6.9908 C   0  0  0  0  0  0  0  0  0  0  0  0
  -27.8545  -43.0397   -7.3641 C   0  0  0  0  0  0  0  0  0  0  0  0
  -29.0889  -42.5110   -7.3457 F   0  0  0  0  0  0  0  0  0  0  0  0
  -26.8143  -42.2358   -7.7733 C   0  0  0  0  0  0  0  0  0  0  0  0
  -25.5609  -42.7548   -7.7984 C   0  0  0  0  0  0  0  0  0  0  0  0
  -14.8804  -37.3417  -10.4505 C   0  0  0  0  0  0  0  0  0  0  0  0
  -15.1477  -36.5524  -11.5523 C   0  0  0  0  0  0  0  0  0  0  0  0
  -14.1854  -36.3579  -12.5101 C   0  0  0  0  0  0  0  0  0  0  0  0
  1  2  1  0
  2  3  1  0
  2  4  1  0
  4  5  2  0
  5  6  1  0
  6  7  1  0
  7  8  1  0
  8  9  1  0
  9 10  1  0
 10 11  1  6
 10 12  1  0
 12 13  1  1
 13 14  1  0
 14 15  1  1
 14 16  1  0
 16 17  1  0
 17 18  1  0
 18 19  1  0
 19 20  1  0
 20 21  1  0
 21 22  1  0
 22 23  1  0
 23 24  1  0
 24 25  2  0
 25 26  1  0
 26 27  2  0
 27 28  1  0
 28 29  1  0
 28 30  2  0
 26 31  1  0
 31 32  2  0
 31 33  1  0
 22 34  1  0
 34 35  2  0
 34 36  1  0
 36 37  2  0
 37 38  1  0
 38 39  2  0
 39 40  1  0
 39 41  1  0
 41 42  2  0
  6 43  2  0
 43 44  1  0
 44 45  2  0
 30 24  1  0
 33 12  1  0
 42 36  1  0
 45  4  1  0
M  END
$$$$
