
     RDKit          3D

 45 48  0  0  0  0  0  0  0  0999 V2000
  -10.2720  -36.3388  -12.5721 C   0  0  0  0  0  0  0  0  0  0  0  0
  -10.6406  -37.6522  -13.2007 C   0  0  0  0  0  0  0  0  0  0  0  0
  -10.4160  -37.5578  -14.7104 C   0  0  0  0  0  0  0  0  0  0  0  0
  -12.0654  -38.0206  -12.9987 C   0  0  0  0  0  0  0  0  0  0  0  0
  -12.7883  -37.3898  -12.0163 C   0  0  0  0  0  0  0  0  0  0  0  0
  -14.1139  -37.6901  -11.7938 C   0  0  0  0  0  0  0  0  0  0  0  0
  -14.8954  -36.9948  -10.7148 C   0  0  0  0  0  0  0  0  0  0  0  0
  -14.8437  -37.7834   -9.5330 N   0  0  0  0  0  0  0  0  0  0  0  0
  -15.8764  -38.7675   -9.3725 C   0  0  0  0  0  0  0  0  0  0  0  0
  -16.6891  -38.6563   -8.1566 C   0  0  1  0  0  0  0  0  0  0  0  0
  -17.1943  -37.3880   -7.9367 O   0  0  0  0  0  0  0  0  0  0  0  0
  -17.8917  -39.6174   -8.1318 C   0  0  2  0  0  0  0  0  0  0  0  0
  -17.9969  -40.2247   -6.7803 C   0  0  0  0  0  0  0  0  0  0  0  0
  -19.0972  -39.7476   -5.9091 C   0  0  2  0  0  0  0  0  0  0  0  0
  -18.4637  -39.3100   -4.5840 C   0  0  0  0  0  0  0  0  0  0  0  0
  -20.3135  -40.5513   -5.7395 C   0  0  0  0  0  0  0  0  0  0  0  0
  -21.4231  -40.4624   -6.6749 C   0  0  0  0  0  0  0  0  0  0  0  0
  -22.5235  -41.4661   -6.5632 C   0  0  0  0  0  0  0  0  0  0  0  0
  -23.1075  -41.6454   -5.2225 C   0  0  0  0  0  0  0  0  0  0  0  0
  -23.0759  -42.9838   -4.6014 C   0  0  0  0  0  0  0  0  0  0  0  0
  -22.2350  -44.0467   -5.1301 C   0  0  0  0  0  0  0  0  0  0  0  0
  -22.4584  -44.6133   -6.4231 N   0  0  0  0  0  0  0  0  0  0  0  0
  -21.4059  -45.0511   -7.2662 N   0  0  0  0  0  0  0  0  0  0  0  0
  -20.1772  -44.4440   -7.6795 C   0  0  0  0  0  0  0  0  0  0  0  0
  -19.8152  -43.2799   -8.3333 C   0  0  0  0  0  0  0  0  0  0  0  0
  -18.4522  -43.0618   -8.5654 C   0  0  0  0  0  0  0  0  0  0  0  0
  -17.5373  -44.0484   -8.1158 C   0  0  0  0  0  0  0  0  0  0  0  0
  -17.9080  -45.1880   -7.4749 C   0  0  0  0  0  0  0  0  0  0  0  0
  -16.8776  -46.1938   -7.0260 C   0  0  0  0  0  0  0  0  0  0  0  0
  -19.1789  -45.3373   -7.2868 N   0  0  0  0  0  0  0  0  0  0  0  0
  -17.7012  -41.9750   -9.2012 C   0  0  0  0  0  0  0  0  0  0  0  0
  -16.6789  -42.3487   -9.9438 O   0  0  0  0  0  0  0  0  0  0  0  0
  -17.8126  -40.5754   -9.2108 N   0  0  0  0  0  0  0  0  0  0  0  0
  -23.7792  -44.8134   -6.9143 C   0  0  0  0  0  0  0  0  0  0  0  0
  -24.7870  -44.1761   -6.3767 O   0  0  0  0  0  0  0  0  0  0  0  0
  -24.2187  -45.6663   -7.9910 C   0  0  0  0  0  0  0  0  0  0  0  0
  -24.6925  -45.1677   -9.1973 C   0  0  0  0  0  0  0  0  0  0  0  0
  -25.1345  -46.0227  -10.1753 C   0  0  0  0  0  0  0  0  0  0  0  0
  -25.1231  -47.4040   -9.9941 C   0  0  0  0  0  0  0  0  0  0  0  0
  -25.5487  -48.2680  -10.9299 F   0  0  0  0  0  0  0  0  0  0  0  0
  -24.6571  -47.9184   -8.8050 C   0  0  0  0  0  0  0  0  0  0  0  0
  -24.2240  -47.0589   -7.8486 C   0  0  0  0  0  0  0  0  0  0  0  0
  -14.7265  -38.6542  -12.5847 C   0  0  0  0  0  0  0  0  0  0  0  0
  -14.0072  -39.2944  -13.5752 C   0  0  0  0  0  0  0  0  0  0  0  0
  -12.6879  -38.9805  -13.7807 C   0  0  0  0  0  0  0  0  0  0  0  0
  1  2  1  0
  2  3  1  0
  2  4  1  0
  4  5  2  0
  5  6  1  0
  6  7  1  0
  7  8  1  0
  8  9  1  0
  9 10  1  0
 10 11  1  6
 10 12  1  0
 12 13  1  1
 13 14  1  0
 14 15  1  1
 14 16  1  0
 16 17  1  0
 17 18  1  0
 18 19  1  0
 19 20  1  0
 20 21  1  0
 21 22  1  0
 22 23  1  0
 23 24  1  0
 24 25  2  0
 25 26  1  0
 26 27  2  0
 27 28  1  0
 28 29  1  0
 28 30  2  0
 26 31  1  0
 31 32  2  0
 31 33  1  0
 22 34  1  0
 34 35  2  0
 34 36  1  0
 36 37  2  0
 37 38  1  0
 38 39  2  0
 39 40  1  0
 39 41  1  0
 41 42  2  0
  6 43  2  0
 43 44  1  0
 44 45  2  0
 30 24  1  0
 33 12  1  0
 42 36  1  0
 45  4  1  0
M  END
$$$$
