
     RDKit          3D

 45 48  0  0  0  0  0  0  0  0999 V2000
  -13.1062  -35.2846  -14.2857 C   0  0  0  0  0  0  0  0  0  0  0  0
  -12.8802  -35.4668  -12.8121 C   0  0  0  0  0  0  0  0  0  0  0  0
  -11.5825  -34.7592  -12.4199 C   0  0  0  0  0  0  0  0  0  0  0  0
  -12.7336  -36.8898  -12.4119 C   0  0  0  0  0  0  0  0  0  0  0  0
  -12.7462  -37.2160  -11.0780 C   0  0  0  0  0  0  0  0  0  0  0  0
  -12.6212  -38.5209  -10.6556 C   0  0  0  0  0  0  0  0  0  0  0  0
  -12.6346  -38.8665   -9.1931 C   0  0  0  0  0  0  0  0  0  0  0  0
  -13.8661  -39.5071   -8.8864 N   0  0  0  0  0  0  0  0  0  0  0  0
  -15.0578  -38.7281   -9.0705 C   0  0  0  0  0  0  0  0  0  0  0  0
  -15.9629  -38.6530   -7.9187 C   0  0  1  0  0  0  0  0  0  0  0  0
  -16.4737  -37.3882   -7.6916 O   0  0  0  0  0  0  0  0  0  0  0  0
  -17.1712  -39.6013   -8.0243 C   0  0  2  0  0  0  0  0  0  0  0  0
  -18.1014  -39.3254   -6.8995 C   0  0  0  0  0  0  0  0  0  0  0  0
  -19.3624  -38.6170   -7.2240 C   0  0  2  0  0  0  0  0  0  0  0  0
  -19.4466  -37.4010   -6.2950 C   0  0  0  0  0  0  0  0  0  0  0  0
  -20.6245  -39.3580   -7.3345 C   0  0  0  0  0  0  0  0  0  0  0  0
  -21.0238  -40.0038   -8.5746 C   0  0  0  0  0  0  0  0  0  0  0  0
  -22.2032  -40.9197   -8.5463 C   0  0  0  0  0  0  0  0  0  0  0  0
  -23.4289  -40.3838   -7.9289 C   0  0  0  0  0  0  0  0  0  0  0  0
  -24.0189  -41.0930   -6.7769 C   0  0  0  0  0  0  0  0  0  0  0  0
  -23.2779  -42.1148   -6.0536 C   0  0  0  0  0  0  0  0  0  0  0  0
  -22.9015  -43.3501   -6.6662 N   0  0  0  0  0  0  0  0  0  0  0  0
  -21.6860  -44.0184   -6.3723 N   0  0  0  0  0  0  0  0  0  0  0  0
  -20.3275  -43.5735   -6.2972 C   0  0  0  0  0  0  0  0  0  0  0  0
  -19.4343  -42.9598   -7.1571 C   0  0  0  0  0  0  0  0  0  0  0  0
  -18.1449  -42.7007   -6.6783 C   0  0  0  0  0  0  0  0  0  0  0  0
  -17.8427  -43.0855   -5.3467 C   0  0  0  0  0  0  0  0  0  0  0  0
  -18.7309  -43.6883   -4.5133 C   0  0  0  0  0  0  0  0  0  0  0  0
  -18.3375  -44.0704   -3.1083 C   0  0  0  0  0  0  0  0  0  0  0  0
  -19.9067  -43.9030   -5.0076 N   0  0  0  0  0  0  0  0  0  0  0  0
  -16.9582  -42.0763   -7.2711 C   0  0  0  0  0  0  0  0  0  0  0  0
  -15.8070  -42.6401   -6.9668 O   0  0  0  0  0  0  0  0  0  0  0  0
  -16.7434  -40.9783   -8.1194 N   0  0  0  0  0  0  0  0  0  0  0  0
  -23.7708  -44.0050   -7.5832 C   0  0  0  0  0  0  0  0  0  0  0  0
  -23.2991  -44.5116   -8.6930 O   0  0  0  0  0  0  0  0  0  0  0  0
  -25.1931  -44.2190   -7.4779 C   0  0  0  0  0  0  0  0  0  0  0  0
  -25.7700  -44.9232   -6.4292 C   0  0  0  0  0  0  0  0  0  0  0  0
  -27.1260  -45.1312   -6.3966 C   0  0  0  0  0  0  0  0  0  0  0  0
  -27.9607  -44.6487   -7.4023 C   0  0  0  0  0  0  0  0  0  0  0  0
  -29.2907  -44.8350   -7.4011 F   0  0  0  0  0  0  0  0  0  0  0  0
  -27.4082  -43.9480   -8.4509 C   0  0  0  0  0  0  0  0  0  0  0  0
  -26.0658  -43.7515   -8.4676 C   0  0  0  0  0  0  0  0  0  0  0  0
  -12.4791  -39.5242  -11.6059 C   0  0  0  0  0  0  0  0  0  0  0  0
  -12.4650  -39.2058  -12.9501 C   0  0  0  0  0  0  0  0  0  0  0  0
  -12.5912  -37.8998  -13.3500 C   0  0  0  0  0  0  0  0  0  0  0  0
  1  2  1  0
  2  3  1  0
  2  4  1  0
  4  5  2  0
  5  6  1  0
  6  7  1  0
  7  8  1  0
  8  9  1  0
  9 10  1  0
 10 11  1  6
 10 12  1  0
 12 13  1  1
 13 14  1  0
 14 15  1  1
 14 16  1  0
 16 17  1  0
 17 18  1  0
 18 19  1  0
 19 20  1  0
 20 21  1  0
 21 22  1  0
 22 23  1  0
 23 24  1  0
 24 25  2  0
 25 26  1  0
 26 27  2  0
 27 28  1  0
 28 29  1  0
 28 30  2  0
 26 31  1  0
 31 32  2  0
 31 33  1  0
 22 34  1  0
 34 35  2  0
 34 36  1  0
 36 37  2  0
 37 38  1  0
 38 39  2  0
 39 40  1  0
 39 41  1  0
 41 42  2  0
  6 43  2  0
 43 44  1  0
 44 45  2  0
 30 24  1  0
 33 12  1  0
 42 36  1  0
 45  4  1  0
M  END
$$$$
