
     RDKit          3D

 40 43  0  0  0  0  0  0  0  0999 V2000
  -21.2139  -39.7975  -15.4061 C   0  0  0  0  0  0  0  0  0  0  0  0
  -20.9791  -40.0080  -14.0496 O   0  0  0  0  0  0  0  0  0  0  0  0
  -21.9239  -40.8243  -13.4700 C   0  0  0  0  0  0  0  0  0  0  0  0
  -21.5547  -41.1487  -12.0756 C   0  0  0  0  0  0  0  0  0  0  0  0
  -22.4626  -41.6393  -11.1779 C   0  0  0  0  0  0  0  0  0  0  0  0
  -22.1269  -41.9575   -9.8336 C   0  0  0  0  0  0  0  0  0  0  0  0
  -20.8400  -41.7818   -9.3750 C   0  0  0  0  0  0  0  0  0  0  0  0
  -19.9015  -41.2844  -10.2577 C   0  0  0  0  0  0  0  0  0  0  0  0
  -20.2914  -40.9818  -11.5922 C   0  0  0  0  0  0  0  0  0  0  0  0
  -18.4841  -40.9408  -10.0920 C   0  0  0  0  0  0  0  0  0  0  0  0
  -17.6620  -41.2376  -11.0700 O   0  0  0  0  0  0  0  0  0  0  0  0
  -17.7623  -40.3192   -9.0492 N   0  0  0  0  0  0  0  0  0  0  0  0
  -18.3892  -39.4237   -8.0522 C   0  0  1  0  0  0  0  0  0  0  0  0
  -18.2666  -39.9655   -6.6956 C   0  0  0  0  0  0  0  0  0  0  0  0
  -19.3924  -40.0051   -5.7290 C   0  0  0  0  0  0  0  0  0  0  0  0
  -20.7170  -40.2320   -5.9125 C   0  0  0  0  0  0  0  0  0  0  0  0
  -21.5372  -40.2689   -4.7780 C   0  0  0  0  0  0  0  0  0  0  0  0
  -21.0054  -40.0727   -3.5088 C   0  0  0  0  0  0  0  0  0  0  0  0
  -19.6661  -39.8374   -3.2833 C   0  0  0  0  0  0  0  0  0  0  0  0
  -18.8963  -39.8114   -4.4073 C   0  0  0  0  0  0  0  0  0  0  0  0
  -22.9105  -40.4914   -4.7221 O   0  0  0  0  0  0  0  0  0  0  0  0
  -23.7207  -41.5884   -5.0809 C   0  0  0  0  0  0  0  0  0  0  0  0
  -22.9606  -42.7123   -5.6993 C   0  0  0  0  0  0  0  0  0  0  0  0
  -23.6808  -43.1696   -6.9476 C   0  0  0  0  0  0  0  0  0  0  0  0
  -23.9176  -42.0342   -7.9123 C   0  0  0  0  0  0  0  0  0  0  0  0
  -23.3241  -42.3971   -9.1749 N   0  0  0  0  0  0  0  0  0  0  0  0
  -17.7483  -38.0582   -8.2601 C   0  0  2  0  0  0  0  0  0  0  0  0
  -18.6737  -37.0683   -7.8548 O   0  0  0  0  0  0  0  0  0  0  0  0
  -17.4287  -37.7504   -9.6943 C   0  0  0  0  0  0  0  0  0  0  0  0
  -16.3703  -38.6435  -10.1176 N   0  0  0  0  0  0  0  0  0  0  0  0
  -15.7045  -38.2651  -11.3207 C   0  0  0  0  0  0  0  0  0  0  0  0
  -14.2987  -37.8240  -11.0089 C   0  0  0  0  0  0  0  0  0  0  0  0
  -13.8236  -36.5457  -10.8416 C   0  0  0  0  0  0  0  0  0  0  0  0
  -12.5059  -36.6409  -10.5789 N   0  0  0  0  0  0  0  0  0  0  0  0
  -12.1007  -37.8963  -10.5662 N   0  0  0  0  0  0  0  0  0  0  0  0
  -10.7491  -38.3823  -10.3188 C   0  0  0  0  0  0  0  0  0  0  0  0
   -9.7572  -37.5382  -11.1025 C   0  0  0  0  0  0  0  0  0  0  0  0
   -9.3797  -36.2945  -10.3399 C   0  0  0  0  0  0  0  0  0  0  0  0
   -8.4853  -38.3033  -11.3727 C   0  0  0  0  0  0  0  0  0  0  0  0
  -13.2020  -38.6441  -10.8314 C   0  0  0  0  0  0  0  0  0  0  0  0
  1  2  1  0
  2  3  1  0
  3  4  1  0
  4  5  2  0
  5  6  1  0
  6  7  2  0
  7  8  1  0
  8  9  2  0
  8 10  1  0
 10 11  2  0
 10 12  1  0
 12 13  1  0
 13 14  1  1
 14 15  1  0
 15 16  2  0
 16 17  1  0
 17 18  2  0
 18 19  1  0
 19 20  2  0
 17 21  1  0
 21 22  1  0
 22 23  1  0
 23 24  1  0
 24 25  1  0
 25 26  1  0
 13 27  1  0
 27 28  1  6
 27 29  1  0
 29 30  1  0
 30 31  1  0
 31 32  1  0
 32 33  1  0
 33 34  2  0
 34 35  1  0
 35 36  1  0
 36 37  1  0
 37 38  1  0
 37 39  1  0
 35 40  1  0
  9  4  1  0
 20 15  1  0
 26  6  1  0
 40 32  2  0
M  END
$$$$
