
     RDKit          3D

 40 43  0  0  0  0  0  0  0  0999 V2000
  -20.0959  -43.4662   -1.5997 C   0  0  0  0  0  0  0  0  0  0  0  0
  -20.6116  -43.7344   -2.8652 O   0  0  0  0  0  0  0  0  0  0  0  0
  -21.8468  -43.1607   -3.0653 C   0  0  0  0  0  0  0  0  0  0  0  0
  -21.8759  -42.4038   -4.3350 C   0  0  0  0  0  0  0  0  0  0  0  0
  -22.8413  -42.6085   -5.2820 C   0  0  0  0  0  0  0  0  0  0  0  0
  -22.8864  -41.8906   -6.5084 C   0  0  0  0  0  0  0  0  0  0  0  0
  -21.9362  -40.9351   -6.7935 C   0  0  0  0  0  0  0  0  0  0  0  0
  -20.9463  -40.7085   -5.8575 C   0  0  0  0  0  0  0  0  0  0  0  0
  -20.9478  -41.4557   -4.6466 C   0  0  0  0  0  0  0  0  0  0  0  0
  -19.7806  -39.8165   -5.8588 C   0  0  0  0  0  0  0  0  0  0  0  0
  -19.4762  -39.2024   -4.7405 O   0  0  0  0  0  0  0  0  0  0  0  0
  -18.8523  -39.4510   -6.8585 N   0  0  0  0  0  0  0  0  0  0  0  0
  -18.5710  -40.2864   -8.0468 C   0  0  1  0  0  0  0  0  0  0  0  0
  -18.9243  -39.5883   -9.2864 C   0  0  0  0  0  0  0  0  0  0  0  0
  -19.6814  -40.2252  -10.3930 C   0  0  0  0  0  0  0  0  0  0  0  0
  -20.6978  -41.1231  -10.3763 C   0  0  0  0  0  0  0  0  0  0  0  0
  -21.2598  -41.4972  -11.6032 C   0  0  0  0  0  0  0  0  0  0  0  0
  -20.7827  -40.9659  -12.7959 C   0  0  0  0  0  0  0  0  0  0  0  0
  -19.7508  -40.0538  -12.8528 C   0  0  0  0  0  0  0  0  0  0  0  0
  -19.2294  -39.7091  -11.6420 C   0  0  0  0  0  0  0  0  0  0  0  0
  -22.3063  -42.3873  -11.8289 O   0  0  0  0  0  0  0  0  0  0  0  0
  -23.6645  -42.3887  -11.4492 C   0  0  0  0  0  0  0  0  0  0  0  0
  -24.0408  -41.2355  -10.5821 C   0  0  0  0  0  0  0  0  0  0  0  0
  -24.8395  -41.7426   -9.4026 C   0  0  0  0  0  0  0  0  0  0  0  0
  -24.1050  -42.8194   -8.6429 C   0  0  0  0  0  0  0  0  0  0  0  0
  -23.9943  -42.3934   -7.2703 N   0  0  0  0  0  0  0  0  0  0  0  0
  -17.1079  -40.6924   -7.9315 C   0  0  2  0  0  0  0  0  0  0  0  0
  -17.0509  -41.9867   -7.3641 O   0  0  0  0  0  0  0  0  0  0  0  0
  -16.3050  -39.8136   -7.0166 C   0  0  0  0  0  0  0  0  0  0  0  0
  -16.4406  -38.4474   -7.4770 N   0  0  0  0  0  0  0  0  0  0  0  0
  -15.2152  -37.7311   -7.6149 C   0  0  0  0  0  0  0  0  0  0  0  0
  -15.1778  -37.0360   -8.9504 C   0  0  0  0  0  0  0  0  0  0  0  0
  -15.8230  -35.8840   -9.3303 C   0  0  0  0  0  0  0  0  0  0  0  0
  -15.4930  -35.6466  -10.6145 N   0  0  0  0  0  0  0  0  0  0  0  0
  -14.6776  -36.5699  -11.0869 N   0  0  0  0  0  0  0  0  0  0  0  0
  -14.1133  -36.6422  -12.4288 C   0  0  0  0  0  0  0  0  0  0  0  0
  -15.2224  -36.4675  -13.4535 C   0  0  0  0  0  0  0  0  0  0  0  0
  -14.7994  -35.5347  -14.5589 C   0  0  0  0  0  0  0  0  0  0  0  0
  -15.5864  -37.7851  -14.0918 C   0  0  0  0  0  0  0  0  0  0  0  0
  -14.4717  -37.4403  -10.0661 C   0  0  0  0  0  0  0  0  0  0  0  0
  1  2  1  0
  2  3  1  0
  3  4  1  0
  4  5  2  0
  5  6  1  0
  6  7  2  0
  7  8  1  0
  8  9  2  0
  8 10  1  0
 10 11  2  0
 10 12  1  0
 12 13  1  0
 13 14  1  6
 14 15  1  0
 15 16  2  0
 16 17  1  0
 17 18  2  0
 18 19  1  0
 19 20  2  0
 17 21  1  0
 21 22  1  0
 22 23  1  0
 23 24  1  0
 24 25  1  0
 25 26  1  0
 13 27  1  0
 27 28  1  1
 27 29  1  0
 29 30  1  0
 30 31  1  0
 31 32  1  0
 32 33  1  0
 33 34  2  0
 34 35  1  0
 35 36  1  0
 36 37  1  0
 37 38  1  0
 37 39  1  0
 35 40  1  0
  9  4  1  0
 20 15  1  0
 26  6  1  0
 40 32  2  0
M  END
$$$$
