
     RDKit          3D

 40 43  0  0  0  0  0  0  0  0999 V2000
  -17.3488  -47.4922  -10.9239 C   0  0  0  0  0  0  0  0  0  0  0  0
  -18.1385  -46.3858  -11.2270 O   0  0  0  0  0  0  0  0  0  0  0  0
  -17.5141  -45.1945  -10.9343 C   0  0  0  0  0  0  0  0  0  0  0  0
  -18.0667  -44.6006   -9.6983 C   0  0  0  0  0  0  0  0  0  0  0  0
  -19.3256  -44.8930   -9.2504 C   0  0  0  0  0  0  0  0  0  0  0  0
  -19.8743  -44.3327   -8.0645 C   0  0  0  0  0  0  0  0  0  0  0  0
  -19.1372  -43.4543   -7.3015 C   0  0  0  0  0  0  0  0  0  0  0  0
  -17.8634  -43.1370   -7.7303 C   0  0  0  0  0  0  0  0  0  0  0  0
  -17.3633  -43.7260   -8.9251 C   0  0  0  0  0  0  0  0  0  0  0  0
  -16.8470  -42.2235   -7.1947 C   0  0  0  0  0  0  0  0  0  0  0  0
  -15.5943  -42.6110   -7.2283 O   0  0  0  0  0  0  0  0  0  0  0  0
  -16.9211  -40.9367   -6.6173 N   0  0  0  0  0  0  0  0  0  0  0  0
  -18.0405  -40.0013   -6.8646 C   0  0  1  0  0  0  0  0  0  0  0  0
  -18.7619  -39.6920   -5.6266 C   0  0  0  0  0  0  0  0  0  0  0  0
  -20.2427  -39.6903   -5.5250 C   0  0  0  0  0  0  0  0  0  0  0  0
  -21.1767  -40.4858   -6.1034 C   0  0  0  0  0  0  0  0  0  0  0  0
  -22.5178  -40.2761   -5.7593 C   0  0  0  0  0  0  0  0  0  0  0  0
  -22.8737  -39.2793   -4.8581 C   0  0  0  0  0  0  0  0  0  0  0  0
  -21.9539  -38.4505   -4.2525 C   0  0  0  0  0  0  0  0  0  0  0  0
  -20.6588  -38.6836   -4.6063 C   0  0  0  0  0  0  0  0  0  0  0  0
  -23.6363  -40.9683   -6.2155 O   0  0  0  0  0  0  0  0  0  0  0  0
  -24.0418  -42.3148   -6.1087 C   0  0  0  0  0  0  0  0  0  0  0  0
  -23.0441  -43.1836   -5.4209 C   0  0  0  0  0  0  0  0  0  0  0  0
  -22.8460  -44.4460   -6.2291 C   0  0  0  0  0  0  0  0  0  0  0  0
  -22.4636  -44.1490   -7.6579 C   0  0  0  0  0  0  0  0  0  0  0  0
  -21.2175  -44.8206   -7.9298 N   0  0  0  0  0  0  0  0  0  0  0  0
  -17.4280  -38.7988   -7.5701 C   0  0  2  0  0  0  0  0  0  0  0  0
  -18.0521  -38.6603   -8.8317 O   0  0  0  0  0  0  0  0  0  0  0  0
  -15.9619  -38.9465   -7.8577 C   0  0  0  0  0  0  0  0  0  0  0  0
  -15.7391  -40.2836   -8.3669 N   0  0  0  0  0  0  0  0  0  0  0  0
  -14.4609  -40.4993   -8.9615 C   0  0  0  0  0  0  0  0  0  0  0  0
  -13.9406  -39.2079   -9.5355 C   0  0  0  0  0  0  0  0  0  0  0  0
  -12.8181  -38.5041   -9.1716 C   0  0  0  0  0  0  0  0  0  0  0  0
  -12.7578  -37.4135   -9.9598 N   0  0  0  0  0  0  0  0  0  0  0  0
  -13.7677  -37.3681  -10.8075 N   0  0  0  0  0  0  0  0  0  0  0  0
  -14.0319  -36.3411  -11.8073 C   0  0  0  0  0  0  0  0  0  0  0  0
  -12.8788  -36.2903  -12.7965 C   0  0  0  0  0  0  0  0  0  0  0  0
  -12.7118  -37.6097  -13.5052 C   0  0  0  0  0  0  0  0  0  0  0  0
  -13.1137  -35.2392  -13.8529 C   0  0  0  0  0  0  0  0  0  0  0  0
  -14.5118  -38.4754  -10.5573 C   0  0  0  0  0  0  0  0  0  0  0  0
  1  2  1  0
  2  3  1  0
  3  4  1  0
  4  5  2  0
  5  6  1  0
  6  7  2  0
  7  8  1  0
  8  9  2  0
  8 10  1  0
 10 11  2  0
 10 12  1  0
 12 13  1  0
 13 14  1  1
 14 15  1  0
 15 16  2  0
 16 17  1  0
 17 18  2  0
 18 19  1  0
 19 20  2  0
 17 21  1  0
 21 22  1  0
 22 23  1  0
 23 24  1  0
 24 25  1  0
 25 26  1  0
 13 27  1  0
 27 28  1  6
 27 29  1  0
 29 30  1  0
 30 31  1  0
 31 32  1  0
 32 33  1  0
 33 34  2  0
 34 35  1  0
 35 36  1  0
 36 37  1  0
 37 38  1  0
 37 39  1  0
 35 40  1  0
  9  4  1  0
 20 15  1  0
 26  6  1  0
 40 32  2  0
M  END
$$$$
