
     RDKit          3D

 40 43  0  0  0  0  0  0  0  0999 V2000
  -15.5285  -46.0972  -10.7584 C   0  0  0  0  0  0  0  0  0  0  0  0
  -16.7643  -46.2991  -11.3681 O   0  0  0  0  0  0  0  0  0  0  0  0
  -17.4248  -45.1196  -11.6276 C   0  0  0  0  0  0  0  0  0  0  0  0
  -17.9627  -44.5328  -10.3817 C   0  0  0  0  0  0  0  0  0  0  0  0
  -19.2017  -44.8564   -9.9009 C   0  0  0  0  0  0  0  0  0  0  0  0
  -19.7360  -44.3034   -8.7051 C   0  0  0  0  0  0  0  0  0  0  0  0
  -19.0046  -43.4003   -7.9658 C   0  0  0  0  0  0  0  0  0  0  0  0
  -17.7510  -43.0513   -8.4281 C   0  0  0  0  0  0  0  0  0  0  0  0
  -17.2646  -43.6343   -9.6315 C   0  0  0  0  0  0  0  0  0  0  0  0
  -16.7470  -42.1069   -7.9234 C   0  0  0  0  0  0  0  0  0  0  0  0
  -15.4854  -42.4603   -7.9859 O   0  0  0  0  0  0  0  0  0  0  0  0
  -16.8421  -40.8188   -7.3520 N   0  0  0  0  0  0  0  0  0  0  0  0
  -17.9924  -39.9159   -7.5769 C   0  0  1  0  0  0  0  0  0  0  0  0
  -18.6912  -39.6182   -6.3232 C   0  0  0  0  0  0  0  0  0  0  0  0
  -20.1686  -39.6562   -6.1847 C   0  0  0  0  0  0  0  0  0  0  0  0
  -21.0943  -40.4806   -6.7349 C   0  0  0  0  0  0  0  0  0  0  0  0
  -22.4318  -40.3052   -6.3588 C   0  0  0  0  0  0  0  0  0  0  0  0
  -22.7925  -39.3126   -5.4549 C   0  0  0  0  0  0  0  0  0  0  0  0
  -21.8810  -38.4550   -4.8773 C   0  0  0  0  0  0  0  0  0  0  0  0
  -20.5892  -38.6551   -5.2619 C   0  0  0  0  0  0  0  0  0  0  0  0
  -23.5419  -41.0307   -6.7829 O   0  0  0  0  0  0  0  0  0  0  0  0
  -23.9075  -42.3870   -6.6580 C   0  0  0  0  0  0  0  0  0  0  0  0
  -22.8697  -43.2237   -5.9901 C   0  0  0  0  0  0  0  0  0  0  0  0
  -22.6572  -44.4856   -6.7955 C   0  0  0  0  0  0  0  0  0  0  0  0
  -22.3186  -44.1877   -8.2351 C   0  0  0  0  0  0  0  0  0  0  0  0
  -21.0616  -44.8269   -8.5340 N   0  0  0  0  0  0  0  0  0  0  0  0
  -17.4307  -38.7019   -8.3045 C   0  0  2  0  0  0  0  0  0  0  0  0
  -18.4751  -38.1129   -9.0547 O   0  0  0  0  0  0  0  0  0  0  0  0
  -16.3560  -39.0344   -9.2987 C   0  0  0  0  0  0  0  0  0  0  0  0
  -15.1382  -38.3734   -8.8778 N   0  0  0  0  0  0  0  0  0  0  0  0
  -13.9527  -39.1572   -8.9957 C   0  0  0  0  0  0  0  0  0  0  0  0
  -13.7456  -39.5563  -10.4331 C   0  0  0  0  0  0  0  0  0  0  0  0
  -14.2949  -38.9961  -11.5610 C   0  0  0  0  0  0  0  0  0  0  0  0
  -13.8232  -39.6842  -12.6186 N   0  0  0  0  0  0  0  0  0  0  0  0
  -13.0062  -40.6507  -12.2463 N   0  0  0  0  0  0  0  0  0  0  0  0
  -12.3098  -41.5959  -13.1101 C   0  0  0  0  0  0  0  0  0  0  0  0
  -10.9376  -41.8954  -12.5287 C   0  0  0  0  0  0  0  0  0  0  0  0
  -10.2994  -43.0727  -13.2199 C   0  0  0  0  0  0  0  0  0  0  0  0
  -10.0077  -40.7189  -12.6939 C   0  0  0  0  0  0  0  0  0  0  0  0
  -12.9469  -40.5851  -10.8919 C   0  0  0  0  0  0  0  0  0  0  0  0
  1  2  1  0
  2  3  1  0
  3  4  1  0
  4  5  2  0
  5  6  1  0
  6  7  2  0
  7  8  1  0
  8  9  2  0
  8 10  1  0
 10 11  2  0
 10 12  1  0
 12 13  1  0
 13 14  1  1
 14 15  1  0
 15 16  2  0
 16 17  1  0
 17 18  2  0
 18 19  1  0
 19 20  2  0
 17 21  1  0
 21 22  1  0
 22 23  1  0
 23 24  1  0
 24 25  1  0
 25 26  1  0
 13 27  1  0
 27 28  1  6
 27 29  1  0
 29 30  1  0
 30 31  1  0
 31 32  1  0
 32 33  1  0
 33 34  2  0
 34 35  1  0
 35 36  1  0
 36 37  1  0
 37 38  1  0
 37 39  1  0
 35 40  1  0
  9  4  1  0
 20 15  1  0
 26  6  1  0
 40 32  2  0
M  END
$$$$
