
     RDKit          3D

 40 43  0  0  0  0  0  0  0  0999 V2000
  -17.2754  -33.0534  -11.7186 C   0  0  0  0  0  0  0  0  0  0  0  0
  -17.1757  -34.3219  -11.1526 O   0  0  0  0  0  0  0  0  0  0  0  0
  -15.9603  -34.5346  -10.5423 C   0  0  0  0  0  0  0  0  0  0  0  0
  -15.6772  -35.9808  -10.4232 C   0  0  0  0  0  0  0  0  0  0  0  0
  -14.8007  -36.6215  -11.2551 C   0  0  0  0  0  0  0  0  0  0  0  0
  -14.5151  -38.0108  -11.1561 C   0  0  0  0  0  0  0  0  0  0  0  0
  -15.1245  -38.7818  -10.1910 C   0  0  0  0  0  0  0  0  0  0  0  0
  -16.0175  -38.1633   -9.3382 C   0  0  0  0  0  0  0  0  0  0  0  0
  -16.2673  -36.7699   -9.4816 C   0  0  0  0  0  0  0  0  0  0  0  0
  -16.8571  -38.6826   -8.2520 C   0  0  0  0  0  0  0  0  0  0  0  0
  -16.9832  -37.9517   -7.1702 O   0  0  0  0  0  0  0  0  0  0  0  0
  -17.6104  -39.8681   -8.1035 N   0  0  0  0  0  0  0  0  0  0  0  0
  -18.1081  -40.6603   -9.2497 C   0  0  1  0  0  0  0  0  0  0  0  0
  -17.5347  -42.0093   -9.2560 C   0  0  0  0  0  0  0  0  0  0  0  0
  -16.9846  -42.6554  -10.4739 C   0  0  0  0  0  0  0  0  0  0  0  0
  -16.2893  -42.1413  -11.5188 C   0  0  0  0  0  0  0  0  0  0  0  0
  -15.8428  -43.0279  -12.5065 C   0  0  0  0  0  0  0  0  0  0  0  0
  -16.1121  -44.3886  -12.4156 C   0  0  0  0  0  0  0  0  0  0  0  0
  -16.8170  -44.9471  -11.3710 C   0  0  0  0  0  0  0  0  0  0  0  0
  -17.2334  -44.0577  -10.4264 C   0  0  0  0  0  0  0  0  0  0  0  0
  -15.1117  -42.7326  -13.6540 O   0  0  0  0  0  0  0  0  0  0  0  0
  -13.8259  -42.1913  -13.8604 C   0  0  0  0  0  0  0  0  0  0  0  0
  -13.1348  -41.8019  -12.5979 C   0  0  0  0  0  0  0  0  0  0  0  0
  -12.5516  -40.4162  -12.7595 C   0  0  0  0  0  0  0  0  0  0  0  0
  -13.5934  -39.4095  -13.1804 C   0  0  0  0  0  0  0  0  0  0  0  0
  -13.5971  -38.3458  -12.2076 N   0  0  0  0  0  0  0  0  0  0  0  0
  -19.6274  -40.6072   -9.1622 C   0  0  2  0  0  0  0  0  0  0  0  0
  -20.0696  -39.4462   -9.8381 O   0  0  0  0  0  0  0  0  0  0  0  0
  -20.1500  -40.4832   -7.7602 C   0  0  0  0  0  0  0  0  0  0  0  0
  -20.9300  -39.2658   -7.6803 N   0  0  0  0  0  0  0  0  0  0  0  0
  -22.1566  -39.3793   -6.9618 C   0  0  0  0  0  0  0  0  0  0  0  0
  -21.9931  -40.3515   -5.8233 C   0  0  0  0  0  0  0  0  0  0  0  0
  -22.4144  -41.6573   -5.7499 C   0  0  0  0  0  0  0  0  0  0  0  0
  -22.0479  -42.1276   -4.5421 N   0  0  0  0  0  0  0  0  0  0  0  0
  -21.4182  -41.2109   -3.8325 N   0  0  0  0  0  0  0  0  0  0  0  0
  -20.8790  -41.3571   -2.4863 C   0  0  0  0  0  0  0  0  0  0  0  0
  -21.2641  -42.7193   -1.9328 C   0  0  0  0  0  0  0  0  0  0  0  0
  -20.2439  -43.2104   -0.9382 C   0  0  0  0  0  0  0  0  0  0  0  0
  -22.5936  -42.6621   -1.2219 C   0  0  0  0  0  0  0  0  0  0  0  0
  -21.3756  -40.1018   -4.6136 C   0  0  0  0  0  0  0  0  0  0  0  0
  1  2  1  0
  2  3  1  0
  3  4  1  0
  4  5  2  0
  5  6  1  0
  6  7  2  0
  7  8  1  0
  8  9  2  0
  8 10  1  0
 10 11  2  0
 10 12  1  0
 12 13  1  0
 13 14  1  1
 14 15  1  0
 15 16  2  0
 16 17  1  0
 17 18  2  0
 18 19  1  0
 19 20  2  0
 17 21  1  0
 21 22  1  0
 22 23  1  0
 23 24  1  0
 24 25  1  0
 25 26  1  0
 13 27  1  0
 27 28  1  6
 27 29  1  0
 29 30  1  0
 30 31  1  0
 31 32  1  0
 32 33  1  0
 33 34  2  0
 34 35  1  0
 35 36  1  0
 36 37  1  0
 37 38  1  0
 37 39  1  0
 35 40  1  0
  9  4  1  0
 20 15  1  0
 26  6  1  0
 40 32  2  0
M  END
$$$$
