
     RDKit          3D

 40 43  0  0  0  0  0  0  0  0999 V2000
  -15.3006  -46.9226  -10.1283 C   0  0  0  0  0  0  0  0  0  0  0  0
  -16.6234  -46.8285   -9.7026 O   0  0  0  0  0  0  0  0  0  0  0  0
  -17.3054  -45.8038  -10.3188 C   0  0  0  0  0  0  0  0  0  0  0  0
  -17.9367  -44.9162   -9.3191 C   0  0  0  0  0  0  0  0  0  0  0  0
  -19.2186  -45.1081   -8.8822 C   0  0  0  0  0  0  0  0  0  0  0  0
  -19.8427  -44.2661   -7.9216 C   0  0  0  0  0  0  0  0  0  0  0  0
  -19.1598  -43.2000   -7.3790 C   0  0  0  0  0  0  0  0  0  0  0  0
  -17.8643  -42.9787   -7.8033 C   0  0  0  0  0  0  0  0  0  0  0  0
  -17.2880  -43.8519   -8.7677 C   0  0  0  0  0  0  0  0  0  0  0  0
  -16.8889  -41.9328   -7.4731 C   0  0  0  0  0  0  0  0  0  0  0  0
  -15.6339  -42.2864   -7.3307 O   0  0  0  0  0  0  0  0  0  0  0  0
  -17.0072  -40.5409   -7.2642 N   0  0  0  0  0  0  0  0  0  0  0  0
  -18.1158  -39.7306   -7.8151 C   0  0  1  0  0  0  0  0  0  0  0  0
  -18.9137  -39.1207   -6.7474 C   0  0  0  0  0  0  0  0  0  0  0  0
  -20.3980  -39.1261   -6.7346 C   0  0  0  0  0  0  0  0  0  0  0  0
  -21.2892  -40.0678   -7.1328 C   0  0  0  0  0  0  0  0  0  0  0  0
  -22.6504  -39.8051   -6.9341 C   0  0  0  0  0  0  0  0  0  0  0  0
  -23.0676  -38.6135   -6.3526 C   0  0  0  0  0  0  0  0  0  0  0  0
  -22.1923  -37.6327   -5.9379 C   0  0  0  0  0  0  0  0  0  0  0  0
  -20.8765  -37.9215   -6.1424 C   0  0  0  0  0  0  0  0  0  0  0  0
  -23.7340  -40.6191   -7.2528 O   0  0  0  0  0  0  0  0  0  0  0  0
  -24.1359  -41.8979   -6.8147 C   0  0  0  0  0  0  0  0  0  0  0  0
  -23.1761  -42.5300   -5.8647 C   0  0  0  0  0  0  0  0  0  0  0  0
  -22.9202  -43.9567   -6.2950 C   0  0  0  0  0  0  0  0  0  0  0  0
  -22.4532  -44.0406   -7.7271 C   0  0  0  0  0  0  0  0  0  0  0  0
  -21.1882  -44.7315   -7.7388 N   0  0  0  0  0  0  0  0  0  0  0  0
  -17.4697  -38.7446   -8.7790 C   0  0  2  0  0  0  0  0  0  0  0  0
  -18.3052  -38.6224   -9.9136 O   0  0  0  0  0  0  0  0  0  0  0  0
  -16.1371  -39.1947   -9.3041 C   0  0  0  0  0  0  0  0  0  0  0  0
  -15.1304  -38.8500   -8.3220 N   0  0  0  0  0  0  0  0  0  0  0  0
  -13.8258  -38.6177   -8.8490 C   0  0  0  0  0  0  0  0  0  0  0  0
  -13.4254  -39.7616   -9.7431 C   0  0  0  0  0  0  0  0  0  0  0  0
  -13.5228  -41.1099   -9.4978 C   0  0  0  0  0  0  0  0  0  0  0  0
  -13.0413  -41.7486  -10.5816 N   0  0  0  0  0  0  0  0  0  0  0  0
  -12.6400  -40.9005  -11.5090 N   0  0  0  0  0  0  0  0  0  0  0  0
  -12.0655  -41.2247  -12.8087 C   0  0  0  0  0  0  0  0  0  0  0  0
  -12.8641  -42.3490  -13.4479 C   0  0  0  0  0  0  0  0  0  0  0  0
  -13.7667  -41.8249  -14.5350 C   0  0  0  0  0  0  0  0  0  0  0  0
  -11.9534  -43.3751  -14.0756 C   0  0  0  0  0  0  0  0  0  0  0  0
  -12.8717  -39.6620  -11.0042 C   0  0  0  0  0  0  0  0  0  0  0  0
  1  2  1  0
  2  3  1  0
  3  4  1  0
  4  5  2  0
  5  6  1  0
  6  7  2  0
  7  8  1  0
  8  9  2  0
  8 10  1  0
 10 11  2  0
 10 12  1  0
 12 13  1  0
 13 14  1  1
 14 15  1  0
 15 16  2  0
 16 17  1  0
 17 18  2  0
 18 19  1  0
 19 20  2  0
 17 21  1  0
 21 22  1  0
 22 23  1  0
 23 24  1  0
 24 25  1  0
 25 26  1  0
 13 27  1  0
 27 28  1  6
 27 29  1  0
 29 30  1  0
 30 31  1  0
 31 32  1  0
 32 33  1  0
 33 34  2  0
 34 35  1  0
 35 36  1  0
 36 37  1  0
 37 38  1  0
 37 39  1  0
 35 40  1  0
  9  4  1  0
 20 15  1  0
 26  6  1  0
 40 32  2  0
M  END
$$$$
