
     RDKit          3D

 40 43  0  0  0  0  0  0  0  0999 V2000
  -10.8515  -42.3476   -7.9981 C   0  0  0  0  0  0  0  0  0  0  0  0
  -10.2082  -42.8048   -9.1456 O   0  0  0  0  0  0  0  0  0  0  0  0
  -11.0818  -43.3465  -10.0611 C   0  0  0  0  0  0  0  0  0  0  0  0
  -11.9553  -42.3018  -10.6367 C   0  0  0  0  0  0  0  0  0  0  0  0
  -11.4704  -41.3147  -11.4500 C   0  0  0  0  0  0  0  0  0  0  0  0
  -12.2942  -40.3021  -12.0132 C   0  0  0  0  0  0  0  0  0  0  0  0
  -13.6472  -40.2796  -11.7562 C   0  0  0  0  0  0  0  0  0  0  0  0
  -14.1657  -41.2618  -10.9354 C   0  0  0  0  0  0  0  0  0  0  0  0
  -13.2962  -42.2513  -10.3975 C   0  0  0  0  0  0  0  0  0  0  0  0
  -15.5226  -41.5029  -10.4305 C   0  0  0  0  0  0  0  0  0  0  0  0
  -15.9435  -42.7437  -10.3692 O   0  0  0  0  0  0  0  0  0  0  0  0
  -16.5403  -40.6423   -9.9629 N   0  0  0  0  0  0  0  0  0  0  0  0
  -16.2734  -39.2907   -9.4234 C   0  0  1  0  0  0  0  0  0  0  0  0
  -16.9166  -38.2543  -10.2364 C   0  0  0  0  0  0  0  0  0  0  0  0
  -16.2288  -37.0104  -10.6642 C   0  0  0  0  0  0  0  0  0  0  0  0
  -14.9448  -36.7857  -11.0388 C   0  0  0  0  0  0  0  0  0  0  0  0
  -14.6023  -35.4937  -11.4566 C   0  0  0  0  0  0  0  0  0  0  0  0
  -15.5511  -34.4780  -11.4785 C   0  0  0  0  0  0  0  0  0  0  0  0
  -16.8637  -34.6676  -11.1031 C   0  0  0  0  0  0  0  0  0  0  0  0
  -17.1639  -35.9359  -10.7058 C   0  0  0  0  0  0  0  0  0  0  0  0
  -13.3608  -35.0354  -11.8891 O   0  0  0  0  0  0  0  0  0  0  0  0
  -12.5395  -35.3764  -12.9837 C   0  0  0  0  0  0  0  0  0  0  0  0
  -13.0822  -36.4930  -13.8094 C   0  0  0  0  0  0  0  0  0  0  0  0
  -11.9812  -37.4955  -14.0718 C   0  0  0  0  0  0  0  0  0  0  0  0
  -11.3420  -37.9811  -12.7945 C   0  0  0  0  0  0  0  0  0  0  0  0
  -11.4499  -39.4183  -12.7660 N   0  0  0  0  0  0  0  0  0  0  0  0
  -16.7138  -39.3313   -7.9663 C   0  0  2  0  0  0  0  0  0  0  0  0
  -15.5583  -39.2751   -7.1527 O   0  0  0  0  0  0  0  0  0  0  0  0
  -17.4189  -40.5995   -7.5811 C   0  0  0  0  0  0  0  0  0  0  0  0
  -18.3709  -40.9162   -8.6253 N   0  0  0  0  0  0  0  0  0  0  0  0
  -19.0969  -42.1287   -8.4345 C   0  0  0  0  0  0  0  0  0  0  0  0
  -20.3037  -41.8705   -7.5712 C   0  0  0  0  0  0  0  0  0  0  0  0
  -21.3589  -42.7101   -7.3079 C   0  0  0  0  0  0  0  0  0  0  0  0
  -22.1989  -42.0500   -6.4874 N   0  0  0  0  0  0  0  0  0  0  0  0
  -21.7545  -40.8404   -6.2050 N   0  0  0  0  0  0  0  0  0  0  0  0
  -22.3937  -39.8444   -5.3543 C   0  0  0  0  0  0  0  0  0  0  0  0
  -23.1222  -38.8312   -6.2222 C   0  0  0  0  0  0  0  0  0  0  0  0
  -24.0615  -37.9867   -5.4002 C   0  0  0  0  0  0  0  0  0  0  0  0
  -22.1511  -37.8953   -6.8983 C   0  0  0  0  0  0  0  0  0  0  0  0
  -20.5782  -40.7129   -6.8701 C   0  0  0  0  0  0  0  0  0  0  0  0
  1  2  1  0
  2  3  1  0
  3  4  1  0
  4  5  2  0
  5  6  1  0
  6  7  2  0
  7  8  1  0
  8  9  2  0
  8 10  1  0
 10 11  2  0
 10 12  1  0
 12 13  1  0
 13 14  1  6
 14 15  1  0
 15 16  2  0
 16 17  1  0
 17 18  2  0
 18 19  1  0
 19 20  2  0
 17 21  1  0
 21 22  1  0
 22 23  1  0
 23 24  1  0
 24 25  1  0
 25 26  1  0
 13 27  1  0
 27 28  1  1
 27 29  1  0
 29 30  1  0
 30 31  1  0
 31 32  1  0
 32 33  1  0
 33 34  2  0
 34 35  1  0
 35 36  1  0
 36 37  1  0
 37 38  1  0
 37 39  1  0
 35 40  1  0
  9  4  1  0
 20 15  1  0
 26  6  1  0
 40 32  2  0
M  END
$$$$
