
     RDKit          3D

 40 43  0  0  0  0  0  0  0  0999 V2000
  -19.4137  -37.2416  -13.5296 C   0  0  0  0  0  0  0  0  0  0  0  0
  -18.9172  -38.5129  -13.2528 O   0  0  0  0  0  0  0  0  0  0  0  0
  -19.9012  -39.4755  -13.2490 C   0  0  0  0  0  0  0  0  0  0  0  0
  -19.9608  -40.1617  -11.9408 C   0  0  0  0  0  0  0  0  0  0  0  0
  -21.1230  -40.6879  -11.4475 C   0  0  0  0  0  0  0  0  0  0  0  0
  -21.2004  -41.3514  -10.1924 C   0  0  0  0  0  0  0  0  0  0  0  0
  -20.0772  -41.4953   -9.4083 C   0  0  0  0  0  0  0  0  0  0  0  0
  -18.8892  -40.9710   -9.8785 C   0  0  0  0  0  0  0  0  0  0  0  0
  -18.8678  -40.3159  -11.1414 C   0  0  0  0  0  0  0  0  0  0  0  0
  -17.5445  -40.9088   -9.2932 C   0  0  0  0  0  0  0  0  0  0  0  0
  -16.5194  -41.1070  -10.0872 O   0  0  0  0  0  0  0  0  0  0  0  0
  -17.0781  -40.6644   -7.9826 N   0  0  0  0  0  0  0  0  0  0  0  0
  -17.8630  -39.9271   -6.9680 C   0  0  1  0  0  0  0  0  0  0  0  0
  -18.1696  -40.7735   -5.8110 C   0  0  0  0  0  0  0  0  0  0  0  0
  -19.5150  -40.8465   -5.1884 C   0  0  0  0  0  0  0  0  0  0  0  0
  -20.7545  -40.8076   -5.7376 C   0  0  0  0  0  0  0  0  0  0  0  0
  -21.8532  -40.9656   -4.8837 C   0  0  0  0  0  0  0  0  0  0  0  0
  -21.6721  -41.1499   -3.5178 C   0  0  0  0  0  0  0  0  0  0  0  0
  -20.4291  -41.1925   -2.9236 C   0  0  0  0  0  0  0  0  0  0  0  0
  -19.3826  -41.0393   -3.7827 C   0  0  0  0  0  0  0  0  0  0  0  0
  -23.2043  -40.9686   -5.2197 O   0  0  0  0  0  0  0  0  0  0  0  0
  -23.9889  -41.8097   -6.0356 C   0  0  0  0  0  0  0  0  0  0  0  0
  -23.2023  -42.8733   -6.7236 C   0  0  0  0  0  0  0  0  0  0  0  0
  -23.5950  -42.9139   -8.1832 C   0  0  0  0  0  0  0  0  0  0  0  0
  -23.4468  -41.5672   -8.8467 C   0  0  0  0  0  0  0  0  0  0  0  0
  -22.5692  -41.7275   -9.9789 N   0  0  0  0  0  0  0  0  0  0  0  0
  -17.0593  -38.6728   -6.6528 C   0  0  2  0  0  0  0  0  0  0  0  0
  -17.9334  -37.5621   -6.7050 O   0  0  0  0  0  0  0  0  0  0  0  0
  -15.9746  -38.3814   -7.6490 C   0  0  0  0  0  0  0  0  0  0  0  0
  -15.4620  -39.6459   -8.1338 N   0  0  0  0  0  0  0  0  0  0  0  0
  -15.9315  -40.0346   -9.4231 C   0  0  0  0  0  0  0  0  0  0  0  0
  -14.9343  -39.6244  -10.4745 C   0  0  0  0  0  0  0  0  0  0  0  0
  -14.8971  -39.9829  -11.8003 C   0  0  0  0  0  0  0  0  0  0  0  0
  -13.8266  -39.3758  -12.3480 N   0  0  0  0  0  0  0  0  0  0  0  0
  -13.1717  -38.6499  -11.4623 N   0  0  0  0  0  0  0  0  0  0  0  0
  -11.9703  -37.8567  -11.6901 C   0  0  0  0  0  0  0  0  0  0  0  0
  -12.3406  -36.5776  -12.4231 C   0  0  0  0  0  0  0  0  0  0  0  0
  -12.7499  -35.4961  -11.4567 C   0  0  0  0  0  0  0  0  0  0  0  0
  -11.1738  -36.0498  -13.2206 C   0  0  0  0  0  0  0  0  0  0  0  0
  -13.8465  -38.7932  -10.2935 C   0  0  0  0  0  0  0  0  0  0  0  0
  1  2  1  0
  2  3  1  0
  3  4  1  0
  4  5  2  0
  5  6  1  0
  6  7  2  0
  7  8  1  0
  8  9  2  0
  8 10  1  0
 10 11  2  0
 10 12  1  0
 12 13  1  0
 13 14  1  1
 14 15  1  0
 15 16  2  0
 16 17  1  0
 17 18  2  0
 18 19  1  0
 19 20  2  0
 17 21  1  0
 21 22  1  0
 22 23  1  0
 23 24  1  0
 24 25  1  0
 25 26  1  0
 13 27  1  0
 27 28  1  6
 27 29  1  0
 29 30  1  0
 30 31  1  0
 31 32  1  0
 32 33  1  0
 33 34  2  0
 34 35  1  0
 35 36  1  0
 36 37  1  0
 37 38  1  0
 37 39  1  0
 35 40  1  0
  9  4  1  0
 20 15  1  0
 26  6  1  0
 40 32  2  0
M  END
$$$$
