
     RDKit          3D

 40 43  0  0  0  0  0  0  0  0999 V2000
  -11.8515  -44.6016   -8.2943 C   0  0  0  0  0  0  0  0  0  0  0  0
  -11.1416  -43.6295   -8.9947 O   0  0  0  0  0  0  0  0  0  0  0  0
  -11.3163  -43.7259  -10.3567 C   0  0  0  0  0  0  0  0  0  0  0  0
  -12.1105  -42.5881  -10.8671 C   0  0  0  0  0  0  0  0  0  0  0  0
  -11.5544  -41.5944  -11.6249 C   0  0  0  0  0  0  0  0  0  0  0  0
  -12.3014  -40.4929  -12.1250 C   0  0  0  0  0  0  0  0  0  0  0  0
  -13.6488  -40.3854  -11.8603 C   0  0  0  0  0  0  0  0  0  0  0  0
  -14.2380  -41.3721  -11.0945 C   0  0  0  0  0  0  0  0  0  0  0  0
  -13.4437  -42.4525  -10.6186 C   0  0  0  0  0  0  0  0  0  0  0  0
  -15.6087  -41.5410  -10.5973 C   0  0  0  0  0  0  0  0  0  0  0  0
  -16.1202  -42.7487  -10.6050 O   0  0  0  0  0  0  0  0  0  0  0  0
  -16.5594  -40.6358  -10.0760 N   0  0  0  0  0  0  0  0  0  0  0  0
  -16.1926  -39.3409   -9.4614 C   0  0  1  0  0  0  0  0  0  0  0  0
  -16.7580  -38.2147  -10.2104 C   0  0  0  0  0  0  0  0  0  0  0  0
  -15.9803  -37.0025  -10.5697 C   0  0  0  0  0  0  0  0  0  0  0  0
  -14.6835  -36.8521  -10.9374 C   0  0  0  0  0  0  0  0  0  0  0  0
  -14.2465  -35.5671  -11.2822 C   0  0  0  0  0  0  0  0  0  0  0  0
  -15.1175  -34.4845  -11.2410 C   0  0  0  0  0  0  0  0  0  0  0  0
  -16.4403  -34.5978  -10.8704 C   0  0  0  0  0  0  0  0  0  0  0  0
  -16.8333  -35.8613  -10.5449 C   0  0  0  0  0  0  0  0  0  0  0  0
  -12.9748  -35.1777  -11.6940 O   0  0  0  0  0  0  0  0  0  0  0  0
  -12.1820  -35.5149  -12.8105 C   0  0  0  0  0  0  0  0  0  0  0  0
  -12.8066  -36.5391  -13.6961 C   0  0  0  0  0  0  0  0  0  0  0  0
  -11.7831  -37.6035  -14.0210 C   0  0  0  0  0  0  0  0  0  0  0  0
  -11.1806  -38.2076  -12.7769 C   0  0  0  0  0  0  0  0  0  0  0  0
  -11.3946  -39.6322  -12.8302 N   0  0  0  0  0  0  0  0  0  0  0  0
  -16.6337  -39.4325   -8.0068 C   0  0  2  0  0  0  0  0  0  0  0  0
  -15.6048  -38.8968   -7.1975 O   0  0  0  0  0  0  0  0  0  0  0  0
  -16.8387  -40.8388   -7.5228 C   0  0  0  0  0  0  0  0  0  0  0  0
  -17.7871  -41.4820   -8.4080 N   0  0  0  0  0  0  0  0  0  0  0  0
  -18.8386  -42.1910   -7.7558 C   0  0  0  0  0  0  0  0  0  0  0  0
  -20.1242  -41.4145   -7.8686 C   0  0  0  0  0  0  0  0  0  0  0  0
  -20.7674  -40.9911   -9.0064 C   0  0  0  0  0  0  0  0  0  0  0  0
  -21.8772  -40.3346   -8.6167 N   0  0  0  0  0  0  0  0  0  0  0  0
  -21.9912  -40.3072   -7.3027 N   0  0  0  0  0  0  0  0  0  0  0  0
  -23.0573  -39.6887   -6.5247 C   0  0  0  0  0  0  0  0  0  0  0  0
  -22.4867  -38.5392   -5.7100 C   0  0  0  0  0  0  0  0  0  0  0  0
  -23.5794  -37.7767   -5.0060 C   0  0  0  0  0  0  0  0  0  0  0  0
  -21.5354  -39.0411   -4.6521 C   0  0  0  0  0  0  0  0  0  0  0  0
  -20.9106  -40.9736   -6.8226 C   0  0  0  0  0  0  0  0  0  0  0  0
  1  2  1  0
  2  3  1  0
  3  4  1  0
  4  5  2  0
  5  6  1  0
  6  7  2  0
  7  8  1  0
  8  9  2  0
  8 10  1  0
 10 11  2  0
 10 12  1  0
 12 13  1  0
 13 14  1  6
 14 15  1  0
 15 16  2  0
 16 17  1  0
 17 18  2  0
 18 19  1  0
 19 20  2  0
 17 21  1  0
 21 22  1  0
 22 23  1  0
 23 24  1  0
 24 25  1  0
 25 26  1  0
 13 27  1  0
 27 28  1  1
 27 29  1  0
 29 30  1  0
 30 31  1  0
 31 32  1  0
 32 33  1  0
 33 34  2  0
 34 35  1  0
 35 36  1  0
 36 37  1  0
 37 38  1  0
 37 39  1  0
 35 40  1  0
  9  4  1  0
 20 15  1  0
 26  6  1  0
 40 32  2  0
M  END
$$$$
