
     RDKit          3D

 40 43  0  0  0  0  0  0  0  0999 V2000
  -16.4326  -47.5582  -11.0461 C   0  0  0  0  0  0  0  0  0  0  0  0
  -17.2151  -47.0473  -10.0134 O   0  0  0  0  0  0  0  0  0  0  0  0
  -18.0805  -46.0661  -10.4416 C   0  0  0  0  0  0  0  0  0  0  0  0
  -18.4530  -45.1699   -9.3263 C   0  0  0  0  0  0  0  0  0  0  0  0
  -19.5727  -45.3779   -8.5686 C   0  0  0  0  0  0  0  0  0  0  0  0
  -19.9473  -44.5280   -7.4923 C   0  0  0  0  0  0  0  0  0  0  0  0
  -19.1738  -43.4370   -7.1624 C   0  0  0  0  0  0  0  0  0  0  0  0
  -18.0385  -43.1991   -7.9119 C   0  0  0  0  0  0  0  0  0  0  0  0
  -17.7103  -44.0812   -8.9789 C   0  0  0  0  0  0  0  0  0  0  0  0
  -17.0372  -42.1270   -7.8626 C   0  0  0  0  0  0  0  0  0  0  0  0
  -15.7798  -42.4523   -8.0454 O   0  0  0  0  0  0  0  0  0  0  0  0
  -17.1319  -40.7336   -7.6520 N   0  0  0  0  0  0  0  0  0  0  0  0
  -18.3652  -39.9577   -7.9089 C   0  0  1  0  0  0  0  0  0  0  0  0
  -18.8741  -39.3409   -6.6803 C   0  0  0  0  0  0  0  0  0  0  0  0
  -20.3037  -39.3757   -6.2826 C   0  0  0  0  0  0  0  0  0  0  0  0
  -21.2440  -40.3434   -6.4209 C   0  0  0  0  0  0  0  0  0  0  0  0
  -22.5132  -40.1037   -5.8798 C   0  0  0  0  0  0  0  0  0  0  0  0
  -22.7950  -38.9084   -5.2286 C   0  0  0  0  0  0  0  0  0  0  0  0
  -21.8669  -37.9016   -5.0708 C   0  0  0  0  0  0  0  0  0  0  0  0
  -20.6422  -38.1684   -5.6053 C   0  0  0  0  0  0  0  0  0  0  0  0
  -23.6218  -40.9459   -5.8934 O   0  0  0  0  0  0  0  0  0  0  0  0
  -23.8644  -42.2227   -5.3461 C   0  0  0  0  0  0  0  0  0  0  0  0
  -22.6758  -42.8148   -4.6680 C   0  0  0  0  0  0  0  0  0  0  0  0
  -22.5047  -44.2451   -5.1276 C   0  0  0  0  0  0  0  0  0  0  0  0
  -22.4230  -44.3506   -6.6303 C   0  0  0  0  0  0  0  0  0  0  0  0
  -21.1874  -45.0162   -6.9591 N   0  0  0  0  0  0  0  0  0  0  0  0
  -18.0158  -38.9800   -9.0228 C   0  0  2  0  0  0  0  0  0  0  0  0
  -19.0558  -39.0101   -9.9808 O   0  0  0  0  0  0  0  0  0  0  0  0
  -16.7647  -39.3366   -9.7721 C   0  0  0  0  0  0  0  0  0  0  0  0
  -16.0278  -40.2983   -8.9790 N   0  0  0  0  0  0  0  0  0  0  0  0
  -14.6295  -40.0426   -8.8637 C   0  0  0  0  0  0  0  0  0  0  0  0
  -14.0793  -39.6044  -10.1954 C   0  0  0  0  0  0  0  0  0  0  0  0
  -13.7858  -40.3774  -11.2927 C   0  0  0  0  0  0  0  0  0  0  0  0
  -13.3171  -39.5520  -12.2485 N   0  0  0  0  0  0  0  0  0  0  0  0
  -13.2892  -38.2982  -11.8392 N   0  0  0  0  0  0  0  0  0  0  0  0
  -12.8449  -37.1350  -12.5967 C   0  0  0  0  0  0  0  0  0  0  0  0
  -11.3948  -36.8333  -12.2551 C   0  0  0  0  0  0  0  0  0  0  0  0
  -10.4584  -37.7446  -13.0059 C   0  0  0  0  0  0  0  0  0  0  0  0
  -11.0326  -35.4155  -12.6221 C   0  0  0  0  0  0  0  0  0  0  0  0
  -13.7595  -38.3132  -10.5661 C   0  0  0  0  0  0  0  0  0  0  0  0
  1  2  1  0
  2  3  1  0
  3  4  1  0
  4  5  2  0
  5  6  1  0
  6  7  2  0
  7  8  1  0
  8  9  2  0
  8 10  1  0
 10 11  2  0
 10 12  1  0
 12 13  1  0
 13 14  1  1
 14 15  1  0
 15 16  2  0
 16 17  1  0
 17 18  2  0
 18 19  1  0
 19 20  2  0
 17 21  1  0
 21 22  1  0
 22 23  1  0
 23 24  1  0
 24 25  1  0
 25 26  1  0
 13 27  1  0
 27 28  1  6
 27 29  1  0
 29 30  1  0
 30 31  1  0
 31 32  1  0
 32 33  1  0
 33 34  2  0
 34 35  1  0
 35 36  1  0
 36 37  1  0
 37 38  1  0
 37 39  1  0
 35 40  1  0
  9  4  1  0
 20 15  1  0
 26  6  1  0
 40 32  2  0
M  END
$$$$
