
     RDKit          3D

 40 43  0  0  0  0  0  0  0  0999 V2000
  -16.4139  -46.4283  -10.4978 C   0  0  0  0  0  0  0  0  0  0  0  0
  -16.2371  -45.5059  -11.5263 O   0  0  0  0  0  0  0  0  0  0  0  0
  -17.3204  -44.6705  -11.6791 C   0  0  0  0  0  0  0  0  0  0  0  0
  -17.7718  -44.1497  -10.3712 C   0  0  0  0  0  0  0  0  0  0  0  0
  -18.9598  -44.5274   -9.8083 C   0  0  0  0  0  0  0  0  0  0  0  0
  -19.4108  -44.0382   -8.5519 C   0  0  0  0  0  0  0  0  0  0  0  0
  -18.6457  -43.1448   -7.8351 C   0  0  0  0  0  0  0  0  0  0  0  0
  -17.4422  -42.7420   -8.3796 C   0  0  0  0  0  0  0  0  0  0  0  0
  -17.0389  -43.2623   -9.6410 C   0  0  0  0  0  0  0  0  0  0  0  0
  -16.4253  -41.7903   -7.9162 C   0  0  0  0  0  0  0  0  0  0  0  0
  -15.1642  -42.1048   -8.0927 O   0  0  0  0  0  0  0  0  0  0  0  0
  -16.5070  -40.5293   -7.2853 N   0  0  0  0  0  0  0  0  0  0  0  0
  -17.6940  -39.6513   -7.3807 C   0  0  1  0  0  0  0  0  0  0  0  0
  -18.2977  -39.4241   -6.0644 C   0  0  0  0  0  0  0  0  0  0  0  0
  -19.7579  -39.5097   -5.8117 C   0  0  0  0  0  0  0  0  0  0  0  0
  -20.7036  -40.3376   -6.3216 C   0  0  0  0  0  0  0  0  0  0  0  0
  -22.0108  -40.2156   -5.8342 C   0  0  0  0  0  0  0  0  0  0  0  0
  -22.3230  -39.2706   -4.8637 C   0  0  0  0  0  0  0  0  0  0  0  0
  -21.3903  -38.4112   -4.3241 C   0  0  0  0  0  0  0  0  0  0  0  0
  -20.1287  -38.5587   -4.8173 C   0  0  0  0  0  0  0  0  0  0  0  0
  -23.1325  -40.9548   -6.1998 O   0  0  0  0  0  0  0  0  0  0  0  0
  -23.4526  -42.3249   -6.1038 C   0  0  0  0  0  0  0  0  0  0  0  0
  -22.3439  -43.1578   -5.5555 C   0  0  0  0  0  0  0  0  0  0  0  0
  -22.1646  -44.3798   -6.4276 C   0  0  0  0  0  0  0  0  0  0  0  0
  -21.9496  -44.0150   -7.8756 C   0  0  0  0  0  0  0  0  0  0  0  0
  -20.7048  -44.6057   -8.2992 N   0  0  0  0  0  0  0  0  0  0  0  0
  -17.2231  -38.3936   -8.0984 C   0  0  2  0  0  0  0  0  0  0  0  0
  -18.3128  -37.8672   -8.8305 O   0  0  0  0  0  0  0  0  0  0  0  0
  -16.1395  -38.6412   -9.1076 C   0  0  0  0  0  0  0  0  0  0  0  0
  -14.8701  -38.6346   -8.4106 N   0  0  0  0  0  0  0  0  0  0  0  0
  -14.2553  -39.9127   -8.2615 C   0  0  0  0  0  0  0  0  0  0  0  0
  -14.1016  -40.5655   -9.6100 C   0  0  0  0  0  0  0  0  0  0  0  0
  -13.7917  -39.9765  -10.8120 C   0  0  0  0  0  0  0  0  0  0  0  0
  -13.7654  -40.9527  -11.7398 N   0  0  0  0  0  0  0  0  0  0  0  0
  -14.0381  -42.1318  -11.2146 N   0  0  0  0  0  0  0  0  0  0  0  0
  -14.1005  -43.4114  -11.9096 C   0  0  0  0  0  0  0  0  0  0  0  0
  -12.8477  -43.5909  -12.7516 C   0  0  0  0  0  0  0  0  0  0  0  0
  -11.7392  -42.6871  -12.2765 C   0  0  0  0  0  0  0  0  0  0  0  0
  -12.3370  -45.0083  -12.6726 C   0  0  0  0  0  0  0  0  0  0  0  0
  -14.2493  -41.9091   -9.8925 C   0  0  0  0  0  0  0  0  0  0  0  0
  1  2  1  0
  2  3  1  0
  3  4  1  0
  4  5  2  0
  5  6  1  0
  6  7  2  0
  7  8  1  0
  8  9  2  0
  8 10  1  0
 10 11  2  0
 10 12  1  0
 12 13  1  0
 13 14  1  1
 14 15  1  0
 15 16  2  0
 16 17  1  0
 17 18  2  0
 18 19  1  0
 19 20  2  0
 17 21  1  0
 21 22  1  0
 22 23  1  0
 23 24  1  0
 24 25  1  0
 25 26  1  0
 13 27  1  0
 27 28  1  6
 27 29  1  0
 29 30  1  0
 30 31  1  0
 31 32  1  0
 32 33  1  0
 33 34  2  0
 34 35  1  0
 35 36  1  0
 36 37  1  0
 37 38  1  0
 37 39  1  0
 35 40  1  0
  9  4  1  0
 20 15  1  0
 26  6  1  0
 40 32  2  0
M  END
$$$$
