
     RDKit          3D

 40 43  0  0  0  0  0  0  0  0999 V2000
  -13.2954  -46.4967   -9.1118 C   0  0  0  0  0  0  0  0  0  0  0  0
  -13.1320  -45.4627  -10.0304 O   0  0  0  0  0  0  0  0  0  0  0  0
  -12.7766  -44.2751   -9.4320 C   0  0  0  0  0  0  0  0  0  0  0  0
  -13.6002  -43.1600   -9.9458 C   0  0  0  0  0  0  0  0  0  0  0  0
  -13.2931  -42.5029  -11.1055 C   0  0  0  0  0  0  0  0  0  0  0  0
  -14.0726  -41.4290  -11.6158 C   0  0  0  0  0  0  0  0  0  0  0  0
  -15.1972  -41.0022  -10.9449 C   0  0  0  0  0  0  0  0  0  0  0  0
  -15.5309  -41.6443   -9.7686 C   0  0  0  0  0  0  0  0  0  0  0  0
  -14.7155  -42.7130   -9.3024 C   0  0  0  0  0  0  0  0  0  0  0  0
  -16.6119  -41.4205   -8.8012 C   0  0  0  0  0  0  0  0  0  0  0  0
  -17.1934  -42.4723   -8.2760 O   0  0  0  0  0  0  0  0  0  0  0  0
  -17.2012  -40.2504   -8.2734 N   0  0  0  0  0  0  0  0  0  0  0  0
  -16.5100  -38.9428   -8.2333 C   0  0  1  0  0  0  0  0  0  0  0  0
  -17.2168  -37.9400   -9.0356 C   0  0  0  0  0  0  0  0  0  0  0  0
  -16.5326  -37.0230   -9.9812 C   0  0  0  0  0  0  0  0  0  0  0  0
  -15.4710  -37.2192  -10.8023 C   0  0  0  0  0  0  0  0  0  0  0  0
  -15.0872  -36.1633  -11.6383 C   0  0  0  0  0  0  0  0  0  0  0  0
  -15.7730  -34.9543  -11.6180 C   0  0  0  0  0  0  0  0  0  0  0  0
  -16.8539  -34.7172  -10.7963 C   0  0  0  0  0  0  0  0  0  0  0  0
  -17.2028  -35.7656   -9.9990 C   0  0  0  0  0  0  0  0  0  0  0  0
  -14.0442  -36.1377  -12.5602 O   0  0  0  0  0  0  0  0  0  0  0  0
  -13.7787  -36.8786  -13.7304 C   0  0  0  0  0  0  0  0  0  0  0  0
  -14.7868  -37.9430  -14.0021 C   0  0  0  0  0  0  0  0  0  0  0  0
  -14.0692  -39.2320  -14.3335 C   0  0  0  0  0  0  0  0  0  0  0  0
  -13.0897  -39.6272  -13.2563 C   0  0  0  0  0  0  0  0  0  0  0  0
  -13.4353  -40.9540  -12.8111 N   0  0  0  0  0  0  0  0  0  0  0  0
  -16.3606  -38.5977   -6.7577 C   0  0  2  0  0  0  0  0  0  0  0  0
  -15.1528  -39.1660   -6.2901 O   0  0  0  0  0  0  0  0  0  0  0  0
  -17.4415  -39.1719   -5.8883 C   0  0  0  0  0  0  0  0  0  0  0  0
  -18.1072  -40.2184   -6.6357 N   0  0  0  0  0  0  0  0  0  0  0  0
  -19.1616  -40.8810   -5.9408 C   0  0  0  0  0  0  0  0  0  0  0  0
  -20.4725  -40.6218   -6.6354 C   0  0  0  0  0  0  0  0  0  0  0  0
  -21.5432  -41.4707   -6.7801 C   0  0  0  0  0  0  0  0  0  0  0  0
  -22.4883  -40.8066   -7.4730 N   0  0  0  0  0  0  0  0  0  0  0  0
  -22.0970  -39.5858   -7.7843 N   0  0  0  0  0  0  0  0  0  0  0  0
  -22.8502  -38.5828   -8.5265 C   0  0  0  0  0  0  0  0  0  0  0  0
  -23.4817  -39.2276   -9.7496 C   0  0  0  0  0  0  0  0  0  0  0  0
  -24.3723  -38.2548  -10.4785 C   0  0  0  0  0  0  0  0  0  0  0  0
  -22.4286  -39.6911  -10.7255 C   0  0  0  0  0  0  0  0  0  0  0  0
  -20.8472  -39.4548   -7.2715 C   0  0  0  0  0  0  0  0  0  0  0  0
  1  2  1  0
  2  3  1  0
  3  4  1  0
  4  5  2  0
  5  6  1  0
  6  7  2  0
  7  8  1  0
  8  9  2  0
  8 10  1  0
 10 11  2  0
 10 12  1  0
 12 13  1  0
 13 14  1  6
 14 15  1  0
 15 16  2  0
 16 17  1  0
 17 18  2  0
 18 19  1  0
 19 20  2  0
 17 21  1  0
 21 22  1  0
 22 23  1  0
 23 24  1  0
 24 25  1  0
 25 26  1  0
 13 27  1  0
 27 28  1  1
 27 29  1  0
 29 30  1  0
 30 31  1  0
 31 32  1  0
 32 33  1  0
 33 34  2  0
 34 35  1  0
 35 36  1  0
 36 37  1  0
 37 38  1  0
 37 39  1  0
 35 40  1  0
  9  4  1  0
 20 15  1  0
 26  6  1  0
 40 32  2  0
M  END
$$$$
