
     RDKit          3D

 40 43  0  0  0  0  0  0  0  0999 V2000
  -15.4524  -46.7070  -11.1668 C   0  0  0  0  0  0  0  0  0  0  0  0
  -16.8020  -46.3668  -11.2151 O   0  0  0  0  0  0  0  0  0  0  0  0
  -17.0008  -45.0194  -11.4146 C   0  0  0  0  0  0  0  0  0  0  0  0
  -17.6385  -44.4010  -10.2327 C   0  0  0  0  0  0  0  0  0  0  0  0
  -18.9677  -44.5639   -9.9546 C   0  0  0  0  0  0  0  0  0  0  0  0
  -19.5988  -43.9780   -8.8233 C   0  0  0  0  0  0  0  0  0  0  0  0
  -18.8745  -43.2072   -7.9410 C   0  0  0  0  0  0  0  0  0  0  0  0
  -17.5303  -43.0217   -8.1975 C   0  0  0  0  0  0  0  0  0  0  0  0
  -16.9490  -43.6305   -9.3447 C   0  0  0  0  0  0  0  0  0  0  0  0
  -16.4980  -42.2409   -7.5051 C   0  0  0  0  0  0  0  0  0  0  0  0
  -15.2996  -42.7637   -7.4005 O   0  0  0  0  0  0  0  0  0  0  0  0
  -16.5069  -40.9696   -6.8899 N   0  0  0  0  0  0  0  0  0  0  0  0
  -17.4799  -39.9097   -7.2348 C   0  0  1  0  0  0  0  0  0  0  0  0
  -18.3147  -39.5555   -6.0831 C   0  0  0  0  0  0  0  0  0  0  0  0
  -19.7879  -39.3925   -6.1637 C   0  0  0  0  0  0  0  0  0  0  0  0
  -20.7207  -40.0640   -6.8836 C   0  0  0  0  0  0  0  0  0  0  0  0
  -22.0645  -39.7162   -6.6983 C   0  0  0  0  0  0  0  0  0  0  0  0
  -22.4230  -38.7105   -5.8081 C   0  0  0  0  0  0  0  0  0  0  0  0
  -21.5039  -38.0050   -5.0616 C   0  0  0  0  0  0  0  0  0  0  0  0
  -20.2068  -38.3706   -5.2632 C   0  0  0  0  0  0  0  0  0  0  0  0
  -23.1839  -40.2680   -7.3155 O   0  0  0  0  0  0  0  0  0  0  0  0
  -23.7408  -41.5636   -7.3133 C   0  0  0  0  0  0  0  0  0  0  0  0
  -22.9362  -42.5555   -6.5439 C   0  0  0  0  0  0  0  0  0  0  0  0
  -22.7733  -43.8102   -7.3718 C   0  0  0  0  0  0  0  0  0  0  0  0
  -22.1843  -43.5195   -8.7299 C   0  0  0  0  0  0  0  0  0  0  0  0
  -20.9926  -44.3176   -8.8739 N   0  0  0  0  0  0  0  0  0  0  0  0
  -16.6587  -38.7642   -7.8110 C   0  0  2  0  0  0  0  0  0  0  0  0
  -17.5247  -37.9286   -8.5542 O   0  0  0  0  0  0  0  0  0  0  0  0
  -15.5957  -39.2052   -8.7751 C   0  0  0  0  0  0  0  0  0  0  0  0
  -14.8537  -40.2851   -8.1586 N   0  0  0  0  0  0  0  0  0  0  0  0
  -13.4731  -40.3483   -8.5102 C   0  0  0  0  0  0  0  0  0  0  0  0
  -13.2643  -39.7367   -9.8705 C   0  0  0  0  0  0  0  0  0  0  0  0
  -12.3998  -40.1357  -10.8611 C   0  0  0  0  0  0  0  0  0  0  0  0
  -12.5607  -39.2887  -11.8961 N   0  0  0  0  0  0  0  0  0  0  0  0
  -13.4718  -38.3703  -11.6375 N   0  0  0  0  0  0  0  0  0  0  0  0
  -13.9094  -37.2930  -12.5162 C   0  0  0  0  0  0  0  0  0  0  0  0
  -12.9533  -36.1180  -12.3899 C   0  0  0  0  0  0  0  0  0  0  0  0
  -12.1083  -35.9689  -13.6288 C   0  0  0  0  0  0  0  0  0  0  0  0
  -13.7040  -34.8233  -12.1993 C   0  0  0  0  0  0  0  0  0  0  0  0
  -13.9189  -38.6343  -10.3834 C   0  0  0  0  0  0  0  0  0  0  0  0
  1  2  1  0
  2  3  1  0
  3  4  1  0
  4  5  2  0
  5  6  1  0
  6  7  2  0
  7  8  1  0
  8  9  2  0
  8 10  1  0
 10 11  2  0
 10 12  1  0
 12 13  1  0
 13 14  1  1
 14 15  1  0
 15 16  2  0
 16 17  1  0
 17 18  2  0
 18 19  1  0
 19 20  2  0
 17 21  1  0
 21 22  1  0
 22 23  1  0
 23 24  1  0
 24 25  1  0
 25 26  1  0
 13 27  1  0
 27 28  1  6
 27 29  1  0
 29 30  1  0
 30 31  1  0
 31 32  1  0
 32 33  1  0
 33 34  2  0
 34 35  1  0
 35 36  1  0
 36 37  1  0
 37 38  1  0
 37 39  1  0
 35 40  1  0
  9  4  1  0
 20 15  1  0
 26  6  1  0
 40 32  2  0
M  END
$$$$
