
     RDKit          3D

 40 43  0  0  0  0  0  0  0  0999 V2000
  -18.2491  -46.9502   -9.2150 C   0  0  0  0  0  0  0  0  0  0  0  0
  -17.8027  -45.6310   -9.2029 O   0  0  0  0  0  0  0  0  0  0  0  0
  -16.4293  -45.5376   -9.2122 C   0  0  0  0  0  0  0  0  0  0  0  0
  -15.9911  -44.2961   -9.8849 C   0  0  0  0  0  0  0  0  0  0  0  0
  -14.7629  -44.1837  -10.4763 C   0  0  0  0  0  0  0  0  0  0  0  0
  -14.3236  -42.9989  -11.1281 C   0  0  0  0  0  0  0  0  0  0  0  0
  -15.1422  -41.8930  -11.1924 C   0  0  0  0  0  0  0  0  0  0  0  0
  -16.3875  -41.9752  -10.6010 C   0  0  0  0  0  0  0  0  0  0  0  0
  -16.7767  -43.1850   -9.9612 C   0  0  0  0  0  0  0  0  0  0  0  0
  -17.4677  -40.9933  -10.4482 C   0  0  0  0  0  0  0  0  0  0  0  0
  -18.7026  -41.4116  -10.5918 O   0  0  0  0  0  0  0  0  0  0  0  0
  -17.4750  -39.6108  -10.1594 N   0  0  0  0  0  0  0  0  0  0  0  0
  -16.3667  -38.9237   -9.4602 C   0  0  1  0  0  0  0  0  0  0  0  0
  -15.7524  -37.8993  -10.3099 C   0  0  0  0  0  0  0  0  0  0  0  0
  -14.2845  -37.7371  -10.4589 C   0  0  0  0  0  0  0  0  0  0  0  0
  -13.2864  -38.6544  -10.5038 C   0  0  0  0  0  0  0  0  0  0  0  0
  -11.9824  -38.1917  -10.7194 C   0  0  0  0  0  0  0  0  0  0  0  0
  -11.7257  -36.8345  -10.8756 C   0  0  0  0  0  0  0  0  0  0  0  0
  -12.7127  -35.8733  -10.8337 C   0  0  0  0  0  0  0  0  0  0  0  0
  -13.9694  -36.3574  -10.6260 C   0  0  0  0  0  0  0  0  0  0  0  0
  -10.8128  -38.9414  -10.8106 O   0  0  0  0  0  0  0  0  0  0  0  0
  -10.3789  -39.9384  -11.7086 C   0  0  0  0  0  0  0  0  0  0  0  0
  -11.4018  -40.3054  -12.7295 C   0  0  0  0  0  0  0  0  0  0  0  0
  -11.5010  -41.8119  -12.8122 C   0  0  0  0  0  0  0  0  0  0  0  0
  -11.7798  -42.4352  -11.4669 C   0  0  0  0  0  0  0  0  0  0  0  0
  -12.9816  -43.2222  -11.5860 N   0  0  0  0  0  0  0  0  0  0  0  0
  -16.9566  -38.4078   -8.1545 C   0  0  2  0  0  0  0  0  0  0  0  0
  -16.3660  -39.1249   -7.0880 O   0  0  0  0  0  0  0  0  0  0  0  0
  -18.4350  -38.6350   -8.0254 C   0  0  0  0  0  0  0  0  0  0  0  0
  -19.0575  -38.2447   -9.2733 N   0  0  0  0  0  0  0  0  0  0  0  0
  -20.2915  -38.8977   -9.5638 C   0  0  0  0  0  0  0  0  0  0  0  0
  -21.0919  -39.0626   -8.2988 C   0  0  0  0  0  0  0  0  0  0  0  0
  -22.2766  -38.4580   -7.9545 C   0  0  0  0  0  0  0  0  0  0  0  0
  -22.6139  -38.9088   -6.7308 N   0  0  0  0  0  0  0  0  0  0  0  0
  -21.7245  -39.7640   -6.2640 N   0  0  0  0  0  0  0  0  0  0  0  0
  -21.7556  -40.4529   -4.9800 C   0  0  0  0  0  0  0  0  0  0  0  0
  -22.8198  -41.5379   -5.0144 C   0  0  0  0  0  0  0  0  0  0  0  0
  -22.1984  -42.9103   -4.9790 C   0  0  0  0  0  0  0  0  0  0  0  0
  -23.7437  -41.4320   -3.8265 C   0  0  0  0  0  0  0  0  0  0  0  0
  -20.7726  -39.8708   -7.2256 C   0  0  0  0  0  0  0  0  0  0  0  0
  1  2  1  0
  2  3  1  0
  3  4  1  0
  4  5  2  0
  5  6  1  0
  6  7  2  0
  7  8  1  0
  8  9  2  0
  8 10  1  0
 10 11  2  0
 10 12  1  0
 12 13  1  0
 13 14  1  6
 14 15  1  0
 15 16  2  0
 16 17  1  0
 17 18  2  0
 18 19  1  0
 19 20  2  0
 17 21  1  0
 21 22  1  0
 22 23  1  0
 23 24  1  0
 24 25  1  0
 25 26  1  0
 13 27  1  0
 27 28  1  1
 27 29  1  0
 29 30  1  0
 30 31  1  0
 31 32  1  0
 32 33  1  0
 33 34  2  0
 34 35  1  0
 35 36  1  0
 36 37  1  0
 37 38  1  0
 37 39  1  0
 35 40  1  0
  9  4  1  0
 20 15  1  0
 26  6  1  0
 40 32  2  0
M  END
$$$$
