
     RDKit          3D

 40 43  0  0  0  0  0  0  0  0999 V2000
  -21.4733  -40.9779  -13.4362 C   0  0  0  0  0  0  0  0  0  0  0  0
  -21.9894  -42.1643  -12.9207 O   0  0  0  0  0  0  0  0  0  0  0  0
  -21.0048  -43.0502  -12.5457 C   0  0  0  0  0  0  0  0  0  0  0  0
  -20.6894  -42.9086  -11.1082 C   0  0  0  0  0  0  0  0  0  0  0  0
  -21.4701  -43.4668  -10.1336 C   0  0  0  0  0  0  0  0  0  0  0  0
  -21.1831  -43.3421   -8.7467 C   0  0  0  0  0  0  0  0  0  0  0  0
  -20.0772  -42.6389   -8.3230 C   0  0  0  0  0  0  0  0  0  0  0  0
  -19.2715  -42.0608   -9.2841 C   0  0  0  0  0  0  0  0  0  0  0  0
  -19.6051  -42.2159  -10.6586 C   0  0  0  0  0  0  0  0  0  0  0  0
  -18.0691  -41.2250   -9.1831 C   0  0  0  0  0  0  0  0  0  0  0  0
  -17.1026  -41.4328  -10.0453 O   0  0  0  0  0  0  0  0  0  0  0  0
  -17.6980  -40.1778   -8.3110 N   0  0  0  0  0  0  0  0  0  0  0  0
  -18.6794  -39.3525   -7.5729 C   0  0  1  0  0  0  0  0  0  0  0  0
  -18.5205  -39.5021   -6.1234 C   0  0  0  0  0  0  0  0  0  0  0  0
  -19.6607  -39.7079   -5.1955 C   0  0  0  0  0  0  0  0  0  0  0  0
  -20.8125  -40.4093   -5.3406 C   0  0  0  0  0  0  0  0  0  0  0  0
  -21.6831  -40.4704   -4.2455 C   0  0  0  0  0  0  0  0  0  0  0  0
  -21.3733  -39.8259   -3.0534 C   0  0  0  0  0  0  0  0  0  0  0  0
  -20.2146  -39.1024   -2.8693 C   0  0  0  0  0  0  0  0  0  0  0  0
  -19.3888  -39.0662   -3.9526 C   0  0  0  0  0  0  0  0  0  0  0  0
  -22.9057  -41.1311   -4.1603 O   0  0  0  0  0  0  0  0  0  0  0  0
  -23.2715  -42.4898   -4.2548 C   0  0  0  0  0  0  0  0  0  0  0  0
  -22.1275  -43.3933   -4.5679 C   0  0  0  0  0  0  0  0  0  0  0  0
  -22.5306  -44.3360   -5.6792 C   0  0  0  0  0  0  0  0  0  0  0  0
  -23.0302  -43.5961   -6.8953 C   0  0  0  0  0  0  0  0  0  0  0  0
  -22.2288  -44.0061   -8.0212 N   0  0  0  0  0  0  0  0  0  0  0  0
  -18.5048  -37.9332   -8.0963 C   0  0  2  0  0  0  0  0  0  0  0  0
  -19.6774  -37.2024   -7.7940 O   0  0  0  0  0  0  0  0  0  0  0  0
  -18.3501  -37.8516   -9.5874 C   0  0  0  0  0  0  0  0  0  0  0  0
  -16.9928  -38.2336   -9.9172 N   0  0  0  0  0  0  0  0  0  0  0  0
  -15.9757  -37.4717   -9.2701 C   0  0  0  0  0  0  0  0  0  0  0  0
  -14.6815  -38.2417   -9.2729 C   0  0  0  0  0  0  0  0  0  0  0  0
  -13.3993  -37.7545   -9.1918 C   0  0  0  0  0  0  0  0  0  0  0  0
  -12.5669  -38.8127   -9.2330 N   0  0  0  0  0  0  0  0  0  0  0  0
  -13.2283  -39.9496   -9.3353 N   0  0  0  0  0  0  0  0  0  0  0  0
  -12.6651  -41.2920   -9.4064 C   0  0  0  0  0  0  0  0  0  0  0  0
  -11.7124  -41.3784  -10.5877 C   0  0  0  0  0  0  0  0  0  0  0  0
  -10.2764  -41.3412  -10.1321 C   0  0  0  0  0  0  0  0  0  0  0  0
  -11.9082  -42.6641  -11.3523 C   0  0  0  0  0  0  0  0  0  0  0  0
  -14.5429  -39.6128   -9.3613 C   0  0  0  0  0  0  0  0  0  0  0  0
  1  2  1  0
  2  3  1  0
  3  4  1  0
  4  5  2  0
  5  6  1  0
  6  7  2  0
  7  8  1  0
  8  9  2  0
  8 10  1  0
 10 11  2  0
 10 12  1  0
 12 13  1  0
 13 14  1  1
 14 15  1  0
 15 16  2  0
 16 17  1  0
 17 18  2  0
 18 19  1  0
 19 20  2  0
 17 21  1  0
 21 22  1  0
 22 23  1  0
 23 24  1  0
 24 25  1  0
 25 26  1  0
 13 27  1  0
 27 28  1  6
 27 29  1  0
 29 30  1  0
 30 31  1  0
 31 32  1  0
 32 33  1  0
 33 34  2  0
 34 35  1  0
 35 36  1  0
 36 37  1  0
 37 38  1  0
 37 39  1  0
 35 40  1  0
  9  4  1  0
 20 15  1  0
 26  6  1  0
 40 32  2  0
M  END
$$$$
