
     RDKit          3D

 40 43  0  0  0  0  0  0  0  0999 V2000
  -24.6626  -43.4502  -12.5393 C   0  0  0  0  0  0  0  0  0  0  0  0
  -24.0717  -43.2402  -11.2958 O   0  0  0  0  0  0  0  0  0  0  0  0
  -22.6991  -43.1656  -11.3685 C   0  0  0  0  0  0  0  0  0  0  0  0
  -22.2209  -41.8353  -10.9354 C   0  0  0  0  0  0  0  0  0  0  0  0
  -21.7355  -40.9129  -11.8210 C   0  0  0  0  0  0  0  0  0  0  0  0
  -21.2716  -39.6289  -11.4241 C   0  0  0  0  0  0  0  0  0  0  0  0
  -21.2981  -39.2560  -10.0984 C   0  0  0  0  0  0  0  0  0  0  0  0
  -21.7798  -40.1680   -9.1799 C   0  0  0  0  0  0  0  0  0  0  0  0
  -22.2310  -41.4397   -9.6312 C   0  0  0  0  0  0  0  0  0  0  0  0
  -21.9037  -40.1161   -7.7183 C   0  0  0  0  0  0  0  0  0  0  0  0
  -22.9810  -40.6304   -7.1747 O   0  0  0  0  0  0  0  0  0  0  0  0
  -21.0668  -39.6063   -6.7011 N   0  0  0  0  0  0  0  0  0  0  0  0
  -19.6082  -39.4235   -6.8684 C   0  0  1  0  0  0  0  0  0  0  0  0
  -19.2283  -38.0134   -6.7409 C   0  0  0  0  0  0  0  0  0  0  0  0
  -18.3010  -37.3313   -7.6780 C   0  0  0  0  0  0  0  0  0  0  0  0
  -18.1339  -37.4597   -9.0178 C   0  0  0  0  0  0  0  0  0  0  0  0
  -17.2058  -36.6188   -9.6445 C   0  0  0  0  0  0  0  0  0  0  0  0
  -16.4787  -35.6891   -8.9101 C   0  0  0  0  0  0  0  0  0  0  0  0
  -16.6194  -35.5314   -7.5480 C   0  0  0  0  0  0  0  0  0  0  0  0
  -17.5323  -36.3620   -6.9707 C   0  0  0  0  0  0  0  0  0  0  0  0
  -16.8757  -36.5657  -10.9960 O   0  0  0  0  0  0  0  0  0  0  0  0
  -17.6178  -36.2552  -12.1542 C   0  0  0  0  0  0  0  0  0  0  0  0
  -19.0596  -35.9884  -11.8831 C   0  0  0  0  0  0  0  0  0  0  0  0
  -19.9011  -36.7600  -12.8744 C   0  0  0  0  0  0  0  0  0  0  0  0
  -19.5761  -38.2332  -12.8667 C   0  0  0  0  0  0  0  0  0  0  0  0
  -20.7959  -38.9525  -12.5974 N   0  0  0  0  0  0  0  0  0  0  0  0
  -18.9546  -40.3596   -5.8608 C   0  0  2  0  0  0  0  0  0  0  0  0
  -17.8100  -40.9306   -6.4645 O   0  0  0  0  0  0  0  0  0  0  0  0
  -19.8207  -41.5181   -5.4590 C   0  0  0  0  0  0  0  0  0  0  0  0
  -20.5720  -41.1278   -4.2841 N   0  0  0  0  0  0  0  0  0  0  0  0
  -21.9794  -41.3424   -4.3672 C   0  0  0  0  0  0  0  0  0  0  0  0
  -22.2651  -42.5071   -5.2782 C   0  0  0  0  0  0  0  0  0  0  0  0
  -23.1165  -42.5581   -6.3554 C   0  0  0  0  0  0  0  0  0  0  0  0
  -23.0455  -43.8044   -6.8616 N   0  0  0  0  0  0  0  0  0  0  0  0
  -22.2046  -44.5597   -6.1813 N   0  0  0  0  0  0  0  0  0  0  0  0
  -21.8727  -45.9560   -6.4354 C   0  0  0  0  0  0  0  0  0  0  0  0
  -20.3791  -46.0825   -6.6879 C   0  0  0  0  0  0  0  0  0  0  0  0
  -19.6433  -46.4493   -5.4249 C   0  0  0  0  0  0  0  0  0  0  0  0
  -20.0881  -47.1572   -7.7059 C   0  0  0  0  0  0  0  0  0  0  0  0
  -21.7111  -43.7693   -5.1945 C   0  0  0  0  0  0  0  0  0  0  0  0
  1  2  1  0
  2  3  1  0
  3  4  1  0
  4  5  2  0
  5  6  1  0
  6  7  2  0
  7  8  1  0
  8  9  2  0
  8 10  1  0
 10 11  2  0
 10 12  1  0
 12 13  1  0
 13 14  1  1
 14 15  1  0
 15 16  2  0
 16 17  1  0
 17 18  2  0
 18 19  1  0
 19 20  2  0
 17 21  1  0
 21 22  1  0
 22 23  1  0
 23 24  1  0
 24 25  1  0
 25 26  1  0
 13 27  1  0
 27 28  1  6
 27 29  1  0
 29 30  1  0
 30 31  1  0
 31 32  1  0
 32 33  1  0
 33 34  2  0
 34 35  1  0
 35 36  1  0
 36 37  1  0
 37 38  1  0
 37 39  1  0
 35 40  1  0
  9  4  1  0
 20 15  1  0
 26  6  1  0
 40 32  2  0
M  END
$$$$
