
     RDKit          3D

 40 43  0  0  0  0  0  0  0  0999 V2000
  -16.7295  -48.0056   -8.2159 C   0  0  0  0  0  0  0  0  0  0  0  0
  -17.8210  -47.7230   -9.0335 O   0  0  0  0  0  0  0  0  0  0  0  0
  -17.7420  -46.4745   -9.6079 C   0  0  0  0  0  0  0  0  0  0  0  0
  -18.3806  -45.4573   -8.7457 C   0  0  0  0  0  0  0  0  0  0  0  0
  -19.7365  -45.3934   -8.5778 C   0  0  0  0  0  0  0  0  0  0  0  0
  -20.3690  -44.4234   -7.7529 C   0  0  0  0  0  0  0  0  0  0  0  0
  -19.6190  -43.4900   -7.0721 C   0  0  0  0  0  0  0  0  0  0  0  0
  -18.2469  -43.5273   -7.2247 C   0  0  0  0  0  0  0  0  0  0  0  0
  -17.6655  -44.5191   -8.0631 C   0  0  0  0  0  0  0  0  0  0  0  0
  -17.1771  -42.6743   -6.6932 C   0  0  0  0  0  0  0  0  0  0  0  0
  -16.0658  -43.2531   -6.3053 O   0  0  0  0  0  0  0  0  0  0  0  0
  -17.0691  -41.2798   -6.4967 N   0  0  0  0  0  0  0  0  0  0  0  0
  -17.8716  -40.2913   -7.2502 C   0  0  1  0  0  0  0  0  0  0  0  0
  -18.7365  -39.5136   -6.3579 C   0  0  0  0  0  0  0  0  0  0  0  0
  -20.1671  -39.2401   -6.6441 C   0  0  0  0  0  0  0  0  0  0  0  0
  -21.1227  -40.0083   -7.2239 C   0  0  0  0  0  0  0  0  0  0  0  0
  -22.4213  -39.4897   -7.3002 C   0  0  0  0  0  0  0  0  0  0  0  0
  -22.7130  -38.2255   -6.8011 C   0  0  0  0  0  0  0  0  0  0  0  0
  -21.7687  -37.4155   -6.2078 C   0  0  0  0  0  0  0  0  0  0  0  0
  -20.5174  -37.9515   -6.1466 C   0  0  0  0  0  0  0  0  0  0  0  0
  -23.5536  -40.0943   -7.8395 O   0  0  0  0  0  0  0  0  0  0  0  0
  -24.2694  -41.2626   -7.5056 C   0  0  0  0  0  0  0  0  0  0  0  0
  -23.6559  -42.0374   -6.3891 C   0  0  0  0  0  0  0  0  0  0  0  0
  -23.5939  -43.4980   -6.7752 C   0  0  0  0  0  0  0  0  0  0  0  0
  -22.8750  -43.7069   -8.0850 C   0  0  0  0  0  0  0  0  0  0  0  0
  -21.7871  -44.6230   -7.8497 N   0  0  0  0  0  0  0  0  0  0  0  0
  -16.8715  -39.4706   -8.0532 C   0  0  2  0  0  0  0  0  0  0  0  0
  -17.4404  -39.1931   -9.3180 O   0  0  0  0  0  0  0  0  0  0  0  0
  -15.5853  -40.1910   -8.3372 C   0  0  0  0  0  0  0  0  0  0  0  0
  -14.5448  -39.1980   -8.5052 N   0  0  0  0  0  0  0  0  0  0  0  0
  -13.6442  -39.4419   -9.5837 C   0  0  0  0  0  0  0  0  0  0  0  0
  -13.4000  -38.1648  -10.3435 C   0  0  0  0  0  0  0  0  0  0  0  0
  -12.7884  -37.0153   -9.9048 C   0  0  0  0  0  0  0  0  0  0  0  0
  -12.7994  -36.1412  -10.9296 N   0  0  0  0  0  0  0  0  0  0  0  0
  -13.3778  -36.6518  -11.9997 N   0  0  0  0  0  0  0  0  0  0  0  0
  -13.5717  -36.0020  -13.2898 C   0  0  0  0  0  0  0  0  0  0  0  0
  -12.2260  -35.8268  -13.9746 C   0  0  0  0  0  0  0  0  0  0  0  0
  -12.3941  -35.3057  -15.3786 C   0  0  0  0  0  0  0  0  0  0  0  0
  -11.3603  -34.8408  -13.2299 C   0  0  0  0  0  0  0  0  0  0  0  0
  -13.7566  -37.9082  -11.6527 C   0  0  0  0  0  0  0  0  0  0  0  0
  1  2  1  0
  2  3  1  0
  3  4  1  0
  4  5  2  0
  5  6  1  0
  6  7  2  0
  7  8  1  0
  8  9  2  0
  8 10  1  0
 10 11  2  0
 10 12  1  0
 12 13  1  0
 13 14  1  1
 14 15  1  0
 15 16  2  0
 16 17  1  0
 17 18  2  0
 18 19  1  0
 19 20  2  0
 17 21  1  0
 21 22  1  0
 22 23  1  0
 23 24  1  0
 24 25  1  0
 25 26  1  0
 13 27  1  0
 27 28  1  6
 27 29  1  0
 29 30  1  0
 30 31  1  0
 31 32  1  0
 32 33  1  0
 33 34  2  0
 34 35  1  0
 35 36  1  0
 36 37  1  0
 37 38  1  0
 37 39  1  0
 35 40  1  0
  9  4  1  0
 20 15  1  0
 26  6  1  0
 40 32  2  0
M  END
$$$$
