
     RDKit          3D

 40 43  0  0  0  0  0  0  0  0999 V2000
  -16.3288  -47.8078   -9.4995 C   0  0  0  0  0  0  0  0  0  0  0  0
  -17.6760  -47.4758   -9.3792 O   0  0  0  0  0  0  0  0  0  0  0  0
  -17.9623  -46.2326   -9.8961 C   0  0  0  0  0  0  0  0  0  0  0  0
  -18.4347  -45.3177   -8.8351 C   0  0  0  0  0  0  0  0  0  0  0  0
  -19.5806  -45.5549   -8.1269 C   0  0  0  0  0  0  0  0  0  0  0  0
  -20.0507  -44.6877   -7.1031 C   0  0  0  0  0  0  0  0  0  0  0  0
  -19.3489  -43.5485   -6.7762 C   0  0  0  0  0  0  0  0  0  0  0  0
  -18.1892  -43.2804   -7.4766 C   0  0  0  0  0  0  0  0  0  0  0  0
  -17.7642  -44.1817   -8.4922 C   0  0  0  0  0  0  0  0  0  0  0  0
  -17.2447  -42.1584   -7.4177 C   0  0  0  0  0  0  0  0  0  0  0  0
  -15.9653  -42.4265   -7.5254 O   0  0  0  0  0  0  0  0  0  0  0  0
  -17.4173  -40.7650   -7.2645 N   0  0  0  0  0  0  0  0  0  0  0  0
  -18.6717  -40.0613   -7.6113 C   0  0  1  0  0  0  0  0  0  0  0  0
  -19.2724  -39.4282   -6.4336 C   0  0  0  0  0  0  0  0  0  0  0  0
  -20.7173  -39.5206   -6.1065 C   0  0  0  0  0  0  0  0  0  0  0  0
  -21.6014  -40.5384   -6.2551 C   0  0  0  0  0  0  0  0  0  0  0  0
  -22.9069  -40.3439   -5.7872 C   0  0  0  0  0  0  0  0  0  0  0  0
  -23.2792  -39.1421   -5.1961 C   0  0  0  0  0  0  0  0  0  0  0  0
  -22.4101  -38.0852   -5.0301 C   0  0  0  0  0  0  0  0  0  0  0  0
  -21.1481  -38.3089   -5.4926 C   0  0  0  0  0  0  0  0  0  0  0  0
  -23.9714  -41.2404   -5.8244 O   0  0  0  0  0  0  0  0  0  0  0  0
  -24.1800  -42.5079   -5.2424 C   0  0  0  0  0  0  0  0  0  0  0  0
  -23.0008  -43.0157   -4.4843 C   0  0  0  0  0  0  0  0  0  0  0  0
  -22.7374  -44.4508   -4.8809 C   0  0  0  0  0  0  0  0  0  0  0  0
  -22.5733  -44.6045   -6.3727 C   0  0  0  0  0  0  0  0  0  0  0  0
  -21.2917  -45.2185   -6.6144 N   0  0  0  0  0  0  0  0  0  0  0  0
  -18.3128  -39.1069   -8.7423 C   0  0  2  0  0  0  0  0  0  0  0  0
  -19.5138  -38.6379   -9.3238 O   0  0  0  0  0  0  0  0  0  0  0  0
  -17.5468  -39.7525   -9.8605 C   0  0  0  0  0  0  0  0  0  0  0  0
  -16.1562  -39.8282   -9.4639 N   0  0  0  0  0  0  0  0  0  0  0  0
  -15.2711  -40.3421  -10.4569 C   0  0  0  0  0  0  0  0  0  0  0  0
  -14.5969  -39.2044  -11.1777 C   0  0  0  0  0  0  0  0  0  0  0  0
  -15.1779  -38.1789  -11.8838 C   0  0  0  0  0  0  0  0  0  0  0  0
  -14.1818  -37.4025  -12.3522 N   0  0  0  0  0  0  0  0  0  0  0  0
  -12.9974  -37.8604  -11.9946 N   0  0  0  0  0  0  0  0  0  0  0  0
  -11.6976  -37.2850  -12.3166 C   0  0  0  0  0  0  0  0  0  0  0  0
  -11.5197  -35.9810  -11.5560 C   0  0  0  0  0  0  0  0  0  0  0  0
  -10.2505  -35.9940  -10.7436 C   0  0  0  0  0  0  0  0  0  0  0  0
  -11.4373  -34.8070  -12.4999 C   0  0  0  0  0  0  0  0  0  0  0  0
  -13.2373  -38.9791  -11.2645 C   0  0  0  0  0  0  0  0  0  0  0  0
  1  2  1  0
  2  3  1  0
  3  4  1  0
  4  5  2  0
  5  6  1  0
  6  7  2  0
  7  8  1  0
  8  9  2  0
  8 10  1  0
 10 11  2  0
 10 12  1  0
 12 13  1  0
 13 14  1  1
 14 15  1  0
 15 16  2  0
 16 17  1  0
 17 18  2  0
 18 19  1  0
 19 20  2  0
 17 21  1  0
 21 22  1  0
 22 23  1  0
 23 24  1  0
 24 25  1  0
 25 26  1  0
 13 27  1  0
 27 28  1  6
 27 29  1  0
 29 30  1  0
 30 31  1  0
 31 32  1  0
 32 33  1  0
 33 34  2  0
 34 35  1  0
 35 36  1  0
 36 37  1  0
 37 38  1  0
 37 39  1  0
 35 40  1  0
  9  4  1  0
 20 15  1  0
 26  6  1  0
 40 32  2  0
M  END
$$$$
