
     RDKit          3D

 40 43  0  0  0  0  0  0  0  0999 V2000
  -20.0531  -38.7793  -14.4593 C   0  0  0  0  0  0  0  0  0  0  0  0
  -20.7976  -39.2039  -13.3616 O   0  0  0  0  0  0  0  0  0  0  0  0
  -20.9343  -40.5728  -13.3132 C   0  0  0  0  0  0  0  0  0  0  0  0
  -20.8297  -41.0631  -11.9223 C   0  0  0  0  0  0  0  0  0  0  0  0
  -21.9198  -41.4994  -11.2207 C   0  0  0  0  0  0  0  0  0  0  0  0
  -21.8394  -41.9746   -9.8831 C   0  0  0  0  0  0  0  0  0  0  0  0
  -20.6280  -42.0173   -9.2290 C   0  0  0  0  0  0  0  0  0  0  0  0
  -19.5094  -41.5798   -9.9107 C   0  0  0  0  0  0  0  0  0  0  0  0
  -19.6463  -41.1134  -11.2480 C   0  0  0  0  0  0  0  0  0  0  0  0
  -18.1038  -41.4497   -9.5084 C   0  0  0  0  0  0  0  0  0  0  0  0
  -17.1821  -41.7717  -10.3843 O   0  0  0  0  0  0  0  0  0  0  0  0
  -17.4825  -41.0247   -8.3133 N   0  0  0  0  0  0  0  0  0  0  0  0
  -18.1422  -40.1403   -7.3277 C   0  0  1  0  0  0  0  0  0  0  0  0
  -18.3001  -40.8079   -6.0322 C   0  0  0  0  0  0  0  0  0  0  0  0
  -19.5591  -40.7751   -5.2466 C   0  0  0  0  0  0  0  0  0  0  0  0
  -20.8565  -40.8013   -5.6408 C   0  0  0  0  0  0  0  0  0  0  0  0
  -21.8418  -40.8221   -4.6458 C   0  0  0  0  0  0  0  0  0  0  0  0
  -21.4942  -40.8103   -3.2999 C   0  0  0  0  0  0  0  0  0  0  0  0
  -20.1878  -40.7814   -2.8614 C   0  0  0  0  0  0  0  0  0  0  0  0
  -19.2549  -40.7653   -3.8544 C   0  0  0  0  0  0  0  0  0  0  0  0
  -23.2238  -40.8578   -4.8110 O   0  0  0  0  0  0  0  0  0  0  0  0
  -24.0969  -41.7983   -5.3957 C   0  0  0  0  0  0  0  0  0  0  0  0
  -23.3936  -42.9588   -6.0137 C   0  0  0  0  0  0  0  0  0  0  0  0
  -23.9612  -43.2043   -7.3935 C   0  0  0  0  0  0  0  0  0  0  0  0
  -23.9033  -41.9687   -8.2572 C   0  0  0  0  0  0  0  0  0  0  0  0
  -23.1695  -42.3003   -9.4528 N   0  0  0  0  0  0  0  0  0  0  0  0
  -17.3138  -38.8630   -7.2966 C   0  0  2  0  0  0  0  0  0  0  0  0
  -18.1702  -37.7878   -6.9636 O   0  0  0  0  0  0  0  0  0  0  0  0
  -16.7067  -38.5017   -8.6213 C   0  0  0  0  0  0  0  0  0  0  0  0
  -16.1405  -39.7042   -9.1960 N   0  0  0  0  0  0  0  0  0  0  0  0
  -14.7274  -39.6764   -9.3861 C   0  0  0  0  0  0  0  0  0  0  0  0
  -14.3639  -38.5800  -10.3525 C   0  0  0  0  0  0  0  0  0  0  0  0
  -15.1578  -37.9817  -11.3010 C   0  0  0  0  0  0  0  0  0  0  0  0
  -14.4038  -37.0581  -11.9276 N   0  0  0  0  0  0  0  0  0  0  0  0
  -13.1764  -37.0219  -11.4454 N   0  0  0  0  0  0  0  0  0  0  0  0
  -12.0875  -36.1534  -11.8747 C   0  0  0  0  0  0  0  0  0  0  0  0
  -12.1984  -34.8147  -11.1632 C   0  0  0  0  0  0  0  0  0  0  0  0
  -10.8801  -34.0846  -11.1695 C   0  0  0  0  0  0  0  0  0  0  0  0
  -13.2100  -33.9216  -11.8379 C   0  0  0  0  0  0  0  0  0  0  0  0
  -13.1348  -37.9610  -10.4663 C   0  0  0  0  0  0  0  0  0  0  0  0
  1  2  1  0
  2  3  1  0
  3  4  1  0
  4  5  2  0
  5  6  1  0
  6  7  2  0
  7  8  1  0
  8  9  2  0
  8 10  1  0
 10 11  2  0
 10 12  1  0
 12 13  1  0
 13 14  1  1
 14 15  1  0
 15 16  2  0
 16 17  1  0
 17 18  2  0
 18 19  1  0
 19 20  2  0
 17 21  1  0
 21 22  1  0
 22 23  1  0
 23 24  1  0
 24 25  1  0
 25 26  1  0
 13 27  1  0
 27 28  1  6
 27 29  1  0
 29 30  1  0
 30 31  1  0
 31 32  1  0
 32 33  1  0
 33 34  2  0
 34 35  1  0
 35 36  1  0
 36 37  1  0
 37 38  1  0
 37 39  1  0
 35 40  1  0
  9  4  1  0
 20 15  1  0
 26  6  1  0
 40 32  2  0
M  END
$$$$
