
     RDKit          3D

 40 40  0  0  0  0  0  0  0  0999 V2000
  -13.3878  -38.3458  -14.8546 C   0  0  0  0  0  0  0  0  0  0  0  0
  -13.0453  -37.5626  -13.5813 C   0  0  0  0  0  0  0  0  0  0  0  0
  -14.1946  -37.6697  -12.6242 C   0  0  0  0  0  0  0  0  0  0  0  0
  -13.9924  -36.9321  -11.3493 C   0  0  0  0  0  0  0  0  0  0  0  0
  -13.4041  -37.7227  -10.2815 N   0  0  0  0  0  0  0  0  0  0  0  0
  -14.1752  -38.6986   -9.6051 C   0  0  0  0  0  0  0  0  0  0  0  0
  -14.8954  -39.4605  -10.2917 O   0  0  0  0  0  0  0  0  0  0  0  0
  -14.1566  -38.8421   -8.1461 C   0  0  2  0  0  0  0  0  0  0  0  0
  -12.8422  -39.4274   -7.7003 C   0  0  0  0  0  0  0  0  0  0  0  0
  -15.3483  -39.6380   -7.6341 C   0  0  0  0  0  0  0  0  0  0  0  0
  -16.6016  -39.3137   -8.3645 C   0  0  2  0  0  0  0  0  0  0  0  0
  -16.7278  -37.8986   -8.4984 O   0  0  0  0  0  0  0  0  0  0  0  0
  -17.8701  -39.7442   -7.6128 C   0  0  2  0  0  0  0  0  0  0  0  0
  -18.5476  -38.5069   -7.0432 C   0  0  0  0  0  0  0  0  0  0  0  0
  -19.6103  -37.9268   -7.9096 C   0  0  2  0  0  0  0  0  0  0  0  0
  -19.5443  -36.3945   -7.8014 C   0  0  0  0  0  0  0  0  0  0  0  0
  -20.9863  -38.3074   -7.3674 C   0  0  0  0  0  0  0  0  0  0  0  0
  -21.3689  -39.5950   -8.0910 C   0  0  0  0  0  0  0  0  0  0  0  0
  -22.8427  -39.8105   -7.8711 C   0  0  0  0  0  0  0  0  0  0  0  0
  -23.0007  -40.4947   -6.5225 C   0  0  0  0  0  0  0  0  0  0  0  0
  -22.6555  -41.9647   -6.6790 C   0  0  0  0  0  0  0  0  0  0  0  0
  -22.4764  -42.5925   -5.3572 C   0  0  0  0  0  0  0  0  0  0  0  0
  -22.1437  -44.0415   -5.3512 C   0  0  0  0  0  0  0  0  0  0  0  0
  -21.6800  -44.6537   -6.6153 C   0  0  2  0  0  0  0  0  0  0  0  0
  -21.5121  -46.0813   -6.4364 N   0  0  0  0  0  0  0  0  0  0  0  0
  -21.4397  -47.0534   -7.4492 C   0  0  0  0  0  0  0  0  0  0  0  0
  -21.9330  -46.9332   -8.5881 O   0  0  0  0  0  0  0  0  0  0  0  0
  -20.7709  -48.2776   -7.2218 O   0  0  0  0  0  0  0  0  0  0  0  0
  -21.5544  -49.4325   -7.0250 C   0  0  0  0  0  0  0  0  0  0  0  0
  -20.7858  -50.7202   -7.1998 C   0  0  0  0  0  0  0  0  0  0  0  0
  -22.8223  -49.4166   -7.8183 C   0  0  0  0  0  0  0  0  0  0  0  0
  -21.9625  -49.4200   -5.5290 C   0  0  0  0  0  0  0  0  0  0  0  0
  -20.5435  -44.1133   -7.3296 C   0  0  0  0  0  0  0  0  0  0  0  0
  -20.6887  -44.1365   -8.6207 O   0  0  0  0  0  0  0  0  0  0  0  0
  -19.3239  -43.5793   -6.8908 N   0  0  0  0  0  0  0  0  0  0  0  0
  -19.0415  -42.5097   -5.9701 C   0  0  1  0  0  0  0  0  0  0  0  0
  -18.8918  -43.1728   -4.5919 C   0  0  0  0  0  0  0  0  0  0  0  0
  -17.6874  -41.8985   -6.2259 C   0  0  0  0  0  0  0  0  0  0  0  0
  -16.7368  -42.7408   -6.1707 O   0  0  0  0  0  0  0  0  0  0  0  0
  -17.3927  -40.5799   -6.5010 N   0  0  0  0  0  0  0  0  0  0  0  0
  1  2  1  0
  2  3  1  0
  3  4  1  0
  4  5  1  0
  5  6  1  0
  6  7  2  0
  6  8  1  0
  8  9  1  6
  8 10  1  0
 10 11  1  0
 11 12  1  1
 11 13  1  0
 13 14  1  1
 14 15  1  0
 15 16  1  1
 15 17  1  0
 17 18  1  0
 18 19  1  0
 19 20  1  0
 20 21  1  0
 21 22  1  0
 22 23  1  0
 23 24  1  0
 24 25  1  1
 25 26  1  0
 26 27  2  0
 26 28  1  0
 28 29  1  0
 29 30  1  0
 29 31  1  0
 29 32  1  0
 24 33  1  0
 33 34  2  0
 33 35  1  0
 35 36  1  0
 36 37  1  1
 36 38  1  0
 38 39  2  0
 38 40  1  0
 40 13  1  0
M  END
$$$$
