
     RDKit          3D

 40 40  0  0  0  0  0  0  0  0999 V2000
  -10.7464  -36.8270  -14.3119 C   0  0  0  0  0  0  0  0  0  0  0  0
  -12.1054  -37.4612  -13.9909 C   0  0  0  0  0  0  0  0  0  0  0  0
  -12.3030  -37.4542  -12.5045 C   0  0  0  0  0  0  0  0  0  0  0  0
  -13.6117  -38.0055  -12.0645 C   0  0  0  0  0  0  0  0  0  0  0  0
  -13.8844  -37.8527  -10.6454 N   0  0  0  0  0  0  0  0  0  0  0  0
  -14.1683  -38.9854   -9.8450 C   0  0  0  0  0  0  0  0  0  0  0  0
  -14.6225  -40.0076  -10.4102 O   0  0  0  0  0  0  0  0  0  0  0  0
  -13.9501  -38.9978   -8.3951 C   0  0  2  0  0  0  0  0  0  0  0  0
  -12.6852  -39.7475   -8.0685 C   0  0  0  0  0  0  0  0  0  0  0  0
  -15.1553  -39.5387   -7.6397 C   0  0  0  0  0  0  0  0  0  0  0  0
  -16.4282  -39.3256   -8.3772 C   0  0  2  0  0  0  0  0  0  0  0  0
  -16.6312  -37.9297   -8.5928 O   0  0  0  0  0  0  0  0  0  0  0  0
  -17.6676  -39.7784   -7.5911 C   0  0  2  0  0  0  0  0  0  0  0  0
  -18.4012  -38.5480   -7.0788 C   0  0  0  0  0  0  0  0  0  0  0  0
  -19.4983  -38.0668   -7.9627 C   0  0  2  0  0  0  0  0  0  0  0  0
  -19.5077  -36.5295   -7.9341 C   0  0  0  0  0  0  0  0  0  0  0  0
  -20.8493  -38.4860   -7.3870 C   0  0  0  0  0  0  0  0  0  0  0  0
  -21.1732  -39.8267   -8.0393 C   0  0  0  0  0  0  0  0  0  0  0  0
  -22.6327  -40.1027   -7.7929 C   0  0  0  0  0  0  0  0  0  0  0  0
  -22.7457  -40.7229   -6.4093 C   0  0  0  0  0  0  0  0  0  0  0  0
  -22.3291  -42.1803   -6.4937 C   0  0  0  0  0  0  0  0  0  0  0  0
  -22.1084  -42.7290   -5.1432 C   0  0  0  0  0  0  0  0  0  0  0  0
  -21.7040  -44.1576   -5.0661 C   0  0  0  0  0  0  0  0  0  0  0  0
  -21.2206  -44.8111   -6.3018 C   0  0  2  0  0  0  0  0  0  0  0  0
  -20.9805  -46.2174   -6.0515 N   0  0  0  0  0  0  0  0  0  0  0  0
  -21.3544  -47.2943   -6.8740 C   0  0  0  0  0  0  0  0  0  0  0  0
  -22.5232  -47.5491   -7.2260 O   0  0  0  0  0  0  0  0  0  0  0  0
  -20.3797  -48.1886   -7.3718 O   0  0  0  0  0  0  0  0  0  0  0  0
  -20.8072  -49.4620   -7.7988 C   0  0  0  0  0  0  0  0  0  0  0  0
  -20.6976  -50.5245   -6.7319 C   0  0  0  0  0  0  0  0  0  0  0  0
  -20.1765  -49.8848   -9.0874 C   0  0  0  0  0  0  0  0  0  0  0  0
  -22.3291  -49.3319   -8.0670 C   0  0  0  0  0  0  0  0  0  0  0  0
  -20.1182  -44.2532   -7.0551 C   0  0  0  0  0  0  0  0  0  0  0  0
  -20.2723  -44.3506   -8.3416 O   0  0  0  0  0  0  0  0  0  0  0  0
  -18.9231  -43.6377   -6.6572 N   0  0  0  0  0  0  0  0  0  0  0  0
  -18.6869  -42.5092   -5.7958 C   0  0  1  0  0  0  0  0  0  0  0  0
  -18.4934  -43.0916   -4.3869 C   0  0  0  0  0  0  0  0  0  0  0  0
  -17.3669  -41.8461   -6.0970 C   0  0  0  0  0  0  0  0  0  0  0  0
  -16.3752  -42.6366   -6.0086 O   0  0  0  0  0  0  0  0  0  0  0  0
  -17.1403  -40.5307   -6.4428 N   0  0  0  0  0  0  0  0  0  0  0  0
  1  2  1  0
  2  3  1  0
  3  4  1  0
  4  5  1  0
  5  6  1  0
  6  7  2  0
  6  8  1  0
  8  9  1  6
  8 10  1  0
 10 11  1  0
 11 12  1  1
 11 13  1  0
 13 14  1  1
 14 15  1  0
 15 16  1  1
 15 17  1  0
 17 18  1  0
 18 19  1  0
 19 20  1  0
 20 21  1  0
 21 22  1  0
 22 23  1  0
 23 24  1  0
 24 25  1  1
 25 26  1  0
 26 27  2  0
 26 28  1  0
 28 29  1  0
 29 30  1  0
 29 31  1  0
 29 32  1  0
 24 33  1  0
 33 34  2  0
 33 35  1  0
 35 36  1  0
 36 37  1  1
 36 38  1  0
 38 39  2  0
 38 40  1  0
 40 13  1  0
M  END
$$$$
