
     RDKit          3D

 40 40  0  0  0  0  0  0  0  0999 V2000
  -13.5877  -34.5655  -13.7693 C   0  0  0  0  0  0  0  0  0  0  0  0
  -12.7903  -35.7945  -13.3159 C   0  0  0  0  0  0  0  0  0  0  0  0
  -13.2154  -36.1603  -11.9252 C   0  0  0  0  0  0  0  0  0  0  0  0
  -12.5697  -37.3914  -11.3981 C   0  0  0  0  0  0  0  0  0  0  0  0
  -13.1521  -37.8985  -10.1672 N   0  0  0  0  0  0  0  0  0  0  0  0
  -13.9632  -39.0587  -10.1839 C   0  0  0  0  0  0  0  0  0  0  0  0
  -14.4855  -39.3971  -11.2718 O   0  0  0  0  0  0  0  0  0  0  0  0
  -14.2070  -39.8646   -8.9835 C   0  0  2  0  0  0  0  0  0  0  0  0
  -13.0470  -40.7940   -8.7397 C   0  0  0  0  0  0  0  0  0  0  0  0
  -15.5363  -40.6024   -9.0498 C   0  0  0  0  0  0  0  0  0  0  0  0
  -16.6491  -39.7249   -9.4982 C   0  0  2  0  0  0  0  0  0  0  0  0
  -16.2822  -38.3567   -9.3256 O   0  0  0  0  0  0  0  0  0  0  0  0
  -17.9264  -39.8899   -8.6610 C   0  0  2  0  0  0  0  0  0  0  0  0
  -18.5770  -38.5262   -8.4833 C   0  0  0  0  0  0  0  0  0  0  0  0
  -19.6272  -38.2040   -9.4882 C   0  0  2  0  0  0  0  0  0  0  0  0
  -19.5284  -36.7090   -9.8335 C   0  0  0  0  0  0  0  0  0  0  0  0
  -21.0109  -38.3804   -8.8665 C   0  0  0  0  0  0  0  0  0  0  0  0
  -21.4213  -39.8155   -9.1830 C   0  0  0  0  0  0  0  0  0  0  0  0
  -22.8994  -39.9265   -8.9184 C   0  0  0  0  0  0  0  0  0  0  0  0
  -23.0716  -40.1817   -7.4295 C   0  0  0  0  0  0  0  0  0  0  0  0
  -22.7581  -41.6398   -7.1461 C   0  0  0  0  0  0  0  0  0  0  0  0
  -22.5921  -41.8559   -5.6972 C   0  0  0  0  0  0  0  0  0  0  0  0
  -22.2906  -43.2460   -5.2646 C   0  0  0  0  0  0  0  0  0  0  0  0
  -21.8405  -44.2114   -6.2908 C   0  0  2  0  0  0  0  0  0  0  0  0
  -21.7032  -45.5269   -5.7002 N   0  0  0  0  0  0  0  0  0  0  0  0
  -22.0948  -45.9135   -4.4067 C   0  0  0  0  0  0  0  0  0  0  0  0
  -22.1618  -47.0924   -4.0056 O   0  0  0  0  0  0  0  0  0  0  0  0
  -22.4495  -44.9414   -3.4441 O   0  0  0  0  0  0  0  0  0  0  0  0
  -21.8155  -44.9941   -2.1864 C   0  0  0  0  0  0  0  0  0  0  0  0
  -20.5636  -45.8379   -2.1766 C   0  0  0  0  0  0  0  0  0  0  0  0
  -22.7523  -45.3562   -1.0781 C   0  0  0  0  0  0  0  0  0  0  0  0
  -21.3189  -43.5533   -1.8997 C   0  0  0  0  0  0  0  0  0  0  0  0
  -20.6929  -43.9278   -7.1254 C   0  0  0  0  0  0  0  0  0  0  0  0
  -20.8388  -44.3256   -8.3537 O   0  0  0  0  0  0  0  0  0  0  0  0
  -19.4619  -43.3138   -6.8550 N   0  0  0  0  0  0  0  0  0  0  0  0
  -19.1564  -42.0273   -6.2867 C   0  0  1  0  0  0  0  0  0  0  0  0
  -19.0206  -42.2599   -4.7738 C   0  0  0  0  0  0  0  0  0  0  0  0
  -17.7896  -41.5459   -6.7023 C   0  0  0  0  0  0  0  0  0  0  0  0
  -16.8572  -42.3544   -6.3968 O   0  0  0  0  0  0  0  0  0  0  0  0
  -17.4667  -40.3724   -7.3502 N   0  0  0  0  0  0  0  0  0  0  0  0
  1  2  1  0
  2  3  1  0
  3  4  1  0
  4  5  1  0
  5  6  1  0
  6  7  2  0
  6  8  1  0
  8  9  1  6
  8 10  1  0
 10 11  1  0
 11 12  1  1
 11 13  1  0
 13 14  1  1
 14 15  1  0
 15 16  1  1
 15 17  1  0
 17 18  1  0
 18 19  1  0
 19 20  1  0
 20 21  1  0
 21 22  1  0
 22 23  1  0
 23 24  1  0
 24 25  1  1
 25 26  1  0
 26 27  2  0
 26 28  1  0
 28 29  1  0
 29 30  1  0
 29 31  1  0
 29 32  1  0
 24 33  1  0
 33 34  2  0
 33 35  1  0
 35 36  1  0
 36 37  1  1
 36 38  1  0
 38 39  2  0
 38 40  1  0
 40 13  1  0
M  END
$$$$
