
     RDKit          3D

 40 40  0  0  0  0  0  0  0  0999 V2000
  -11.7521  -45.1386  -10.2381 C   0  0  0  0  0  0  0  0  0  0  0  0
  -11.7335  -44.1589  -11.4178 C   0  0  0  0  0  0  0  0  0  0  0  0
  -12.6701  -43.0263  -11.1203 C   0  0  0  0  0  0  0  0  0  0  0  0
  -14.0578  -43.4550  -10.8024 C   0  0  0  0  0  0  0  0  0  0  0  0
  -14.9471  -42.3759  -10.4073 N   0  0  0  0  0  0  0  0  0  0  0  0
  -14.9342  -41.1452  -11.1071 C   0  0  0  0  0  0  0  0  0  0  0  0
  -14.1176  -41.0108  -12.0482 O   0  0  0  0  0  0  0  0  0  0  0  0
  -15.8348  -40.0390  -10.7681 C   0  0  2  0  0  0  0  0  0  0  0  0
  -15.3567  -38.7655  -11.4150 C   0  0  0  0  0  0  0  0  0  0  0  0
  -16.0191  -39.8911   -9.2648 C   0  0  0  0  0  0  0  0  0  0  0  0
  -17.1158  -38.9494   -8.9187 C   0  0  2  0  0  0  0  0  0  0  0  0
  -16.5670  -37.7567   -8.3596 O   0  0  0  0  0  0  0  0  0  0  0  0
  -18.0564  -39.4879   -7.8302 C   0  0  2  0  0  0  0  0  0  0  0  0
  -18.4330  -38.3465   -6.8975 C   0  0  0  0  0  0  0  0  0  0  0  0
  -19.7052  -37.6555   -7.2445 C   0  0  2  0  0  0  0  0  0  0  0  0
  -19.5359  -36.1534   -6.9633 C   0  0  0  0  0  0  0  0  0  0  0  0
  -20.8178  -38.1155   -6.3049 C   0  0  0  0  0  0  0  0  0  0  0  0
  -21.4888  -39.2903   -7.0104 C   0  0  0  0  0  0  0  0  0  0  0  0
  -22.7989  -39.5419   -6.3122 C   0  0  0  0  0  0  0  0  0  0  0  0
  -22.5026  -40.4100   -5.0996 C   0  0  0  0  0  0  0  0  0  0  0  0
  -22.3018  -41.8416   -5.5632 C   0  0  0  0  0  0  0  0  0  0  0  0
  -21.6973  -42.6484   -4.4875 C   0  0  0  0  0  0  0  0  0  0  0  0
  -21.4499  -44.0821   -4.7934 C   0  0  0  0  0  0  0  0  0  0  0  0
  -21.4895  -44.5079   -6.2093 C   0  0  2  0  0  0  0  0  0  0  0  0
  -21.3343  -45.9455   -6.2939 N   0  0  0  0  0  0  0  0  0  0  0  0
  -22.1335  -46.8362   -7.0315 C   0  0  0  0  0  0  0  0  0  0  0  0
  -23.3781  -46.7912   -7.0941 O   0  0  0  0  0  0  0  0  0  0  0  0
  -21.5422  -47.8798   -7.7789 O   0  0  0  0  0  0  0  0  0  0  0  0
  -22.3554  -48.5838   -8.6897 C   0  0  0  0  0  0  0  0  0  0  0  0
  -23.1374  -47.6867   -9.6188 C   0  0  0  0  0  0  0  0  0  0  0  0
  -23.2222  -49.6057   -8.0252 C   0  0  0  0  0  0  0  0  0  0  0  0
  -21.3835  -49.3571   -9.6182 C   0  0  0  0  0  0  0  0  0  0  0  0
  -20.6542  -43.8666   -7.2018 C   0  0  0  0  0  0  0  0  0  0  0  0
  -21.2456  -43.7084   -8.3479 O   0  0  0  0  0  0  0  0  0  0  0  0
  -19.3352  -43.3936   -7.1576 N   0  0  0  0  0  0  0  0  0  0  0  0
  -18.6984  -42.4630   -6.2633 C   0  0  1  0  0  0  0  0  0  0  0  0
  -18.1031  -43.3128   -5.1296 C   0  0  0  0  0  0  0  0  0  0  0  0
  -17.4949  -41.8150   -6.8992 C   0  0  0  0  0  0  0  0  0  0  0  0
  -16.6250  -42.6520   -7.2981 O   0  0  0  0  0  0  0  0  0  0  0  0
  -17.2565  -40.4693   -7.0825 N   0  0  0  0  0  0  0  0  0  0  0  0
  1  2  1  0
  2  3  1  0
  3  4  1  0
  4  5  1  0
  5  6  1  0
  6  7  2  0
  6  8  1  0
  8  9  1  1
  8 10  1  0
 10 11  1  0
 11 12  1  1
 11 13  1  0
 13 14  1  1
 14 15  1  0
 15 16  1  1
 15 17  1  0
 17 18  1  0
 18 19  1  0
 19 20  1  0
 20 21  1  0
 21 22  1  0
 22 23  1  0
 23 24  1  0
 24 25  1  1
 25 26  1  0
 26 27  2  0
 26 28  1  0
 28 29  1  0
 29 30  1  0
 29 31  1  0
 29 32  1  0
 24 33  1  0
 33 34  2  0
 33 35  1  0
 35 36  1  0
 36 37  1  1
 36 38  1  0
 38 39  2  0
 38 40  1  0
 40 13  1  0
M  END
$$$$
