
     RDKit          3D

 40 40  0  0  0  0  0  0  0  0999 V2000
  -10.0208  -37.0838  -14.2505 C   0  0  0  0  0  0  0  0  0  0  0  0
  -11.4320  -37.0162  -13.6540 C   0  0  0  0  0  0  0  0  0  0  0  0
  -11.5561  -38.0619  -12.5866 C   0  0  0  0  0  0  0  0  0  0  0  0
  -12.9121  -38.1550  -11.9840 C   0  0  0  0  0  0  0  0  0  0  0  0
  -13.0608  -39.2065  -10.9922 N   0  0  0  0  0  0  0  0  0  0  0  0
  -14.2749  -39.3506  -10.2783 C   0  0  0  0  0  0  0  0  0  0  0  0
  -15.3289  -39.5176  -10.9355 O   0  0  0  0  0  0  0  0  0  0  0  0
  -14.3349  -39.3107   -8.8138 C   0  0  2  0  0  0  0  0  0  0  0  0
  -13.1105  -39.9635   -8.2276 C   0  0  0  0  0  0  0  0  0  0  0  0
  -15.6253  -39.9130   -8.2773 C   0  0  0  0  0  0  0  0  0  0  0  0
  -16.7402  -38.9303   -8.2498 C   0  0  2  0  0  0  0  0  0  0  0  0
  -16.3059  -37.7280   -7.6154 O   0  0  0  0  0  0  0  0  0  0  0  0
  -17.9393  -39.3971   -7.4110 C   0  0  2  0  0  0  0  0  0  0  0  0
  -18.6220  -38.1782   -6.8087 C   0  0  0  0  0  0  0  0  0  0  0  0
  -19.7605  -37.6466   -7.6074 C   0  0  2  0  0  0  0  0  0  0  0  0
  -19.7433  -36.1118   -7.5180 C   0  0  0  0  0  0  0  0  0  0  0  0
  -21.0825  -38.0699   -6.9709 C   0  0  0  0  0  0  0  0  0  0  0  0
  -21.4653  -39.3787   -7.6553 C   0  0  0  0  0  0  0  0  0  0  0  0
  -22.9124  -39.6441   -7.3352 C   0  0  0  0  0  0  0  0  0  0  0  0
  -22.9552  -40.3178   -5.9728 C   0  0  0  0  0  0  0  0  0  0  0  0
  -22.5679  -41.7762   -6.1386 C   0  0  0  0  0  0  0  0  0  0  0  0
  -22.2784  -42.3818   -4.8260 C   0  0  0  0  0  0  0  0  0  0  0  0
  -21.8934  -43.8178   -4.8288 C   0  0  0  0  0  0  0  0  0  0  0  0
  -21.4929  -44.4277   -6.1154 C   0  0  2  0  0  0  0  0  0  0  0  0
  -21.2615  -45.8462   -5.9350 N   0  0  0  0  0  0  0  0  0  0  0  0
  -21.4271  -46.8551   -6.8997 C   0  0  0  0  0  0  0  0  0  0  0  0
  -21.5848  -46.6542   -8.1203 O   0  0  0  0  0  0  0  0  0  0  0  0
  -21.4222  -48.2169   -6.5214 O   0  0  0  0  0  0  0  0  0  0  0  0
  -20.2712  -48.9785   -6.8075 C   0  0  0  0  0  0  0  0  0  0  0  0
  -19.3212  -48.3000   -7.7648 C   0  0  0  0  0  0  0  0  0  0  0  0
  -20.5900  -50.3797   -7.2224 C   0  0  0  0  0  0  0  0  0  0  0  0
  -19.4829  -49.0746   -5.4755 C   0  0  0  0  0  0  0  0  0  0  0  0
  -20.4269  -43.8554   -6.9092 C   0  0  0  0  0  0  0  0  0  0  0  0
  -20.6567  -43.8988   -8.1874 O   0  0  0  0  0  0  0  0  0  0  0  0
  -19.2010  -43.2730   -6.5579 N   0  0  0  0  0  0  0  0  0  0  0  0
  -18.8972  -42.1834   -5.6681 C   0  0  1  0  0  0  0  0  0  0  0  0
  -18.6321  -42.8246   -4.2969 C   0  0  0  0  0  0  0  0  0  0  0  0
  -17.5863  -41.5271   -6.0195 C   0  0  0  0  0  0  0  0  0  0  0  0
  -16.6040  -42.3342   -6.0203 O   0  0  0  0  0  0  0  0  0  0  0  0
  -17.3588  -40.2021   -6.3260 N   0  0  0  0  0  0  0  0  0  0  0  0
  1  2  1  0
  2  3  1  0
  3  4  1  0
  4  5  1  0
  5  6  1  0
  6  7  2  0
  6  8  1  0
  8  9  1  1
  8 10  1  0
 10 11  1  0
 11 12  1  1
 11 13  1  0
 13 14  1  1
 14 15  1  0
 15 16  1  1
 15 17  1  0
 17 18  1  0
 18 19  1  0
 19 20  1  0
 20 21  1  0
 21 22  1  0
 22 23  1  0
 23 24  1  0
 24 25  1  1
 25 26  1  0
 26 27  2  0
 26 28  1  0
 28 29  1  0
 29 30  1  0
 29 31  1  0
 29 32  1  0
 24 33  1  0
 33 34  2  0
 33 35  1  0
 35 36  1  0
 36 37  1  1
 36 38  1  0
 38 39  2  0
 38 40  1  0
 40 13  1  0
M  END
$$$$
