
     RDKit          3D

 40 40  0  0  0  0  0  0  0  0999 V2000
  -21.0848  -36.6774   -7.4394 C   0  0  0  0  0  0  0  0  0  0  0  0
  -20.8954  -37.4726   -6.1419 C   0  0  0  0  0  0  0  0  0  0  0  0
  -19.4272  -37.6351   -5.8845 C   0  0  0  0  0  0  0  0  0  0  0  0
  -18.6967  -38.3438   -6.9683 C   0  0  0  0  0  0  0  0  0  0  0  0
  -17.6089  -39.1908   -6.5089 N   0  0  0  0  0  0  0  0  0  0  0  0
  -16.4495  -39.3607   -7.3034 C   0  0  0  0  0  0  0  0  0  0  0  0
  -15.9681  -38.3502   -7.8672 O   0  0  0  0  0  0  0  0  0  0  0  0
  -15.8045  -40.6650   -7.4836 C   0  0  2  0  0  0  0  0  0  0  0  0
  -14.4708  -40.6840   -6.7837 C   0  0  0  0  0  0  0  0  0  0  0  0
  -15.6937  -41.0507   -8.9515 C   0  0  0  0  0  0  0  0  0  0  0  0
  -16.3232  -42.3659   -9.2403 C   0  0  2  0  0  0  0  0  0  0  0  0
  -16.2000  -42.6631  -10.6306 O   0  0  0  0  0  0  0  0  0  0  0  0
  -17.8360  -42.3855   -8.9747 C   0  0  2  0  0  0  0  0  0  0  0  0
  -18.4605  -41.1463   -9.5982 C   0  0  0  0  0  0  0  0  0  0  0  0
  -18.9949  -41.3457  -10.9735 C   0  0  2  0  0  0  0  0  0  0  0  0
  -18.7176  -40.0744  -11.7927 C   0  0  0  0  0  0  0  0  0  0  0  0
  -20.5164  -41.4670  -10.9257 C   0  0  0  0  0  0  0  0  0  0  0  0
  -20.8038  -42.9607  -10.8059 C   0  0  0  0  0  0  0  0  0  0  0  0
  -22.2627  -43.1618  -11.1193 C   0  0  0  0  0  0  0  0  0  0  0  0
  -23.0391  -42.8869   -9.8413 C   0  0  0  0  0  0  0  0  0  0  0  0
  -22.9141  -44.0923   -8.9269 C   0  0  0  0  0  0  0  0  0  0  0  0
  -23.3646  -43.7514   -7.5652 C   0  0  0  0  0  0  0  0  0  0  0  0
  -23.3097  -44.8420   -6.5563 C   0  0  0  0  0  0  0  0  0  0  0  0
  -22.5073  -46.0432   -6.8739 C   0  0  2  0  0  0  0  0  0  0  0  0
  -22.6647  -47.0298   -5.8251 N   0  0  0  0  0  0  0  0  0  0  0  0
  -23.0847  -48.3624   -5.9795 C   0  0  0  0  0  0  0  0  0  0  0  0
  -22.7763  -49.0997   -6.9367 O   0  0  0  0  0  0  0  0  0  0  0  0
  -23.9176  -48.9685   -5.0119 O   0  0  0  0  0  0  0  0  0  0  0  0
  -23.3896  -50.0389   -4.2622 C   0  0  0  0  0  0  0  0  0  0  0  0
  -24.3966  -50.6856   -3.3418 C   0  0  0  0  0  0  0  0  0  0  0  0
  -22.1212  -49.6825   -3.5542 C   0  0  0  0  0  0  0  0  0  0  0  0
  -23.0329  -51.1435   -5.2905 C   0  0  0  0  0  0  0  0  0  0  0  0
  -21.1101  -45.9299   -7.2331 C   0  0  0  0  0  0  0  0  0  0  0  0
  -20.7505  -46.7568   -8.1687 O   0  0  0  0  0  0  0  0  0  0  0  0
  -20.0809  -45.1045   -6.7589 N   0  0  0  0  0  0  0  0  0  0  0  0
  -19.9970  -43.6717   -6.6522 C   0  0  1  0  0  0  0  0  0  0  0  0
  -20.5019  -43.3271   -5.2422 C   0  0  0  0  0  0  0  0  0  0  0  0
  -18.5662  -43.1969   -6.6496 C   0  0  0  0  0  0  0  0  0  0  0  0
  -17.8666  -43.7130   -5.7219 O   0  0  0  0  0  0  0  0  0  0  0  0
  -17.9702  -42.3019   -7.5128 N   0  0  0  0  0  0  0  0  0  0  0  0
  1  2  1  0
  2  3  1  0
  3  4  1  0
  4  5  1  0
  5  6  1  0
  6  7  2  0
  6  8  1  0
  8  9  1  6
  8 10  1  0
 10 11  1  0
 11 12  1  6
 11 13  1  0
 13 14  1  6
 14 15  1  0
 15 16  1  6
 15 17  1  0
 17 18  1  0
 18 19  1  0
 19 20  1  0
 20 21  1  0
 21 22  1  0
 22 23  1  0
 23 24  1  0
 24 25  1  1
 25 26  1  0
 26 27  2  0
 26 28  1  0
 28 29  1  0
 29 30  1  0
 29 31  1  0
 29 32  1  0
 24 33  1  0
 33 34  2  0
 33 35  1  0
 35 36  1  0
 36 37  1  1
 36 38  1  0
 38 39  2  0
 38 40  1  0
 40 13  1  0
M  END
$$$$
