
     RDKit          3D

 40 40  0  0  0  0  0  0  0  0999 V2000
  -11.9131  -35.4344  -12.7941 C   0  0  0  0  0  0  0  0  0  0  0  0
  -10.9432  -36.2145  -11.8982 C   0  0  0  0  0  0  0  0  0  0  0  0
  -11.5659  -37.5317  -11.5437 C   0  0  0  0  0  0  0  0  0  0  0  0
  -11.7643  -37.7351  -10.0843 C   0  0  0  0  0  0  0  0  0  0  0  0
  -12.1352  -39.0889   -9.7087 N   0  0  0  0  0  0  0  0  0  0  0  0
  -13.4202  -39.5927  -10.0240 C   0  0  0  0  0  0  0  0  0  0  0  0
  -13.8910  -39.3388  -11.1574 O   0  0  0  0  0  0  0  0  0  0  0  0
  -14.2053  -40.3910   -9.0775 C   0  0  2  0  0  0  0  0  0  0  0  0
  -14.6147  -41.6935   -9.7139 C   0  0  0  0  0  0  0  0  0  0  0  0
  -15.3937  -39.6178   -8.5247 C   0  0  0  0  0  0  0  0  0  0  0  0
  -16.6284  -39.8291   -9.3249 C   0  0  2  0  0  0  0  0  0  0  0  0
  -16.9139  -38.6570  -10.0872 O   0  0  0  0  0  0  0  0  0  0  0  0
  -17.8812  -40.0421   -8.4620 C   0  0  2  0  0  0  0  0  0  0  0  0
  -18.4033  -38.6864   -8.0105 C   0  0  0  0  0  0  0  0  0  0  0  0
  -19.4603  -38.1063   -8.8838 C   0  0  2  0  0  0  0  0  0  0  0  0
  -19.2456  -36.5859   -8.9638 C   0  0  0  0  0  0  0  0  0  0  0  0
  -20.8285  -38.2833   -8.2289 C   0  0  0  0  0  0  0  0  0  0  0  0
  -21.3742  -39.6006   -8.7719 C   0  0  0  0  0  0  0  0  0  0  0  0
  -22.8448  -39.6414   -8.4512 C   0  0  0  0  0  0  0  0  0  0  0  0
  -22.9797  -40.1477   -7.0239 C   0  0  0  0  0  0  0  0  0  0  0  0
  -22.7832  -41.6530   -7.0207 C   0  0  0  0  0  0  0  0  0  0  0  0
  -22.5797  -42.1401   -5.6442 C   0  0  0  0  0  0  0  0  0  0  0  0
  -22.3833  -43.6048   -5.4816 C   0  0  0  0  0  0  0  0  0  0  0  0
  -22.0596  -44.4008   -6.6855 C   0  0  2  0  0  0  0  0  0  0  0  0
  -22.0140  -45.8081   -6.3456 N   0  0  0  0  0  0  0  0  0  0  0  0
  -21.9857  -46.3612   -5.0536 C   0  0  0  0  0  0  0  0  0  0  0  0
  -22.4566  -45.8165   -4.0354 O   0  0  0  0  0  0  0  0  0  0  0  0
  -21.3955  -47.6253   -4.8273 O   0  0  0  0  0  0  0  0  0  0  0  0
  -22.1425  -48.5861   -4.1163 C   0  0  0  0  0  0  0  0  0  0  0  0
  -21.6883  -48.7674   -2.6879 C   0  0  0  0  0  0  0  0  0  0  0  0
  -22.2580  -49.8875   -4.8443 C   0  0  0  0  0  0  0  0  0  0  0  0
  -23.5773  -48.0092   -4.0007 C   0  0  0  0  0  0  0  0  0  0  0  0
  -20.9255  -44.0617   -7.5178 C   0  0  0  0  0  0  0  0  0  0  0  0
  -21.1537  -44.2179   -8.7874 O   0  0  0  0  0  0  0  0  0  0  0  0
  -19.6361  -43.6052   -7.2102 N   0  0  0  0  0  0  0  0  0  0  0  0
  -19.1978  -42.4709   -6.4405 C   0  0  1  0  0  0  0  0  0  0  0  0
  -19.0232  -42.9835   -5.0024 C   0  0  0  0  0  0  0  0  0  0  0  0
  -17.8117  -42.0310   -6.8380 C   0  0  0  0  0  0  0  0  0  0  0  0
  -16.9419  -42.9520   -6.7317 O   0  0  0  0  0  0  0  0  0  0  0  0
  -17.4138  -40.7885   -7.2844 N   0  0  0  0  0  0  0  0  0  0  0  0
  1  2  1  0
  2  3  1  0
  3  4  1  0
  4  5  1  0
  5  6  1  0
  6  7  2  0
  6  8  1  0
  8  9  1  6
  8 10  1  0
 10 11  1  0
 11 12  1  6
 11 13  1  0
 13 14  1  1
 14 15  1  0
 15 16  1  1
 15 17  1  0
 17 18  1  0
 18 19  1  0
 19 20  1  0
 20 21  1  0
 21 22  1  0
 22 23  1  0
 23 24  1  0
 24 25  1  1
 25 26  1  0
 26 27  2  0
 26 28  1  0
 28 29  1  0
 29 30  1  0
 29 31  1  0
 29 32  1  0
 24 33  1  0
 33 34  2  0
 33 35  1  0
 35 36  1  0
 36 37  1  1
 36 38  1  0
 38 39  2  0
 38 40  1  0
 40 13  1  0
M  END
$$$$
