
     RDKit          3D

 40 40  0  0  0  0  0  0  0  0999 V2000
  -11.3461  -35.1285  -12.2841 C   0  0  0  0  0  0  0  0  0  0  0  0
  -12.5994  -35.9887  -12.0810 C   0  0  0  0  0  0  0  0  0  0  0  0
  -12.1839  -37.4226  -11.9408 C   0  0  0  0  0  0  0  0  0  0  0  0
  -13.3186  -38.3693  -11.7775 C   0  0  0  0  0  0  0  0  0  0  0  0
  -13.9127  -38.3761  -10.4515 N   0  0  0  0  0  0  0  0  0  0  0  0
  -14.9838  -39.2519  -10.1514 C   0  0  0  0  0  0  0  0  0  0  0  0
  -15.9241  -39.3370  -10.9756 O   0  0  0  0  0  0  0  0  0  0  0  0
  -15.0252  -40.0508   -8.9227 C   0  0  2  0  0  0  0  0  0  0  0  0
  -14.0371  -41.1844   -9.0088 C   0  0  0  0  0  0  0  0  0  0  0  0
  -16.4323  -40.5322   -8.6002 C   0  0  0  0  0  0  0  0  0  0  0  0
  -17.3451  -39.4148   -8.2431 C   0  0  2  0  0  0  0  0  0  0  0  0
  -16.6818  -38.5176   -7.3535 O   0  0  0  0  0  0  0  0  0  0  0  0
  -18.5910  -39.8730   -7.4702 C   0  0  2  0  0  0  0  0  0  0  0  0
  -19.3154  -38.6471   -6.9347 C   0  0  0  0  0  0  0  0  0  0  0  0
  -20.4055  -38.1380   -7.8117 C   0  0  2  0  0  0  0  0  0  0  0  0
  -20.4017  -36.6017   -7.7513 C   0  0  0  0  0  0  0  0  0  0  0  0
  -21.7619  -38.5572   -7.2489 C   0  0  0  0  0  0  0  0  0  0  0  0
  -22.0954  -39.8813   -7.9298 C   0  0  0  0  0  0  0  0  0  0  0  0
  -23.5580  -40.1496   -7.6936 C   0  0  0  0  0  0  0  0  0  0  0  0
  -23.6807  -40.7973   -6.3235 C   0  0  0  0  0  0  0  0  0  0  0  0
  -23.2766  -42.2562   -6.4368 C   0  0  0  0  0  0  0  0  0  0  0  0
  -23.0649  -42.8346   -5.0973 C   0  0  0  0  0  0  0  0  0  0  0  0
  -22.6732  -44.2680   -5.0487 C   0  0  0  0  0  0  0  0  0  0  0  0
  -22.1916  -44.9000   -6.2962 C   0  0  2  0  0  0  0  0  0  0  0  0
  -21.9645  -46.3132   -6.0744 N   0  0  0  0  0  0  0  0  0  0  0  0
  -21.5777  -47.2642   -7.0346 C   0  0  0  0  0  0  0  0  0  0  0  0
  -21.7440  -48.4952   -6.9247 O   0  0  0  0  0  0  0  0  0  0  0  0
  -20.9511  -46.8580   -8.2345 O   0  0  0  0  0  0  0  0  0  0  0  0
  -19.8428  -47.6022   -8.6865 C   0  0  0  0  0  0  0  0  0  0  0  0
  -19.4735  -48.7483   -7.7758 C   0  0  0  0  0  0  0  0  0  0  0  0
  -18.6653  -46.7439   -9.0241 C   0  0  0  0  0  0  0  0  0  0  0  0
  -20.2951  -48.2802  -10.0057 C   0  0  0  0  0  0  0  0  0  0  0  0
  -21.0819  -44.3363   -7.0344 C   0  0  0  0  0  0  0  0  0  0  0  0
  -21.2328  -44.4056   -8.3232 O   0  0  0  0  0  0  0  0  0  0  0  0
  -19.8828  -43.7396   -6.6203 N   0  0  0  0  0  0  0  0  0  0  0  0
  -19.6396  -42.6313   -5.7350 C   0  0  1  0  0  0  0  0  0  0  0  0
  -19.4556  -43.2444   -4.3379 C   0  0  0  0  0  0  0  0  0  0  0  0
  -18.3129  -41.9737   -6.0185 C   0  0  0  0  0  0  0  0  0  0  0  0
  -17.3284  -42.7745   -5.9435 O   0  0  0  0  0  0  0  0  0  0  0  0
  -18.0738  -40.6534   -6.3362 N   0  0  0  0  0  0  0  0  0  0  0  0
  1  2  1  0
  2  3  1  0
  3  4  1  0
  4  5  1  0
  5  6  1  0
  6  7  2  0
  6  8  1  0
  8  9  1  6
  8 10  1  0
 10 11  1  0
 11 12  1  1
 11 13  1  0
 13 14  1  1
 14 15  1  0
 15 16  1  1
 15 17  1  0
 17 18  1  0
 18 19  1  0
 19 20  1  0
 20 21  1  0
 21 22  1  0
 22 23  1  0
 23 24  1  0
 24 25  1  1
 25 26  1  0
 26 27  2  0
 26 28  1  0
 28 29  1  0
 29 30  1  0
 29 31  1  0
 29 32  1  0
 24 33  1  0
 33 34  2  0
 33 35  1  0
 35 36  1  0
 36 37  1  1
 36 38  1  0
 38 39  2  0
 38 40  1  0
 40 13  1  0
M  END
$$$$
