
     RDKit          3D

 40 40  0  0  0  0  0  0  0  0999 V2000
   -9.1858  -37.7264  -11.4234 C   0  0  0  0  0  0  0  0  0  0  0  0
  -10.5044  -36.9921  -11.1514 C   0  0  0  0  0  0  0  0  0  0  0  0
  -11.6394  -37.9564  -11.3259 C   0  0  0  0  0  0  0  0  0  0  0  0
  -12.9779  -37.3748  -11.0423 C   0  0  0  0  0  0  0  0  0  0  0  0
  -14.0937  -38.2604  -11.3291 N   0  0  0  0  0  0  0  0  0  0  0  0
  -15.0059  -38.6168  -10.3068 C   0  0  0  0  0  0  0  0  0  0  0  0
  -15.5077  -37.6978   -9.6179 O   0  0  0  0  0  0  0  0  0  0  0  0
  -15.3756  -40.0091  -10.0337 C   0  0  2  0  0  0  0  0  0  0  0  0
  -16.3688  -40.4914  -11.0583 C   0  0  0  0  0  0  0  0  0  0  0  0
  -15.8747  -40.1997   -8.6088 C   0  0  0  0  0  0  0  0  0  0  0  0
  -16.8724  -39.1704   -8.2159 C   0  0  2  0  0  0  0  0  0  0  0  0
  -16.2355  -38.1534   -7.4435 O   0  0  0  0  0  0  0  0  0  0  0  0
  -17.9772  -39.7158   -7.2986 C   0  0  2  0  0  0  0  0  0  0  0  0
  -18.5721  -38.5616   -6.5059 C   0  0  0  0  0  0  0  0  0  0  0  0
  -19.7848  -37.9498   -7.1155 C   0  0  2  0  0  0  0  0  0  0  0  0
  -19.7368  -36.4317   -6.8768 C   0  0  0  0  0  0  0  0  0  0  0  0
  -21.0336  -38.4313   -6.3801 C   0  0  0  0  0  0  0  0  0  0  0  0
  -21.5079  -39.6640   -7.1439 C   0  0  0  0  0  0  0  0  0  0  0  0
  -22.9140  -39.9565   -6.6918 C   0  0  0  0  0  0  0  0  0  0  0  0
  -22.8145  -40.7630   -5.4067 C   0  0  0  0  0  0  0  0  0  0  0  0
  -22.4680  -42.1986   -5.7586 C   0  0  0  0  0  0  0  0  0  0  0  0
  -22.0428  -42.9332   -4.5532 C   0  0  0  0  0  0  0  0  0  0  0  0
  -21.6802  -44.3626   -4.7415 C   0  0  0  0  0  0  0  0  0  0  0  0
  -21.4335  -44.8418   -6.1189 C   0  0  2  0  0  0  0  0  0  0  0  0
  -21.2030  -46.2717   -6.1071 N   0  0  0  0  0  0  0  0  0  0  0  0
  -22.1649  -47.2806   -6.2885 C   0  0  0  0  0  0  0  0  0  0  0  0
  -22.4986  -48.1106   -5.4197 O   0  0  0  0  0  0  0  0  0  0  0  0
  -22.8393  -47.4149   -7.5232 O   0  0  0  0  0  0  0  0  0  0  0  0
  -23.0287  -48.7143   -8.0354 C   0  0  0  0  0  0  0  0  0  0  0  0
  -23.6132  -49.6792   -7.0320 C   0  0  0  0  0  0  0  0  0  0  0  0
  -21.8058  -49.2602   -8.7014 C   0  0  0  0  0  0  0  0  0  0  0  0
  -24.1160  -48.5845   -9.1334 C   0  0  0  0  0  0  0  0  0  0  0  0
  -20.4546  -44.1955   -6.9663 C   0  0  0  0  0  0  0  0  0  0  0  0
  -20.8255  -44.1102   -8.2087 O   0  0  0  0  0  0  0  0  0  0  0  0
  -19.1894  -43.6544   -6.6983 N   0  0  0  0  0  0  0  0  0  0  0  0
  -18.7737  -42.6601   -5.7445 C   0  0  1  0  0  0  0  0  0  0  0  0
  -18.3667  -43.4359   -4.4819 C   0  0  0  0  0  0  0  0  0  0  0  0
  -17.5011  -41.9752   -6.1736 C   0  0  0  0  0  0  0  0  0  0  0  0
  -16.5361  -42.7807   -6.3643 O   0  0  0  0  0  0  0  0  0  0  0  0
  -17.2909  -40.6268   -6.3706 N   0  0  0  0  0  0  0  0  0  0  0  0
  1  2  1  0
  2  3  1  0
  3  4  1  0
  4  5  1  0
  5  6  1  0
  6  7  2  0
  6  8  1  0
  8  9  1  6
  8 10  1  0
 10 11  1  0
 11 12  1  1
 11 13  1  0
 13 14  1  1
 14 15  1  0
 15 16  1  1
 15 17  1  0
 17 18  1  0
 18 19  1  0
 19 20  1  0
 20 21  1  0
 21 22  1  0
 22 23  1  0
 23 24  1  0
 24 25  1  1
 25 26  1  0
 26 27  2  0
 26 28  1  0
 28 29  1  0
 29 30  1  0
 29 31  1  0
 29 32  1  0
 24 33  1  0
 33 34  2  0
 33 35  1  0
 35 36  1  0
 36 37  1  1
 36 38  1  0
 38 39  2  0
 38 40  1  0
 40 13  1  0
M  END
$$$$
