
     RDKit          3D

 40 40  0  0  0  0  0  0  0  0999 V2000
  -10.9159  -35.5748  -13.1391 C   0  0  0  0  0  0  0  0  0  0  0  0
  -12.3999  -35.8883  -13.3654 C   0  0  0  0  0  0  0  0  0  0  0  0
  -12.9881  -36.3939  -12.0821 C   0  0  0  0  0  0  0  0  0  0  0  0
  -12.3991  -37.6741  -11.6083 C   0  0  0  0  0  0  0  0  0  0  0  0
  -12.7530  -38.0333  -10.2455 N   0  0  0  0  0  0  0  0  0  0  0  0
  -13.5797  -39.1544   -9.9925 C   0  0  0  0  0  0  0  0  0  0  0  0
  -13.5899  -40.0816  -10.8357 O   0  0  0  0  0  0  0  0  0  0  0  0
  -14.4126  -39.2614   -8.7906 C   0  0  2  0  0  0  0  0  0  0  0  0
  -13.6556  -39.9694   -7.6976 C   0  0  0  0  0  0  0  0  0  0  0  0
  -15.7559  -39.9147   -9.0814 C   0  0  0  0  0  0  0  0  0  0  0  0
  -16.8993  -39.0078   -8.7997 C   0  0  2  0  0  0  0  0  0  0  0  0
  -16.4405  -37.8649   -8.0787 O   0  0  0  0  0  0  0  0  0  0  0  0
  -17.9624  -39.6377   -7.8872 C   0  0  2  0  0  0  0  0  0  0  0  0
  -18.6406  -38.5347   -7.0886 C   0  0  0  0  0  0  0  0  0  0  0  0
  -19.8940  -38.0094   -7.6963 C   0  0  2  0  0  0  0  0  0  0  0  0
  -19.9571  -36.4933   -7.4486 C   0  0  0  0  0  0  0  0  0  0  0  0
  -21.1052  -38.5850   -6.9656 C   0  0  0  0  0  0  0  0  0  0  0  0
  -21.4876  -39.8445   -7.7372 C   0  0  0  0  0  0  0  0  0  0  0  0
  -22.8691  -40.2414   -7.2889 C   0  0  0  0  0  0  0  0  0  0  0  0
  -22.7123  -41.0461   -6.0085 C   0  0  0  0  0  0  0  0  0  0  0  0
  -22.2616  -42.4505   -6.3682 C   0  0  0  0  0  0  0  0  0  0  0  0
  -21.7853  -43.1593   -5.1666 C   0  0  0  0  0  0  0  0  0  0  0  0
  -21.3192  -44.5574   -5.3628 C   0  0  0  0  0  0  0  0  0  0  0  0
  -21.0369  -45.0090   -6.7427 C   0  0  2  0  0  0  0  0  0  0  0  0
  -20.7027  -46.4184   -6.7389 N   0  0  0  0  0  0  0  0  0  0  0  0
  -21.4899  -47.4712   -7.2370 C   0  0  0  0  0  0  0  0  0  0  0  0
  -22.4867  -47.3285   -7.9726 O   0  0  0  0  0  0  0  0  0  0  0  0
  -21.1791  -48.8124   -6.9176 O   0  0  0  0  0  0  0  0  0  0  0  0
  -20.6542  -49.6306   -7.9381 C   0  0  0  0  0  0  0  0  0  0  0  0
  -19.5635  -48.9663   -8.7433 C   0  0  0  0  0  0  0  0  0  0  0  0
  -21.7150  -50.2297   -8.8059 C   0  0  0  0  0  0  0  0  0  0  0  0
  -19.9475  -50.8082   -7.2180 C   0  0  0  0  0  0  0  0  0  0  0  0
  -20.1068  -44.2881   -7.5848 C   0  0  0  0  0  0  0  0  0  0  0  0
  -20.4817  -44.2226   -8.8272 O   0  0  0  0  0  0  0  0  0  0  0  0
  -18.8847  -43.6578   -7.3119 N   0  0  0  0  0  0  0  0  0  0  0  0
  -18.5436  -42.6415   -6.3516 C   0  0  1  0  0  0  0  0  0  0  0  0
  -18.0823  -43.3932   -5.0931 C   0  0  0  0  0  0  0  0  0  0  0  0
  -17.3238  -41.8632   -6.7748 C   0  0  0  0  0  0  0  0  0  0  0  0
  -16.3025  -42.5949   -6.9689 O   0  0  0  0  0  0  0  0  0  0  0  0
  -17.2123  -40.5018   -6.9636 N   0  0  0  0  0  0  0  0  0  0  0  0
  1  2  1  0
  2  3  1  0
  3  4  1  0
  4  5  1  0
  5  6  1  0
  6  7  2  0
  6  8  1  0
  8  9  1  1
  8 10  1  0
 10 11  1  0
 11 12  1  1
 11 13  1  0
 13 14  1  1
 14 15  1  0
 15 16  1  1
 15 17  1  0
 17 18  1  0
 18 19  1  0
 19 20  1  0
 20 21  1  0
 21 22  1  0
 22 23  1  0
 23 24  1  0
 24 25  1  1
 25 26  1  0
 26 27  2  0
 26 28  1  0
 28 29  1  0
 29 30  1  0
 29 31  1  0
 29 32  1  0
 24 33  1  0
 33 34  2  0
 33 35  1  0
 35 36  1  0
 36 37  1  1
 36 38  1  0
 38 39  2  0
 38 40  1  0
 40 13  1  0
M  END
$$$$
