
     RDKit          3D

 40 40  0  0  0  0  0  0  0  0999 V2000
  -12.2738  -44.6110  -12.5261 C   0  0  0  0  0  0  0  0  0  0  0  0
  -13.3413  -43.7153  -11.8856 C   0  0  0  0  0  0  0  0  0  0  0  0
  -13.0976  -42.2968  -12.3061 C   0  0  0  0  0  0  0  0  0  0  0  0
  -14.0932  -41.3280  -11.7764 C   0  0  0  0  0  0  0  0  0  0  0  0
  -13.6124  -40.5095  -10.6762 N   0  0  0  0  0  0  0  0  0  0  0  0
  -14.0059  -40.7948   -9.3465 C   0  0  0  0  0  0  0  0  0  0  0  0
  -14.4777  -41.9299   -9.1022 O   0  0  0  0  0  0  0  0  0  0  0  0
  -13.8799  -39.8158   -8.2624 C   0  0  2  0  0  0  0  0  0  0  0  0
  -12.6127  -40.0630   -7.4864 C   0  0  0  0  0  0  0  0  0  0  0  0
  -15.1109  -39.7905   -7.3682 C   0  0  0  0  0  0  0  0  0  0  0  0
  -16.3103  -39.2639   -8.0707 C   0  0  2  0  0  0  0  0  0  0  0  0
  -16.3882  -37.8498   -7.8954 O   0  0  0  0  0  0  0  0  0  0  0  0
  -17.6318  -39.7967   -7.4969 C   0  0  2  0  0  0  0  0  0  0  0  0
  -18.3411  -38.6667   -6.7658 C   0  0  0  0  0  0  0  0  0  0  0  0
  -19.3357  -37.9238   -7.5876 C   0  0  2  0  0  0  0  0  0  0  0  0
  -19.2688  -36.4360   -7.2056 C   0  0  0  0  0  0  0  0  0  0  0  0
  -20.7491  -38.3686   -7.2180 C   0  0  0  0  0  0  0  0  0  0  0  0
  -21.0865  -39.5015   -8.1828 C   0  0  0  0  0  0  0  0  0  0  0  0
  -22.5735  -39.7252   -8.1072 C   0  0  0  0  0  0  0  0  0  0  0  0
  -22.8315  -40.6331   -6.9152 C   0  0  0  0  0  0  0  0  0  0  0  0
  -22.4845  -42.0587   -7.3050 C   0  0  0  0  0  0  0  0  0  0  0  0
  -22.4040  -42.9126   -6.1059 C   0  0  0  0  0  0  0  0  0  0  0  0
  -22.0810  -44.3459   -6.3332 C   0  0  0  0  0  0  0  0  0  0  0  0
  -21.5316  -44.7344   -7.6504 C   0  0  2  0  0  0  0  0  0  0  0  0
  -21.3852  -46.1740   -7.7157 N   0  0  0  0  0  0  0  0  0  0  0  0
  -21.8897  -47.1135   -6.7998 C   0  0  0  0  0  0  0  0  0  0  0  0
  -22.8930  -46.9385   -6.0802 O   0  0  0  0  0  0  0  0  0  0  0  0
  -21.2585  -48.3676   -6.6378 O   0  0  0  0  0  0  0  0  0  0  0  0
  -20.5399  -48.5973   -5.4472 C   0  0  0  0  0  0  0  0  0  0  0  0
  -21.4181  -48.7084   -4.2242 C   0  0  0  0  0  0  0  0  0  0  0  0
  -19.4150  -47.6311   -5.2518 C   0  0  0  0  0  0  0  0  0  0  0  0
  -19.9016  -50.0023   -5.5999 C   0  0  0  0  0  0  0  0  0  0  0  0
  -20.3439  -44.0976   -8.1773 C   0  0  0  0  0  0  0  0  0  0  0  0
  -20.3964  -43.8905   -9.4590 O   0  0  0  0  0  0  0  0  0  0  0  0
  -19.1556  -43.6716   -7.5674 N   0  0  0  0  0  0  0  0  0  0  0  0
  -18.9337  -42.7862   -6.4547 C   0  0  1  0  0  0  0  0  0  0  0  0
  -18.8868  -43.6842   -5.2085 C   0  0  0  0  0  0  0  0  0  0  0  0
  -17.5612  -42.1644   -6.5037 C   0  0  0  0  0  0  0  0  0  0  0  0
  -16.6219  -43.0206   -6.5326 O   0  0  0  0  0  0  0  0  0  0  0  0
  -17.2399  -40.8236   -6.5201 N   0  0  0  0  0  0  0  0  0  0  0  0
  1  2  1  0
  2  3  1  0
  3  4  1  0
  4  5  1  0
  5  6  1  0
  6  7  2  0
  6  8  1  0
  8  9  1  1
  8 10  1  0
 10 11  1  0
 11 12  1  1
 11 13  1  0
 13 14  1  1
 14 15  1  0
 15 16  1  1
 15 17  1  0
 17 18  1  0
 18 19  1  0
 19 20  1  0
 20 21  1  0
 21 22  1  0
 22 23  1  0
 23 24  1  0
 24 25  1  1
 25 26  1  0
 26 27  2  0
 26 28  1  0
 28 29  1  0
 29 30  1  0
 29 31  1  0
 29 32  1  0
 24 33  1  0
 33 34  2  0
 33 35  1  0
 35 36  1  0
 36 37  1  1
 36 38  1  0
 38 39  2  0
 38 40  1  0
 40 13  1  0
M  END
$$$$
