
     RDKit          3D

 40 40  0  0  0  0  0  0  0  0999 V2000
  -10.1168  -41.0054  -13.8273 C   0  0  0  0  0  0  0  0  0  0  0  0
  -11.4291  -41.0916  -13.0384 C   0  0  0  0  0  0  0  0  0  0  0  0
  -12.4975  -40.3622  -13.7965 C   0  0  0  0  0  0  0  0  0  0  0  0
  -13.8259  -40.3680  -13.1289 C   0  0  0  0  0  0  0  0  0  0  0  0
  -13.8372  -39.7749  -11.8024 N   0  0  0  0  0  0  0  0  0  0  0  0
  -14.6419  -40.3285  -10.7775 C   0  0  0  0  0  0  0  0  0  0  0  0
  -15.4032  -41.2788  -11.0744 O   0  0  0  0  0  0  0  0  0  0  0  0
  -14.6116  -39.8301   -9.3990 C   0  0  2  0  0  0  0  0  0  0  0  0
  -14.1127  -40.9061   -8.4704 C   0  0  0  0  0  0  0  0  0  0  0  0
  -15.9572  -39.2680   -8.9640 C   0  0  0  0  0  0  0  0  0  0  0  0
  -17.0973  -40.0899   -9.4479 C   0  0  2  0  0  0  0  0  0  0  0  0
  -17.6738  -39.4804  -10.6022 O   0  0  0  0  0  0  0  0  0  0  0  0
  -18.2532  -40.1765   -8.4400 C   0  0  2  0  0  0  0  0  0  0  0  0
  -18.6537  -38.7674   -8.0293 C   0  0  0  0  0  0  0  0  0  0  0  0
  -19.7730  -38.1852   -8.8195 C   0  0  2  0  0  0  0  0  0  0  0  0
  -19.4944  -36.6876   -9.0282 C   0  0  0  0  0  0  0  0  0  0  0  0
  -21.0653  -38.2426   -8.0078 C   0  0  0  0  0  0  0  0  0  0  0  0
  -21.7329  -39.5588   -8.3946 C   0  0  0  0  0  0  0  0  0  0  0  0
  -23.1579  -39.4960   -7.9124 C   0  0  0  0  0  0  0  0  0  0  0  0
  -23.1550  -39.9019   -6.4472 C   0  0  0  0  0  0  0  0  0  0  0  0
  -23.0335  -41.4127   -6.3608 C   0  0  0  0  0  0  0  0  0  0  0  0
  -22.6995  -41.8220   -4.9845 C   0  0  0  0  0  0  0  0  0  0  0  0
  -22.5580  -43.2821   -4.7430 C   0  0  0  0  0  0  0  0  0  0  0  0
  -22.4122  -44.1701   -5.9168 C   0  0  2  0  0  0  0  0  0  0  0  0
  -22.3975  -45.5532   -5.4869 N   0  0  0  0  0  0  0  0  0  0  0  0
  -22.0109  -46.6679   -6.2512 C   0  0  0  0  0  0  0  0  0  0  0  0
  -22.5046  -46.9821   -7.3523 O   0  0  0  0  0  0  0  0  0  0  0  0
  -20.9922  -47.5335   -5.7924 O   0  0  0  0  0  0  0  0  0  0  0  0
  -20.9582  -48.8455   -6.3063 C   0  0  0  0  0  0  0  0  0  0  0  0
  -21.2423  -48.9211   -7.7872 C   0  0  0  0  0  0  0  0  0  0  0  0
  -21.7978  -49.8001   -5.5183 C   0  0  0  0  0  0  0  0  0  0  0  0
  -19.4887  -49.3200   -6.1647 C   0  0  0  0  0  0  0  0  0  0  0  0
  -21.3644  -43.9493   -6.8901 C   0  0  0  0  0  0  0  0  0  0  0  0
  -21.7424  -44.1728   -8.1130 O   0  0  0  0  0  0  0  0  0  0  0  0
  -20.0277  -43.5478   -6.7584 N   0  0  0  0  0  0  0  0  0  0  0  0
  -19.4499  -42.3933   -6.1222 C   0  0  1  0  0  0  0  0  0  0  0  0
  -19.1389  -42.8224   -4.6797 C   0  0  0  0  0  0  0  0  0  0  0  0
  -18.0979  -42.0587   -6.6990 C   0  0  0  0  0  0  0  0  0  0  0  0
  -17.2678  -43.0187   -6.6250 O   0  0  0  0  0  0  0  0  0  0  0  0
  -17.6926  -40.8716   -7.2717 N   0  0  0  0  0  0  0  0  0  0  0  0
  1  2  1  0
  2  3  1  0
  3  4  1  0
  4  5  1  0
  5  6  1  0
  6  7  2  0
  6  8  1  0
  8  9  1  1
  8 10  1  0
 10 11  1  0
 11 12  1  6
 11 13  1  0
 13 14  1  1
 14 15  1  0
 15 16  1  1
 15 17  1  0
 17 18  1  0
 18 19  1  0
 19 20  1  0
 20 21  1  0
 21 22  1  0
 22 23  1  0
 23 24  1  0
 24 25  1  1
 25 26  1  0
 26 27  2  0
 26 28  1  0
 28 29  1  0
 29 30  1  0
 29 31  1  0
 29 32  1  0
 24 33  1  0
 33 34  2  0
 33 35  1  0
 35 36  1  0
 36 37  1  1
 36 38  1  0
 38 39  2  0
 38 40  1  0
 40 13  1  0
M  END
$$$$
