
     RDKit          3D

 40 40  0  0  0  0  0  0  0  0999 V2000
  -13.6845  -37.3002  -14.7192 C   0  0  0  0  0  0  0  0  0  0  0  0
  -13.4534  -38.3256  -13.6024 C   0  0  0  0  0  0  0  0  0  0  0  0
  -12.6195  -37.6919  -12.5294 C   0  0  0  0  0  0  0  0  0  0  0  0
  -12.2201  -38.6240  -11.4422 C   0  0  0  0  0  0  0  0  0  0  0  0
  -12.6315  -38.2103  -10.1113 N   0  0  0  0  0  0  0  0  0  0  0  0
  -13.8620  -38.6562   -9.5715 C   0  0  0  0  0  0  0  0  0  0  0  0
  -14.9030  -38.4683  -10.2435 O   0  0  0  0  0  0  0  0  0  0  0  0
  -13.9533  -39.3215   -8.2681 C   0  0  2  0  0  0  0  0  0  0  0  0
  -12.8029  -40.2780   -8.0935 C   0  0  0  0  0  0  0  0  0  0  0  0
  -15.3025  -39.9947   -8.0626 C   0  0  0  0  0  0  0  0  0  0  0  0
  -16.4353  -39.0392   -8.1774 C   0  0  2  0  0  0  0  0  0  0  0  0
  -16.1887  -37.8997   -7.3546 O   0  0  0  0  0  0  0  0  0  0  0  0
  -17.7641  -39.6089   -7.6585 C   0  0  2  0  0  0  0  0  0  0  0  0
  -18.5864  -38.4751   -7.0647 C   0  0  0  0  0  0  0  0  0  0  0  0
  -19.5573  -37.8532   -8.0066 C   0  0  2  0  0  0  0  0  0  0  0  0
  -19.6007  -36.3409   -7.7331 C   0  0  0  0  0  0  0  0  0  0  0  0
  -20.9674  -38.3553   -7.7038 C   0  0  0  0  0  0  0  0  0  0  0  0
  -21.1700  -39.5717   -8.6023 C   0  0  0  0  0  0  0  0  0  0  0  0
  -22.6439  -39.8788   -8.6135 C   0  0  0  0  0  0  0  0  0  0  0  0
  -22.9385  -40.7143   -7.3778 C   0  0  0  0  0  0  0  0  0  0  0  0
  -22.4858  -42.1403   -7.6351 C   0  0  0  0  0  0  0  0  0  0  0  0
  -22.4467  -42.9010   -6.3729 C   0  0  0  0  0  0  0  0  0  0  0  0
  -22.0294  -44.3247   -6.4697 C   0  0  0  0  0  0  0  0  0  0  0  0
  -21.3641  -44.7713   -7.7129 C   0  0  2  0  0  0  0  0  0  0  0  0
  -21.1342  -46.2005   -7.6602 N   0  0  0  0  0  0  0  0  0  0  0  0
  -22.1105  -47.2114   -7.6893 C   0  0  0  0  0  0  0  0  0  0  0  0
  -23.1052  -47.2192   -8.4414 O   0  0  0  0  0  0  0  0  0  0  0  0
  -22.0127  -48.3278   -6.8282 O   0  0  0  0  0  0  0  0  0  0  0  0
  -21.8782  -49.6036   -7.4121 C   0  0  0  0  0  0  0  0  0  0  0  0
  -22.0648  -49.6042   -8.9103 C   0  0  0  0  0  0  0  0  0  0  0  0
  -22.7144  -50.6432   -6.7360 C   0  0  0  0  0  0  0  0  0  0  0  0
  -20.3977  -50.0138   -7.2017 C   0  0  0  0  0  0  0  0  0  0  0  0
  -20.1777  -44.1028   -8.2023 C   0  0  0  0  0  0  0  0  0  0  0  0
  -20.1472  -43.9901   -9.4964 O   0  0  0  0  0  0  0  0  0  0  0  0
  -19.0628  -43.5640   -7.5449 N   0  0  0  0  0  0  0  0  0  0  0  0
  -18.9724  -42.5906   -6.4887 C   0  0  1  0  0  0  0  0  0  0  0  0
  -18.9679  -43.3940   -5.1787 C   0  0  0  0  0  0  0  0  0  0  0  0
  -17.6364  -41.8921   -6.4887 C   0  0  0  0  0  0  0  0  0  0  0  0
  -16.6517  -42.6900   -6.3884 O   0  0  0  0  0  0  0  0  0  0  0  0
  -17.3891  -40.5389   -6.5829 N   0  0  0  0  0  0  0  0  0  0  0  0
  1  2  1  0
  2  3  1  0
  3  4  1  0
  4  5  1  0
  5  6  1  0
  6  7  2  0
  6  8  1  0
  8  9  1  6
  8 10  1  0
 10 11  1  0
 11 12  1  1
 11 13  1  0
 13 14  1  1
 14 15  1  0
 15 16  1  1
 15 17  1  0
 17 18  1  0
 18 19  1  0
 19 20  1  0
 20 21  1  0
 21 22  1  0
 22 23  1  0
 23 24  1  0
 24 25  1  1
 25 26  1  0
 26 27  2  0
 26 28  1  0
 28 29  1  0
 29 30  1  0
 29 31  1  0
 29 32  1  0
 24 33  1  0
 33 34  2  0
 33 35  1  0
 35 36  1  0
 36 37  1  1
 36 38  1  0
 38 39  2  0
 38 40  1  0
 40 13  1  0
M  END
$$$$
