
     RDKit          3D

 40 40  0  0  0  0  0  0  0  0999 V2000
  -14.9309  -34.4168  -13.2047 C   0  0  0  0  0  0  0  0  0  0  0  0
  -13.9994  -35.6351  -13.1959 C   0  0  0  0  0  0  0  0  0  0  0  0
  -14.2777  -36.4474  -11.9667 C   0  0  0  0  0  0  0  0  0  0  0  0
  -13.4494  -37.6768  -11.8522 C   0  0  0  0  0  0  0  0  0  0  0  0
  -13.6396  -38.4197  -10.6180 N   0  0  0  0  0  0  0  0  0  0  0  0
  -14.6359  -39.4218  -10.5319 C   0  0  0  0  0  0  0  0  0  0  0  0
  -15.5122  -39.4602  -11.4271 O   0  0  0  0  0  0  0  0  0  0  0  0
  -14.6726  -40.4021   -9.4422 C   0  0  2  0  0  0  0  0  0  0  0  0
  -13.7324  -41.5410   -9.7386 C   0  0  0  0  0  0  0  0  0  0  0  0
  -16.0874  -40.8801   -9.1498 C   0  0  0  0  0  0  0  0  0  0  0  0
  -17.0340  -39.7533   -8.9410 C   0  0  2  0  0  0  0  0  0  0  0  0
  -16.3526  -38.6605   -8.3262 O   0  0  0  0  0  0  0  0  0  0  0  0
  -18.1748  -40.0918   -7.9697 C   0  0  2  0  0  0  0  0  0  0  0  0
  -18.7193  -38.7987   -7.3815 C   0  0  0  0  0  0  0  0  0  0  0  0
  -19.8930  -38.2346   -8.1032 C   0  0  2  0  0  0  0  0  0  0  0  0
  -19.7712  -36.7019   -8.1076 C   0  0  0  0  0  0  0  0  0  0  0  0
  -21.1724  -38.5321   -7.3242 C   0  0  0  0  0  0  0  0  0  0  0  0
  -21.6998  -39.8467   -7.8912 C   0  0  0  0  0  0  0  0  0  0  0  0
  -23.1237  -39.9955   -7.4249 C   0  0  0  0  0  0  0  0  0  0  0  0
  -23.0788  -40.5905   -6.0264 C   0  0  0  0  0  0  0  0  0  0  0  0
  -22.8012  -42.0788   -6.1393 C   0  0  0  0  0  0  0  0  0  0  0  0
  -22.4267  -42.6312   -4.8248 C   0  0  0  0  0  0  0  0  0  0  0  0
  -22.1345  -44.0882   -4.7770 C   0  0  0  0  0  0  0  0  0  0  0  0
  -21.8973  -44.7922   -6.0560 C   0  0  2  0  0  0  0  0  0  0  0  0
  -21.7392  -46.2113   -5.8129 N   0  0  0  0  0  0  0  0  0  0  0  0
  -21.1105  -47.1444   -6.6556 C   0  0  0  0  0  0  0  0  0  0  0  0
  -21.4268  -47.3580   -7.8428 O   0  0  0  0  0  0  0  0  0  0  0  0
  -20.0337  -47.9275   -6.1815 O   0  0  0  0  0  0  0  0  0  0  0  0
  -19.5087  -48.9169   -7.0371 C   0  0  0  0  0  0  0  0  0  0  0  0
  -18.9638  -48.3667   -8.3332 C   0  0  0  0  0  0  0  0  0  0  0  0
  -20.4530  -50.0557   -7.2569 C   0  0  0  0  0  0  0  0  0  0  0  0
  -18.2701  -49.4974   -6.3066 C   0  0  0  0  0  0  0  0  0  0  0  0
  -20.8779  -44.3371   -6.9767 C   0  0  0  0  0  0  0  0  0  0  0  0
  -21.2306  -44.4334   -8.2236 O   0  0  0  0  0  0  0  0  0  0  0  0
  -19.5901  -43.8214   -6.7744 N   0  0  0  0  0  0  0  0  0  0  0  0
  -19.1353  -42.7088   -5.9829 C   0  0  1  0  0  0  0  0  0  0  0  0
  -18.7815  -43.2920   -4.6058 C   0  0  0  0  0  0  0  0  0  0  0  0
  -17.8252  -42.1630   -6.4914 C   0  0  0  0  0  0  0  0  0  0  0  0
  -16.9000  -43.0340   -6.5337 O   0  0  0  0  0  0  0  0  0  0  0  0
  -17.5452  -40.8750   -6.8961 N   0  0  0  0  0  0  0  0  0  0  0  0
  1  2  1  0
  2  3  1  0
  3  4  1  0
  4  5  1  0
  5  6  1  0
  6  7  2  0
  6  8  1  0
  8  9  1  6
  8 10  1  0
 10 11  1  0
 11 12  1  1
 11 13  1  0
 13 14  1  1
 14 15  1  0
 15 16  1  1
 15 17  1  0
 17 18  1  0
 18 19  1  0
 19 20  1  0
 20 21  1  0
 21 22  1  0
 22 23  1  0
 23 24  1  0
 24 25  1  1
 25 26  1  0
 26 27  2  0
 26 28  1  0
 28 29  1  0
 29 30  1  0
 29 31  1  0
 29 32  1  0
 24 33  1  0
 33 34  2  0
 33 35  1  0
 35 36  1  0
 36 37  1  1
 36 38  1  0
 38 39  2  0
 38 40  1  0
 40 13  1  0
M  END
$$$$
