
     RDKit          3D

 40 40  0  0  0  0  0  0  0  0999 V2000
  -17.6517  -36.0638  -12.9241 C   0  0  0  0  0  0  0  0  0  0  0  0
  -16.3337  -36.8423  -13.0167 C   0  0  0  0  0  0  0  0  0  0  0  0
  -15.9509  -37.3095  -11.6443 C   0  0  0  0  0  0  0  0  0  0  0  0
  -14.7123  -38.1312  -11.6073 C   0  0  0  0  0  0  0  0  0  0  0  0
  -14.1958  -38.3841  -10.2729 N   0  0  0  0  0  0  0  0  0  0  0  0
  -14.6123  -39.5272   -9.5488 C   0  0  0  0  0  0  0  0  0  0  0  0
  -15.1764  -40.4514  -10.1799 O   0  0  0  0  0  0  0  0  0  0  0  0
  -14.4064  -39.6599   -8.1032 C   0  0  2  0  0  0  0  0  0  0  0  0
  -13.1420  -40.4312   -7.8291 C   0  0  0  0  0  0  0  0  0  0  0  0
  -15.6163  -40.2647   -7.4060 C   0  0  0  0  0  0  0  0  0  0  0  0
  -16.8621  -39.4967   -7.6659 C   0  0  2  0  0  0  0  0  0  0  0  0
  -16.8034  -38.2416   -6.9893 O   0  0  0  0  0  0  0  0  0  0  0  0
  -18.1213  -40.1768   -7.1078 C   0  0  2  0  0  0  0  0  0  0  0  0
  -18.7988  -39.2292   -6.1293 C   0  0  0  0  0  0  0  0  0  0  0  0
  -19.8725  -38.3865   -6.7239 C   0  0  2  0  0  0  0  0  0  0  0  0
  -19.8125  -36.9932   -6.0767 C   0  0  0  0  0  0  0  0  0  0  0  0
  -21.2414  -38.9461   -6.3429 C   0  0  0  0  0  0  0  0  0  0  0  0
  -21.6252  -39.8939   -7.4753 C   0  0  0  0  0  0  0  0  0  0  0  0
  -23.0958  -40.1851   -7.3357 C   0  0  0  0  0  0  0  0  0  0  0  0
  -23.2375  -41.3064   -6.3187 C   0  0  0  0  0  0  0  0  0  0  0  0
  -22.8872  -42.6212   -6.9919 C   0  0  0  0  0  0  0  0  0  0  0  0
  -22.6923  -43.6777   -5.9824 C   0  0  0  0  0  0  0  0  0  0  0  0
  -22.3529  -45.0310   -6.4961 C   0  0  0  0  0  0  0  0  0  0  0  0
  -21.8988  -45.1485   -7.8988 C   0  0  2  0  0  0  0  0  0  0  0  0
  -21.7226  -46.5446   -8.2422 N   0  0  0  0  0  0  0  0  0  0  0  0
  -21.4663  -47.6037   -7.3541 C   0  0  0  0  0  0  0  0  0  0  0  0
  -22.3252  -48.4040   -6.9336 O   0  0  0  0  0  0  0  0  0  0  0  0
  -20.1591  -47.8310   -6.8673 O   0  0  0  0  0  0  0  0  0  0  0  0
  -19.7329  -49.1659   -6.7154 C   0  0  0  0  0  0  0  0  0  0  0  0
  -19.5273  -49.8866   -8.0260 C   0  0  0  0  0  0  0  0  0  0  0  0
  -20.5887  -49.9449   -5.7679 C   0  0  0  0  0  0  0  0  0  0  0  0
  -18.3188  -49.0917   -6.0833 C   0  0  0  0  0  0  0  0  0  0  0  0
  -20.7718  -44.3800   -8.3819 C   0  0  0  0  0  0  0  0  0  0  0  0
  -20.9293  -43.9424   -9.5952 O   0  0  0  0  0  0  0  0  0  0  0  0
  -19.5504  -44.0283   -7.7905 N   0  0  0  0  0  0  0  0  0  0  0  0
  -19.2640  -43.3553   -6.5510 C   0  0  1  0  0  0  0  0  0  0  0  0
  -19.0979  -44.4651   -5.5011 C   0  0  0  0  0  0  0  0  0  0  0  0
  -17.9152  -42.6825   -6.5820 C   0  0  0  0  0  0  0  0  0  0  0  0
  -16.9603  -43.4817   -6.8379 O   0  0  0  0  0  0  0  0  0  0  0  0
  -17.6292  -41.3502   -6.3709 N   0  0  0  0  0  0  0  0  0  0  0  0
  1  2  1  0
  2  3  1  0
  3  4  1  0
  4  5  1  0
  5  6  1  0
  6  7  2  0
  6  8  1  0
  8  9  1  6
  8 10  1  0
 10 11  1  0
 11 12  1  1
 11 13  1  0
 13 14  1  1
 14 15  1  0
 15 16  1  1
 15 17  1  0
 17 18  1  0
 18 19  1  0
 19 20  1  0
 20 21  1  0
 21 22  1  0
 22 23  1  0
 23 24  1  0
 24 25  1  1
 25 26  1  0
 26 27  2  0
 26 28  1  0
 28 29  1  0
 29 30  1  0
 29 31  1  0
 29 32  1  0
 24 33  1  0
 33 34  2  0
 33 35  1  0
 35 36  1  0
 36 37  1  1
 36 38  1  0
 38 39  2  0
 38 40  1  0
 40 13  1  0
M  END
$$$$
