
     RDKit          3D

 40 40  0  0  0  0  0  0  0  0999 V2000
  -11.7876  -44.9141  -10.3360 C   0  0  0  0  0  0  0  0  0  0  0  0
  -12.1892  -43.4365  -10.2498 C   0  0  0  0  0  0  0  0  0  0  0  0
  -13.3595  -43.3071   -9.3213 C   0  0  0  0  0  0  0  0  0  0  0  0
  -13.8743  -41.9190   -9.1848 C   0  0  0  0  0  0  0  0  0  0  0  0
  -15.3143  -41.8234   -9.0161 N   0  0  0  0  0  0  0  0  0  0  0  0
  -15.9439  -40.5575   -8.9417 C   0  0  0  0  0  0  0  0  0  0  0  0
  -16.2727  -40.1283   -7.8110 O   0  0  0  0  0  0  0  0  0  0  0  0
  -16.2189  -39.7455  -10.1311 C   0  0  2  0  0  0  0  0  0  0  0  0
  -14.9588  -39.5632  -10.9360 C   0  0  0  0  0  0  0  0  0  0  0  0
  -16.8780  -38.4198   -9.7791 C   0  0  0  0  0  0  0  0  0  0  0  0
  -18.3610  -38.4872   -9.8547 C   0  0  2  0  0  0  0  0  0  0  0  0
  -18.9052  -37.1688   -9.8118 O   0  0  0  0  0  0  0  0  0  0  0  0
  -18.9973  -39.2059   -8.6555 C   0  0  2  0  0  0  0  0  0  0  0  0
  -19.6329  -38.1688   -7.7418 C   0  0  0  0  0  0  0  0  0  0  0  0
  -21.0804  -37.9257   -7.9913 C   0  0  2  0  0  0  0  0  0  0  0  0
  -21.3633  -36.4272   -7.7954 C   0  0  0  0  0  0  0  0  0  0  0  0
  -21.9158  -38.6333   -6.9266 C   0  0  0  0  0  0  0  0  0  0  0  0
  -22.2438  -40.0048   -7.5091 C   0  0  0  0  0  0  0  0  0  0  0  0
  -23.3504  -40.5922   -6.6740 C   0  0  0  0  0  0  0  0  0  0  0  0
  -22.7028  -41.2378   -5.4593 C   0  0  0  0  0  0  0  0  0  0  0  0
  -22.1058  -42.5699   -5.8763 C   0  0  0  0  0  0  0  0  0  0  0  0
  -21.1961  -43.0733   -4.8311 C   0  0  0  0  0  0  0  0  0  0  0  0
  -20.5416  -44.3817   -5.0959 C   0  0  0  0  0  0  0  0  0  0  0  0
  -20.5611  -44.9013   -6.4806 C   0  0  2  0  0  0  0  0  0  0  0  0
  -19.9749  -46.2254   -6.5161 N   0  0  0  0  0  0  0  0  0  0  0  0
  -20.6348  -47.4300   -6.8152 C   0  0  0  0  0  0  0  0  0  0  0  0
  -21.7518  -47.5129   -7.3632 O   0  0  0  0  0  0  0  0  0  0  0  0
  -20.0395  -48.6719   -6.4977 O   0  0  0  0  0  0  0  0  0  0  0  0
  -20.2183  -49.7406   -7.3990 C   0  0  0  0  0  0  0  0  0  0  0  0
  -21.6670  -50.0380   -7.7027 C   0  0  0  0  0  0  0  0  0  0  0  0
  -19.4582  -50.9668   -7.0045 C   0  0  0  0  0  0  0  0  0  0  0  0
  -19.6254  -49.2618   -8.7496 C   0  0  0  0  0  0  0  0  0  0  0  0
  -20.0488  -44.1100   -7.5785 C   0  0  0  0  0  0  0  0  0  0  0  0
  -20.7504  -44.2237   -8.6662 O   0  0  0  0  0  0  0  0  0  0  0  0
  -18.9426  -43.2556   -7.6863 N   0  0  0  0  0  0  0  0  0  0  0  0
  -18.5561  -42.1126   -6.9018 C   0  0  1  0  0  0  0  0  0  0  0  0
  -17.6373  -42.6555   -5.7961 C   0  0  0  0  0  0  0  0  0  0  0  0
  -17.6683  -41.1768   -7.6821 C   0  0  0  0  0  0  0  0  0  0  0  0
  -16.6168  -41.7355   -8.1276 O   0  0  0  0  0  0  0  0  0  0  0  0
  -17.8747  -39.8396   -7.9479 N   0  0  0  0  0  0  0  0  0  0  0  0
  1  2  1  0
  2  3  1  0
  3  4  1  0
  4  5  1  0
  5  6  1  0
  6  7  2  0
  6  8  1  0
  8  9  1  1
  8 10  1  0
 10 11  1  0
 11 12  1  1
 11 13  1  0
 13 14  1  1
 14 15  1  0
 15 16  1  1
 15 17  1  0
 17 18  1  0
 18 19  1  0
 19 20  1  0
 20 21  1  0
 21 22  1  0
 22 23  1  0
 23 24  1  0
 24 25  1  1
 25 26  1  0
 26 27  2  0
 26 28  1  0
 28 29  1  0
 29 30  1  0
 29 31  1  0
 29 32  1  0
 24 33  1  0
 33 34  2  0
 33 35  1  0
 35 36  1  0
 36 37  1  1
 36 38  1  0
 38 39  2  0
 38 40  1  0
 40 13  1  0
M  END
$$$$
