
     RDKit          3D

 38 40  0  0  0  0  0  0  0  0999 V2000
  -19.6799  -37.8366   -6.2750 C   0  0  0  0  0  0  0  0  0  0  0  0
  -19.3162  -38.8837   -7.3171 C   0  0  2  0  0  0  0  0  0  0  0  0
  -20.4684  -39.7683   -7.6766 C   0  0  0  0  0  0  0  0  0  0  0  0
  -21.8028  -39.1437   -7.3990 C   0  0  0  0  0  0  0  0  0  0  0  0
  -22.8773  -40.1574   -7.6761 C   0  0  0  0  0  0  0  0  0  0  0  0
  -23.8922  -40.1653   -6.5513 C   0  0  0  0  0  0  0  0  0  0  0  0
  -23.9257  -41.5414   -5.9665 C   0  0  0  0  0  0  0  0  0  0  0  0
  -22.7652  -41.7514   -5.0541 C   0  0  0  0  0  0  0  0  0  0  0  0
  -22.7153  -43.1603   -4.5172 C   0  0  0  0  0  0  0  0  0  0  0  0
  -22.1028  -44.0981   -5.4284 N   0  0  0  0  0  0  0  0  0  0  0  0
  -21.0214  -43.9836   -6.3550 C   0  0  0  0  0  0  0  0  0  0  0  0
  -19.7791  -43.3956   -6.2525 C   0  0  0  0  0  0  0  0  0  0  0  0
  -18.9246  -43.4524   -7.3343 C   0  0  0  0  0  0  0  0  0  0  0  0
  -19.3445  -44.1132   -8.5190 C   0  0  0  0  0  0  0  0  0  0  0  0
  -20.5669  -44.7084   -8.6601 C   0  0  0  0  0  0  0  0  0  0  0  0
  -21.3824  -44.6296   -7.5681 C   0  0  0  0  0  0  0  0  0  0  0  0
  -17.5633  -42.9449   -7.5340 C   0  0  0  0  0  0  0  0  0  0  0  0
  -16.6763  -43.7595   -8.1035 O   0  0  0  0  0  0  0  0  0  0  0  0
  -16.9548  -41.6973   -7.2331 N   0  0  0  0  0  0  0  0  0  0  0  0
  -17.3295  -40.3915   -7.6943 C   0  0  1  0  0  0  0  0  0  0  0  0
  -18.1652  -39.6746   -6.6999 C   0  0  0  0  0  0  0  0  0  0  0  0
  -15.9968  -39.6734   -8.0064 C   0  0  2  0  0  0  0  0  0  0  0  0
  -16.2157  -38.3090   -8.1547 O   0  0  0  0  0  0  0  0  0  0  0  0
  -15.3845  -40.1848   -9.2547 C   0  0  0  0  0  0  0  0  0  0  0  0
  -14.2464  -40.9922   -9.1812 N   0  0  0  0  0  0  0  0  0  0  0  0
  -12.9755  -40.5264   -9.5675 C   0  0  0  0  0  0  0  0  0  0  0  0
  -12.1064  -40.2081   -8.3845 C   0  0  0  0  0  0  0  0  0  0  0  0
  -12.2111  -41.5482  -10.4099 C   0  0  0  0  0  0  0  0  0  0  0  0
  -13.0714  -39.2861  -10.4168 C   0  0  0  0  0  0  0  0  0  0  0  0
  -12.0401  -38.4096  -10.5978 C   0  0  0  0  0  0  0  0  0  0  0  0
  -12.4815  -37.4017  -11.4340 C   0  0  0  0  0  0  0  0  0  0  0  0
  -11.6481  -36.2568  -11.8693 C   0  0  0  0  0  0  0  0  0  0  0  0
  -11.2454  -36.3362  -13.3050 C   0  0  0  0  0  0  0  0  0  0  0  0
  -10.3226  -37.5187  -13.5142 C   0  0  0  0  0  0  0  0  0  0  0  0
  -12.4222  -36.5232  -14.2401 C   0  0  0  0  0  0  0  0  0  0  0  0
  -10.4815  -35.0698  -13.6856 C   0  0  0  0  0  0  0  0  0  0  0  0
  -13.7087  -37.6874  -11.7191 O   0  0  0  0  0  0  0  0  0  0  0  0
  -14.0870  -38.8050  -11.1266 N   0  0  0  0  0  0  0  0  0  0  0  0
  2  1  1  1
  2  3  1  0
  3  4  1  0
  4  5  1  0
  5  6  1  0
  6  7  1  0
  7  8  1  0
  8  9  1  0
  9 10  1  0
 10 11  1  0
 11 12  1  0
 12 13  2  0
 13 14  1  0
 14 15  2  0
 15 16  1  0
 13 17  1  0
 17 18  2  0
 17 19  1  0
 19 20  1  0
 20 21  1  1
 20 22  1  0
 22 23  1  6
 22 24  1  0
 24 25  1  0
 25 26  1  0
 26 27  1  0
 26 28  1  0
 26 29  1  0
 29 30  1  0
 30 31  2  0
 31 32  1  0
 32 33  1  0
 33 34  1  0
 33 35  1  0
 33 36  1  0
 31 37  1  0
 37 38  1  0
 16 11  2  0
 21  2  1  0
 38 29  2  0
M  END
$$$$
