
     RDKit          3D

 38 40  0  0  0  0  0  0  0  0999 V2000
  -19.5740  -37.7826   -5.7910 C   0  0  0  0  0  0  0  0  0  0  0  0
  -19.2446  -38.6935   -6.9642 C   0  0  2  0  0  0  0  0  0  0  0  0
  -20.4255  -39.4838   -7.4336 C   0  0  0  0  0  0  0  0  0  0  0  0
  -21.7385  -38.8577   -7.0706 C   0  0  0  0  0  0  0  0  0  0  0  0
  -22.8460  -39.7894   -7.4758 C   0  0  0  0  0  0  0  0  0  0  0  0
  -23.8614  -39.9130   -6.3582 C   0  0  0  0  0  0  0  0  0  0  0  0
  -23.9413  -41.3527   -5.9612 C   0  0  0  0  0  0  0  0  0  0  0  0
  -22.7890  -41.7204   -5.0890 C   0  0  0  0  0  0  0  0  0  0  0  0
  -22.7866  -43.1889   -4.7441 C   0  0  0  0  0  0  0  0  0  0  0  0
  -22.2050  -44.0172   -5.7740 N   0  0  0  0  0  0  0  0  0  0  0  0
  -21.1197  -43.8167   -6.6812 C   0  0  0  0  0  0  0  0  0  0  0  0
  -19.8586  -43.2890   -6.5063 C   0  0  0  0  0  0  0  0  0  0  0  0
  -19.0057  -43.2299   -7.5892 C   0  0  0  0  0  0  0  0  0  0  0  0
  -19.4466  -43.7132   -8.8495 C   0  0  0  0  0  0  0  0  0  0  0  0
  -20.6880  -44.2435   -9.0638 C   0  0  0  0  0  0  0  0  0  0  0  0
  -21.5013  -44.2835   -7.9680 C   0  0  0  0  0  0  0  0  0  0  0  0
  -17.6281  -42.7458   -7.7248 C   0  0  0  0  0  0  0  0  0  0  0  0
  -16.7684  -43.5065   -8.4007 O   0  0  0  0  0  0  0  0  0  0  0  0
  -16.9785  -41.5701   -7.2632 N   0  0  0  0  0  0  0  0  0  0  0  0
  -17.3091  -40.2029   -7.5456 C   0  0  1  0  0  0  0  0  0  0  0  0
  -18.1211  -39.5971   -6.4617 C   0  0  0  0  0  0  0  0  0  0  0  0
  -15.9530  -39.4943   -7.7645 C   0  0  2  0  0  0  0  0  0  0  0  0
  -16.1540  -38.1327   -7.9569 O   0  0  0  0  0  0  0  0  0  0  0  0
  -15.2451  -40.0321   -8.9496 C   0  0  0  0  0  0  0  0  0  0  0  0
  -14.3756  -41.1153   -8.7977 N   0  0  0  0  0  0  0  0  0  0  0  0
  -13.4676  -41.4897   -9.8060 C   0  0  0  0  0  0  0  0  0  0  0  0
  -12.0479  -41.4939   -9.3152 C   0  0  0  0  0  0  0  0  0  0  0  0
  -13.7465  -42.8908  -10.3510 C   0  0  0  0  0  0  0  0  0  0  0  0
  -13.5426  -40.5665  -10.9939 C   0  0  0  0  0  0  0  0  0  0  0  0
  -12.5092  -39.7740  -11.4045 C   0  0  0  0  0  0  0  0  0  0  0  0
  -12.9292  -39.0724  -12.5186 C   0  0  0  0  0  0  0  0  0  0  0  0
  -12.0871  -38.1036  -13.2583 C   0  0  0  0  0  0  0  0  0  0  0  0
  -12.2291  -36.7028  -12.7611 C   0  0  0  0  0  0  0  0  0  0  0  0
  -11.1266  -36.3965  -11.7689 C   0  0  0  0  0  0  0  0  0  0  0  0
  -12.1297  -35.6703  -13.8648 C   0  0  0  0  0  0  0  0  0  0  0  0
  -13.5665  -36.5569  -12.0386 C   0  0  0  0  0  0  0  0  0  0  0  0
  -14.1467  -39.4456  -12.7365 O   0  0  0  0  0  0  0  0  0  0  0  0
  -14.5385  -40.3354  -11.8431 N   0  0  0  0  0  0  0  0  0  0  0  0
  2  1  1  1
  2  3  1  0
  3  4  1  0
  4  5  1  0
  5  6  1  0
  6  7  1  0
  7  8  1  0
  8  9  1  0
  9 10  1  0
 10 11  1  0
 11 12  1  0
 12 13  2  0
 13 14  1  0
 14 15  2  0
 15 16  1  0
 13 17  1  0
 17 18  2  0
 17 19  1  0
 19 20  1  0
 20 21  1  1
 20 22  1  0
 22 23  1  6
 22 24  1  0
 24 25  1  0
 25 26  1  0
 26 27  1  0
 26 28  1  0
 26 29  1  0
 29 30  1  0
 30 31  2  0
 31 32  1  0
 32 33  1  0
 33 34  1  0
 33 35  1  0
 33 36  1  0
 31 37  1  0
 37 38  1  0
 16 11  2  0
 21  2  1  0
 38 29  2  0
M  END
$$$$
