
     RDKit          3D

 38 40  0  0  0  0  0  0  0  0999 V2000
  -19.9271  -38.2494   -5.1978 C   0  0  0  0  0  0  0  0  0  0  0  0
  -19.4707  -38.9205   -6.4847 C   0  0  2  0  0  0  0  0  0  0  0  0
  -20.5717  -39.6659   -7.1715 C   0  0  0  0  0  0  0  0  0  0  0  0
  -21.9390  -39.1736   -6.8029 C   0  0  0  0  0  0  0  0  0  0  0  0
  -22.9631  -40.0661   -7.4460 C   0  0  0  0  0  0  0  0  0  0  0  0
  -24.0405  -40.4323   -6.4457 C   0  0  0  0  0  0  0  0  0  0  0  0
  -24.0641  -41.9218   -6.3139 C   0  0  0  0  0  0  0  0  0  0  0  0
  -22.9520  -42.3879   -5.4366 C   0  0  0  0  0  0  0  0  0  0  0  0
  -22.8886  -43.8929   -5.3550 C   0  0  0  0  0  0  0  0  0  0  0  0
  -22.1951  -44.4972   -6.4680 N   0  0  0  0  0  0  0  0  0  0  0  0
  -21.0662  -44.0899   -7.2430 C   0  0  0  0  0  0  0  0  0  0  0  0
  -19.8511  -43.5465   -6.8853 C   0  0  0  0  0  0  0  0  0  0  0  0
  -18.9343  -43.2571   -7.8749 C   0  0  0  0  0  0  0  0  0  0  0  0
  -19.2639  -43.5265   -9.2295 C   0  0  0  0  0  0  0  0  0  0  0  0
  -20.4567  -44.0646   -9.6249 C   0  0  0  0  0  0  0  0  0  0  0  0
  -21.3360  -44.3358   -8.6164 C   0  0  0  0  0  0  0  0  0  0  0  0
  -17.5805  -42.6960   -7.8211 C   0  0  0  0  0  0  0  0  0  0  0  0
  -16.6368  -43.2847   -8.5541 O   0  0  0  0  0  0  0  0  0  0  0  0
  -17.0302  -41.5940   -7.1139 N   0  0  0  0  0  0  0  0  0  0  0  0
  -17.4188  -40.2143   -7.1763 C   0  0  1  0  0  0  0  0  0  0  0  0
  -18.3328  -39.8486   -6.0663 C   0  0  0  0  0  0  0  0  0  0  0  0
  -16.0938  -39.4185   -7.1665 C   0  0  2  0  0  0  0  0  0  0  0  0
  -16.1522  -38.3872   -8.0962 O   0  0  0  0  0  0  0  0  0  0  0  0
  -14.9391  -40.2836   -7.5031 C   0  0  0  0  0  0  0  0  0  0  0  0
  -13.8229  -39.7258   -8.1319 N   0  0  0  0  0  0  0  0  0  0  0  0
  -13.2658  -40.2860   -9.2968 C   0  0  0  0  0  0  0  0  0  0  0  0
  -11.7859  -40.5077   -9.1656 C   0  0  0  0  0  0  0  0  0  0  0  0
  -13.8822  -41.6414   -9.6445 C   0  0  0  0  0  0  0  0  0  0  0  0
  -13.4965  -39.4109  -10.5009 C   0  0  0  0  0  0  0  0  0  0  0  0
  -13.0330  -38.1309  -10.6078 C   0  0  0  0  0  0  0  0  0  0  0  0
  -13.4241  -37.6394  -11.8388 C   0  0  0  0  0  0  0  0  0  0  0  0
  -13.1101  -36.2770  -12.3289 C   0  0  0  0  0  0  0  0  0  0  0  0
  -12.1502  -36.2712  -13.4726 C   0  0  0  0  0  0  0  0  0  0  0  0
  -12.6901  -37.1268  -14.5996 C   0  0  0  0  0  0  0  0  0  0  0  0
  -11.9162  -34.8871  -14.0416 C   0  0  0  0  0  0  0  0  0  0  0  0
  -10.8218  -36.8729  -13.0195 C   0  0  0  0  0  0  0  0  0  0  0  0
  -14.0809  -38.5935  -12.4109 O   0  0  0  0  0  0  0  0  0  0  0  0
  -14.1401  -39.6612  -11.6366 N   0  0  0  0  0  0  0  0  0  0  0  0
  2  1  1  1
  2  3  1  0
  3  4  1  0
  4  5  1  0
  5  6  1  0
  6  7  1  0
  7  8  1  0
  8  9  1  0
  9 10  1  0
 10 11  1  0
 11 12  1  0
 12 13  2  0
 13 14  1  0
 14 15  2  0
 15 16  1  0
 13 17  1  0
 17 18  2  0
 17 19  1  0
 19 20  1  0
 20 21  1  1
 20 22  1  0
 22 23  1  6
 22 24  1  0
 24 25  1  0
 25 26  1  0
 26 27  1  0
 26 28  1  0
 26 29  1  0
 29 30  1  0
 30 31  2  0
 31 32  1  0
 32 33  1  0
 33 34  1  0
 33 35  1  0
 33 36  1  0
 31 37  1  0
 37 38  1  0
 16 11  2  0
 21  2  1  0
 38 29  2  0
M  END
$$$$
