
     RDKit          3D

 38 40  0  0  0  0  0  0  0  0999 V2000
  -19.5893  -38.4358   -4.7911 C   0  0  0  0  0  0  0  0  0  0  0  0
  -19.2700  -39.0249   -6.1570 C   0  0  2  0  0  0  0  0  0  0  0  0
  -20.3260  -39.9675   -6.6427 C   0  0  0  0  0  0  0  0  0  0  0  0
  -21.6652  -39.7317   -6.0115 C   0  0  0  0  0  0  0  0  0  0  0  0
  -22.6118  -40.8042   -6.4725 C   0  0  0  0  0  0  0  0  0  0  0  0
  -23.3948  -41.3520   -5.2968 C   0  0  0  0  0  0  0  0  0  0  0  0
  -23.1203  -42.8189   -5.1998 C   0  0  0  0  0  0  0  0  0  0  0  0
  -21.7962  -43.0630   -4.5590 C   0  0  0  0  0  0  0  0  0  0  0  0
  -21.4444  -44.5296   -4.5280 C   0  0  0  0  0  0  0  0  0  0  0  0
  -20.8756  -45.0075   -5.7661 N   0  0  0  0  0  0  0  0  0  0  0  0
  -20.0078  -44.4074   -6.7293 C   0  0  0  0  0  0  0  0  0  0  0  0
  -18.8672  -43.6458   -6.5931 C   0  0  0  0  0  0  0  0  0  0  0  0
  -18.2229  -43.2030   -7.7300 C   0  0  0  0  0  0  0  0  0  0  0  0
  -18.7482  -43.5428   -9.0047 C   0  0  0  0  0  0  0  0  0  0  0  0
  -19.8754  -44.2954   -9.1819 C   0  0  0  0  0  0  0  0  0  0  0  0
  -20.4832  -44.7133   -8.0331 C   0  0  0  0  0  0  0  0  0  0  0  0
  -17.0092  -42.4016   -7.9179 C   0  0  0  0  0  0  0  0  0  0  0  0
  -16.1300  -42.8141   -8.8296 O   0  0  0  0  0  0  0  0  0  0  0  0
  -16.5460  -41.2097   -7.2998 N   0  0  0  0  0  0  0  0  0  0  0  0
  -17.1849  -39.9260   -7.2538 C   0  0  1  0  0  0  0  0  0  0  0  0
  -17.9233  -39.7231   -5.9831 C   0  0  0  0  0  0  0  0  0  0  0  0
  -16.0503  -38.8997   -7.4738 C   0  0  2  0  0  0  0  0  0  0  0  0
  -16.5672  -37.6098   -7.4608 O   0  0  0  0  0  0  0  0  0  0  0  0
  -15.3685  -39.1147   -8.7714 C   0  0  0  0  0  0  0  0  0  0  0  0
  -14.3335  -40.0496   -8.8573 N   0  0  0  0  0  0  0  0  0  0  0  0
  -13.5531  -40.1933  -10.0198 C   0  0  0  0  0  0  0  0  0  0  0  0
  -12.0926  -39.9661   -9.7520 C   0  0  0  0  0  0  0  0  0  0  0  0
  -13.6736  -41.5882  -10.6344 C   0  0  0  0  0  0  0  0  0  0  0  0
  -13.9793  -39.2328  -11.0990 C   0  0  0  0  0  0  0  0  0  0  0  0
  -13.4937  -37.9622  -11.2181 C   0  0  0  0  0  0  0  0  0  0  0  0
  -14.0981  -37.3779  -12.3150 C   0  0  0  0  0  0  0  0  0  0  0  0
  -13.8307  -35.9950  -12.7742 C   0  0  0  0  0  0  0  0  0  0  0  0
  -12.8373  -35.9277  -13.8870 C   0  0  0  0  0  0  0  0  0  0  0  0
  -11.4896  -36.4198  -13.4019 C   0  0  0  0  0  0  0  0  0  0  0  0
  -13.2201  -36.7865  -15.0745 C   0  0  0  0  0  0  0  0  0  0  0  0
  -12.6759  -34.4760  -14.3324 C   0  0  0  0  0  0  0  0  0  0  0  0
  -14.8931  -38.2722  -12.8020 O   0  0  0  0  0  0  0  0  0  0  0  0
  -14.8430  -39.3876  -12.0974 N   0  0  0  0  0  0  0  0  0  0  0  0
  2  1  1  1
  2  3  1  0
  3  4  1  0
  4  5  1  0
  5  6  1  0
  6  7  1  0
  7  8  1  0
  8  9  1  0
  9 10  1  0
 10 11  1  0
 11 12  1  0
 12 13  2  0
 13 14  1  0
 14 15  2  0
 15 16  1  0
 13 17  1  0
 17 18  2  0
 17 19  1  0
 19 20  1  0
 20 21  1  1
 20 22  1  0
 22 23  1  6
 22 24  1  0
 24 25  1  0
 25 26  1  0
 26 27  1  0
 26 28  1  0
 26 29  1  0
 29 30  1  0
 30 31  2  0
 31 32  1  0
 32 33  1  0
 33 34  1  0
 33 35  1  0
 33 36  1  0
 31 37  1  0
 37 38  1  0
 16 11  2  0
 21  2  1  0
 38 29  2  0
M  END
$$$$
