
     RDKit          3D

 38 40  0  0  0  0  0  0  0  0999 V2000
  -12.9582  -35.5210  -10.2138 C   0  0  0  0  0  0  0  0  0  0  0  0
  -12.9670  -37.0032   -9.8709 C   0  0  2  0  0  0  0  0  0  0  0  0
  -12.1108  -37.8159  -10.7906 C   0  0  0  0  0  0  0  0  0  0  0  0
  -11.0369  -37.0138  -11.4620 C   0  0  0  0  0  0  0  0  0  0  0  0
  -10.3232  -37.8936  -12.4496 C   0  0  0  0  0  0  0  0  0  0  0  0
  -10.1432  -37.1648  -13.7657 C   0  0  0  0  0  0  0  0  0  0  0  0
  -10.8240  -37.9605  -14.8334 C   0  0  0  0  0  0  0  0  0  0  0  0
  -12.2975  -37.7348  -14.7961 C   0  0  0  0  0  0  0  0  0  0  0  0
  -13.0269  -38.5927  -15.7998 C   0  0  0  0  0  0  0  0  0  0  0  0
  -13.2727  -39.9365  -15.3321 N   0  0  0  0  0  0  0  0  0  0  0  0
  -13.5839  -40.4729  -14.0450 C   0  0  0  0  0  0  0  0  0  0  0  0
  -14.4534  -40.0573  -13.0597 C   0  0  0  0  0  0  0  0  0  0  0  0
  -14.5488  -40.7988  -11.9001 C   0  0  0  0  0  0  0  0  0  0  0  0
  -13.7538  -41.9662  -11.7531 C   0  0  0  0  0  0  0  0  0  0  0  0
  -12.8808  -42.4115  -12.7060 C   0  0  0  0  0  0  0  0  0  0  0  0
  -12.8155  -41.6500  -13.8373 C   0  0  0  0  0  0  0  0  0  0  0  0
  -15.3689  -40.6314  -10.6960 C   0  0  0  0  0  0  0  0  0  0  0  0
  -15.9837  -41.7090  -10.2110 O   0  0  0  0  0  0  0  0  0  0  0  0
  -15.6628  -39.4996   -9.8898 N   0  0  0  0  0  0  0  0  0  0  0  0
  -14.7481  -38.6511   -9.1816 C   0  0  1  0  0  0  0  0  0  0  0  0
  -14.4342  -37.4193   -9.9467 C   0  0  0  0  0  0  0  0  0  0  0  0
  -15.4247  -38.3713   -7.8204 C   0  0  2  0  0  0  0  0  0  0  0  0
  -14.5655  -38.7140   -6.7833 O   0  0  0  0  0  0  0  0  0  0  0  0
  -16.6749  -39.1511   -7.6657 C   0  0  0  0  0  0  0  0  0  0  0  0
  -17.8482  -38.4987   -7.2781 N   0  0  0  0  0  0  0  0  0  0  0  0
  -19.0945  -38.7971   -7.8604 C   0  0  0  0  0  0  0  0  0  0  0  0
  -19.6643  -37.6253   -8.6078 C   0  0  0  0  0  0  0  0  0  0  0  0
  -19.0105  -39.9532   -8.8576 C   0  0  0  0  0  0  0  0  0  0  0  0
  -20.1049  -39.2210   -6.8270 C   0  0  0  0  0  0  0  0  0  0  0  0
  -20.4198  -40.5235   -6.5642 C   0  0  0  0  0  0  0  0  0  0  0  0
  -21.3718  -40.5362   -5.5624 C   0  0  0  0  0  0  0  0  0  0  0  0
  -21.9692  -41.7686   -4.9976 C   0  0  0  0  0  0  0  0  0  0  0  0
  -23.4518  -41.6841   -4.8414 C   0  0  0  0  0  0  0  0  0  0  0  0
  -24.0418  -40.8744   -5.9772 C   0  0  0  0  0  0  0  0  0  0  0  0
  -24.1277  -43.0393   -4.8671 C   0  0  0  0  0  0  0  0  0  0  0  0
  -23.7814  -40.9691   -3.5329 C   0  0  0  0  0  0  0  0  0  0  0  0
  -21.5921  -39.2985   -5.2648 O   0  0  0  0  0  0  0  0  0  0  0  0
  -20.8511  -38.4926   -6.0028 N   0  0  0  0  0  0  0  0  0  0  0  0
  2  1  1  6
  2  3  1  0
  3  4  1  0
  4  5  1  0
  5  6  1  0
  6  7  1  0
  7  8  1  0
  8  9  1  0
  9 10  1  0
 10 11  1  0
 11 12  1  0
 12 13  2  0
 13 14  1  0
 14 15  2  0
 15 16  1  0
 13 17  1  0
 17 18  2  0
 17 19  1  0
 19 20  1  0
 20 21  1  6
 20 22  1  0
 22 23  1  1
 22 24  1  0
 24 25  1  0
 25 26  1  0
 26 27  1  0
 26 28  1  0
 26 29  1  0
 29 30  1  0
 30 31  2  0
 31 32  1  0
 32 33  1  0
 33 34  1  0
 33 35  1  0
 33 36  1  0
 31 37  1  0
 37 38  1  0
 16 11  2  0
 21  2  1  0
 38 29  2  0
M  END
$$$$
