
     RDKit          3D

 38 40  0  0  0  0  0  0  0  0999 V2000
  -21.6487  -37.8501   -8.9320 C   0  0  0  0  0  0  0  0  0  0  0  0
  -20.8506  -39.0190   -9.4898 C   0  0  2  0  0  0  0  0  0  0  0  0
  -21.6052  -40.3105   -9.4434 C   0  0  0  0  0  0  0  0  0  0  0  0
  -23.0922  -40.1255   -9.3975 C   0  0  0  0  0  0  0  0  0  0  0  0
  -23.7411  -41.4704   -9.2269 C   0  0  0  0  0  0  0  0  0  0  0  0
  -24.8170  -41.4014   -8.1624 C   0  0  0  0  0  0  0  0  0  0  0  0
  -24.4664  -42.3772   -7.0847 C   0  0  0  0  0  0  0  0  0  0  0  0
  -23.4100  -41.8169   -6.1939 C   0  0  0  0  0  0  0  0  0  0  0  0
  -22.9651  -42.8104   -5.1495 C   0  0  0  0  0  0  0  0  0  0  0  0
  -21.9835  -43.7509   -5.6364 N   0  0  0  0  0  0  0  0  0  0  0  0
  -20.9018  -43.6308   -6.5619 C   0  0  0  0  0  0  0  0  0  0  0  0
  -19.9377  -42.6605   -6.7309 C   0  0  0  0  0  0  0  0  0  0  0  0
  -18.9962  -42.8240   -7.7262 C   0  0  0  0  0  0  0  0  0  0  0  0
  -19.0438  -43.9826   -8.5457 C   0  0  0  0  0  0  0  0  0  0  0  0
  -19.9826  -44.9668   -8.4100 C   0  0  0  0  0  0  0  0  0  0  0  0
  -20.8958  -44.7672   -7.4150 C   0  0  0  0  0  0  0  0  0  0  0  0
  -17.8604  -41.9961   -8.1446 C   0  0  0  0  0  0  0  0  0  0  0  0
  -16.6993  -42.6078   -8.3727 O   0  0  0  0  0  0  0  0  0  0  0  0
  -17.7280  -40.6005   -8.3727 N   0  0  0  0  0  0  0  0  0  0  0  0
  -18.4528  -39.7784   -9.2985 C   0  0  1  0  0  0  0  0  0  0  0  0
  -19.5814  -39.0732   -8.6427 C   0  0  0  0  0  0  0  0  0  0  0  0
  -17.3999  -38.8213   -9.9021 C   0  0  2  0  0  0  0  0  0  0  0  0
  -18.0308  -37.7368  -10.4997 O   0  0  0  0  0  0  0  0  0  0  0  0
  -16.5730  -39.5009  -10.9264 C   0  0  0  0  0  0  0  0  0  0  0  0
  -15.7163  -40.5358  -10.5421 N   0  0  0  0  0  0  0  0  0  0  0  0
  -14.3163  -40.4122  -10.6191 C   0  0  0  0  0  0  0  0  0  0  0  0
  -13.6706  -41.6432  -11.1884 C   0  0  0  0  0  0  0  0  0  0  0  0
  -13.8818  -39.2419  -11.5020 C   0  0  0  0  0  0  0  0  0  0  0  0
  -13.7048  -40.1535   -9.2671 C   0  0  0  0  0  0  0  0  0  0  0  0
  -14.4207  -40.1216   -8.1048 C   0  0  0  0  0  0  0  0  0  0  0  0
  -13.5401  -39.8663   -7.0707 C   0  0  0  0  0  0  0  0  0  0  0  0
  -13.9370  -39.7561   -5.6477 C   0  0  0  0  0  0  0  0  0  0  0  0
  -14.0734  -38.3433   -5.1840 C   0  0  0  0  0  0  0  0  0  0  0  0
  -14.1553  -37.4168   -6.3792 C   0  0  0  0  0  0  0  0  0  0  0  0
  -15.3211  -38.1098   -4.3576 C   0  0  0  0  0  0  0  0  0  0  0  0
  -12.8388  -37.9570   -4.3726 C   0  0  0  0  0  0  0  0  0  0  0  0
  -12.3736  -39.7572   -7.6152 O   0  0  0  0  0  0  0  0  0  0  0  0
  -12.4417  -39.9235   -8.9232 N   0  0  0  0  0  0  0  0  0  0  0  0
  2  1  1  1
  2  3  1  0
  3  4  1  0
  4  5  1  0
  5  6  1  0
  6  7  1  0
  7  8  1  0
  8  9  1  0
  9 10  1  0
 10 11  1  0
 11 12  1  0
 12 13  2  0
 13 14  1  0
 14 15  2  0
 15 16  1  0
 13 17  1  0
 17 18  2  0
 17 19  1  0
 19 20  1  0
 20 21  1  1
 20 22  1  0
 22 23  1  6
 22 24  1  0
 24 25  1  0
 25 26  1  0
 26 27  1  0
 26 28  1  0
 26 29  1  0
 29 30  1  0
 30 31  2  0
 31 32  1  0
 32 33  1  0
 33 34  1  0
 33 35  1  0
 33 36  1  0
 31 37  1  0
 37 38  1  0
 16 11  2  0
 21  2  1  0
 38 29  2  0
M  END
$$$$
