
     RDKit          3D

 38 40  0  0  0  0  0  0  0  0999 V2000
  -19.4742  -38.2921   -5.3329 C   0  0  0  0  0  0  0  0  0  0  0  0
  -19.1580  -38.9395   -6.6729 C   0  0  2  0  0  0  0  0  0  0  0  0
  -20.3680  -39.5173   -7.3373 C   0  0  0  0  0  0  0  0  0  0  0  0
  -21.6509  -38.8945   -6.8747 C   0  0  0  0  0  0  0  0  0  0  0  0
  -22.7997  -39.6293   -7.5068 C   0  0  0  0  0  0  0  0  0  0  0  0
  -23.8651  -39.9253   -6.4711 C   0  0  0  0  0  0  0  0  0  0  0  0
  -24.0545  -41.4076   -6.4110 C   0  0  0  0  0  0  0  0  0  0  0  0
  -22.9647  -42.0434   -5.6163 C   0  0  0  0  0  0  0  0  0  0  0  0
  -23.0718  -43.5480   -5.6115 C   0  0  0  0  0  0  0  0  0  0  0  0
  -22.5045  -44.1654   -6.7871 N   0  0  0  0  0  0  0  0  0  0  0  0
  -21.3728  -43.8467   -7.5988 C   0  0  0  0  0  0  0  0  0  0  0  0
  -20.0881  -43.4643   -7.2784 C   0  0  0  0  0  0  0  0  0  0  0  0
  -19.1903  -43.2269   -8.2989 C   0  0  0  0  0  0  0  0  0  0  0  0
  -19.6106  -43.3833   -9.6461 C   0  0  0  0  0  0  0  0  0  0  0  0
  -20.8744  -43.7609  -10.0049 C   0  0  0  0  0  0  0  0  0  0  0  0
  -21.7320  -43.9855   -8.9667 C   0  0  0  0  0  0  0  0  0  0  0  0
  -17.7797  -42.8261   -8.2879 C   0  0  0  0  0  0  0  0  0  0  0  0
  -16.9449  -43.4769   -9.0966 O   0  0  0  0  0  0  0  0  0  0  0  0
  -17.0740  -41.8334   -7.5573 N   0  0  0  0  0  0  0  0  0  0  0  0
  -17.3031  -40.4173   -7.5320 C   0  0  1  0  0  0  0  0  0  0  0  0
  -18.1169  -40.0116   -6.3597 C   0  0  0  0  0  0  0  0  0  0  0  0
  -15.8960  -39.7780   -7.5522 C   0  0  2  0  0  0  0  0  0  0  0  0
  -15.9389  -38.5167   -6.9704 O   0  0  0  0  0  0  0  0  0  0  0  0
  -15.3849  -39.6353   -8.9353 C   0  0  0  0  0  0  0  0  0  0  0  0
  -14.8555  -40.7501   -9.5908 N   0  0  0  0  0  0  0  0  0  0  0  0
  -13.5619  -40.7442  -10.1455 C   0  0  0  0  0  0  0  0  0  0  0  0
  -12.5312  -41.2590   -9.1817 C   0  0  0  0  0  0  0  0  0  0  0  0
  -13.4611  -41.6133  -11.3995 C   0  0  0  0  0  0  0  0  0  0  0  0
  -13.1450  -39.3611  -10.5720 C   0  0  0  0  0  0  0  0  0  0  0  0
  -13.9449  -38.5140  -11.2840 C   0  0  0  0  0  0  0  0  0  0  0  0
  -13.2437  -37.3411  -11.4903 C   0  0  0  0  0  0  0  0  0  0  0  0
  -13.7768  -36.1712  -12.2266 C   0  0  0  0  0  0  0  0  0  0  0  0
  -12.7172  -35.3848  -12.9255 C   0  0  0  0  0  0  0  0  0  0  0  0
  -11.7388  -34.8285  -11.9120 C   0  0  0  0  0  0  0  0  0  0  0  0
  -11.9141  -36.2146  -13.9057 C   0  0  0  0  0  0  0  0  0  0  0  0
  -13.3607  -34.2071  -13.6541 C   0  0  0  0  0  0  0  0  0  0  0  0
  -12.0953  -37.5082  -10.9226 O   0  0  0  0  0  0  0  0  0  0  0  0
  -12.0085  -38.7030  -10.3675 N   0  0  0  0  0  0  0  0  0  0  0  0
  2  1  1  1
  2  3  1  0
  3  4  1  0
  4  5  1  0
  5  6  1  0
  6  7  1  0
  7  8  1  0
  8  9  1  0
  9 10  1  0
 10 11  1  0
 11 12  1  0
 12 13  2  0
 13 14  1  0
 14 15  2  0
 15 16  1  0
 13 17  1  0
 17 18  2  0
 17 19  1  0
 19 20  1  0
 20 21  1  1
 20 22  1  0
 22 23  1  6
 22 24  1  0
 24 25  1  0
 25 26  1  0
 26 27  1  0
 26 28  1  0
 26 29  1  0
 29 30  1  0
 30 31  2  0
 31 32  1  0
 32 33  1  0
 33 34  1  0
 33 35  1  0
 33 36  1  0
 31 37  1  0
 37 38  1  0
 16 11  2  0
 21  2  1  0
 38 29  2  0
M  END
$$$$
