
     RDKit          3D

 38 40  0  0  0  0  0  0  0  0999 V2000
  -20.1751  -38.9981   -4.7139 C   0  0  0  0  0  0  0  0  0  0  0  0
  -19.8009  -39.4021   -6.1321 C   0  0  2  0  0  0  0  0  0  0  0  0
  -20.8989  -40.1379   -6.8338 C   0  0  0  0  0  0  0  0  0  0  0  0
  -22.2572  -39.8567   -6.2649 C   0  0  0  0  0  0  0  0  0  0  0  0
  -23.2614  -40.7360   -6.9558 C   0  0  0  0  0  0  0  0  0  0  0  0
  -24.1901  -41.3688   -5.9396 C   0  0  0  0  0  0  0  0  0  0  0  0
  -24.0686  -42.8543   -6.0620 C   0  0  0  0  0  0  0  0  0  0  0  0
  -22.8330  -43.3369   -5.3809 C   0  0  0  0  0  0  0  0  0  0  0  0
  -22.6293  -44.8205   -5.5630 C   0  0  0  0  0  0  0  0  0  0  0  0
  -22.0076  -45.1622   -6.8207 N   0  0  0  0  0  0  0  0  0  0  0  0
  -21.0076  -44.5199   -7.6136 C   0  0  0  0  0  0  0  0  0  0  0  0
  -19.8139  -43.9175   -7.2795 C   0  0  0  0  0  0  0  0  0  0  0  0
  -19.0364  -43.3785   -8.2838 C   0  0  0  0  0  0  0  0  0  0  0  0
  -19.4832  -43.4594   -9.6292 C   0  0  0  0  0  0  0  0  0  0  0  0
  -20.6593  -44.0482  -10.0013 C   0  0  0  0  0  0  0  0  0  0  0  0
  -21.3992  -44.5684   -8.9787 C   0  0  0  0  0  0  0  0  0  0  0  0
  -17.7391  -42.6953   -8.2574 C   0  0  0  0  0  0  0  0  0  0  0  0
  -16.8306  -43.0567   -9.1621 O   0  0  0  0  0  0  0  0  0  0  0  0
  -17.2157  -41.6701   -7.4253 N   0  0  0  0  0  0  0  0  0  0  0  0
  -17.7285  -40.3466   -7.2162 C   0  0  1  0  0  0  0  0  0  0  0  0
  -18.5479  -40.2616   -5.9823 C   0  0  0  0  0  0  0  0  0  0  0  0
  -16.4850  -39.4289   -7.1905 C   0  0  2  0  0  0  0  0  0  0  0  0
  -16.8774  -38.0999   -7.0863 O   0  0  0  0  0  0  0  0  0  0  0  0
  -15.6742  -39.5795   -8.4213 C   0  0  0  0  0  0  0  0  0  0  0  0
  -14.4737  -40.2927   -8.3703 N   0  0  0  0  0  0  0  0  0  0  0  0
  -13.6483  -40.4449   -9.5003 C   0  0  0  0  0  0  0  0  0  0  0  0
  -12.3830  -41.1885   -9.1801 C   0  0  0  0  0  0  0  0  0  0  0  0
  -14.3371  -41.2175  -10.6258 C   0  0  0  0  0  0  0  0  0  0  0  0
  -13.2644  -39.1145  -10.0930 C   0  0  0  0  0  0  0  0  0  0  0  0
  -13.3327  -38.8307  -11.4269 C   0  0  0  0  0  0  0  0  0  0  0  0
  -12.9125  -37.5262  -11.6054 C   0  0  0  0  0  0  0  0  0  0  0  0
  -12.8447  -36.8462  -12.9198 C   0  0  0  0  0  0  0  0  0  0  0  0
  -12.8748  -35.3571  -12.8126 C   0  0  0  0  0  0  0  0  0  0  0  0
  -14.1680  -34.9159  -12.1596 C   0  0  0  0  0  0  0  0  0  0  0  0
  -11.7435  -34.8015  -11.9726 C   0  0  0  0  0  0  0  0  0  0  0  0
  -12.8231  -34.7493  -14.2126 C   0  0  0  0  0  0  0  0  0  0  0  0
  -12.6173  -37.0830  -10.4283 O   0  0  0  0  0  0  0  0  0  0  0  0
  -12.8172  -38.0081   -9.5077 N   0  0  0  0  0  0  0  0  0  0  0  0
  2  1  1  1
  2  3  1  0
  3  4  1  0
  4  5  1  0
  5  6  1  0
  6  7  1  0
  7  8  1  0
  8  9  1  0
  9 10  1  0
 10 11  1  0
 11 12  1  0
 12 13  2  0
 13 14  1  0
 14 15  2  0
 15 16  1  0
 13 17  1  0
 17 18  2  0
 17 19  1  0
 19 20  1  0
 20 21  1  1
 20 22  1  0
 22 23  1  6
 22 24  1  0
 24 25  1  0
 25 26  1  0
 26 27  1  0
 26 28  1  0
 26 29  1  0
 29 30  1  0
 30 31  2  0
 31 32  1  0
 32 33  1  0
 33 34  1  0
 33 35  1  0
 33 36  1  0
 31 37  1  0
 37 38  1  0
 16 11  2  0
 21  2  1  0
 38 29  2  0
M  END
$$$$
