
     RDKit          3D

 38 40  0  0  0  0  0  0  0  0999 V2000
  -20.3761  -37.6543   -6.4720 C   0  0  0  0  0  0  0  0  0  0  0  0
  -20.2505  -38.8832   -7.3600 C   0  0  2  0  0  0  0  0  0  0  0  0
  -21.2362  -39.9537   -7.0109 C   0  0  0  0  0  0  0  0  0  0  0  0
  -22.4454  -39.4332   -6.2935 C   0  0  0  0  0  0  0  0  0  0  0  0
  -23.3017  -40.5980   -5.8828 C   0  0  0  0  0  0  0  0  0  0  0  0
  -23.7531  -40.4350   -4.4457 C   0  0  0  0  0  0  0  0  0  0  0  0
  -23.2592  -41.6131   -3.6680 C   0  0  0  0  0  0  0  0  0  0  0  0
  -21.8141  -41.4537   -3.3365 C   0  0  0  0  0  0  0  0  0  0  0  0
  -21.2583  -42.6661   -2.6316 C   0  0  0  0  0  0  0  0  0  0  0  0
  -20.8813  -43.7290   -3.5334 N   0  0  0  0  0  0  0  0  0  0  0  0
  -20.3134  -43.7320   -4.8443 C   0  0  0  0  0  0  0  0  0  0  0  0
  -19.2883  -43.0015   -5.4056 C   0  0  0  0  0  0  0  0  0  0  0  0
  -18.9491  -43.2338   -6.7227 C   0  0  0  0  0  0  0  0  0  0  0  0
  -19.6604  -44.2156   -7.4618 C   0  0  0  0  0  0  0  0  0  0  0  0
  -20.6818  -44.9606   -6.9419 C   0  0  0  0  0  0  0  0  0  0  0  0
  -20.9868  -44.7002   -5.6370 C   0  0  0  0  0  0  0  0  0  0  0  0
  -17.9223  -42.6438   -7.5876 C   0  0  0  0  0  0  0  0  0  0  0  0
  -17.1894  -43.4709   -8.3313 O   0  0  0  0  0  0  0  0  0  0  0  0
  -17.5210  -41.3004   -7.8150 N   0  0  0  0  0  0  0  0  0  0  0  0
  -18.3144  -40.2044   -8.2921 C   0  0  1  0  0  0  0  0  0  0  0  0
  -18.8105  -39.3578   -7.1793 C   0  0  0  0  0  0  0  0  0  0  0  0
  -17.4025  -39.4436   -9.2814 C   0  0  2  0  0  0  0  0  0  0  0  0
  -18.0006  -39.3913  -10.5348 O   0  0  0  0  0  0  0  0  0  0  0  0
  -16.0842  -40.1048   -9.4221 C   0  0  0  0  0  0  0  0  0  0  0  0
  -15.0606  -39.7951   -8.5228 N   0  0  0  0  0  0  0  0  0  0  0  0
  -13.7473  -39.5258   -8.9517 C   0  0  0  0  0  0  0  0  0  0  0  0
  -12.7819  -39.4504   -7.8035 C   0  0  0  0  0  0  0  0  0  0  0  0
  -13.2132  -40.5972   -9.9029 C   0  0  0  0  0  0  0  0  0  0  0  0
  -13.6645  -38.2273   -9.7105 C   0  0  0  0  0  0  0  0  0  0  0  0
  -13.0165  -38.0867  -10.9042 C   0  0  0  0  0  0  0  0  0  0  0  0
  -13.1498  -36.7715  -11.3072 C   0  0  0  0  0  0  0  0  0  0  0  0
  -12.5812  -36.2235  -12.5607 C   0  0  0  0  0  0  0  0  0  0  0  0
  -11.6488  -35.0798  -12.3316 C   0  0  0  0  0  0  0  0  0  0  0  0
  -12.4032  -33.9177  -11.7199 C   0  0  0  0  0  0  0  0  0  0  0  0
  -10.5171  -35.4198  -11.3841 C   0  0  0  0  0  0  0  0  0  0  0  0
  -11.0780  -34.6181  -13.6706 C   0  0  0  0  0  0  0  0  0  0  0  0
  -13.8422  -36.1856  -10.3872 O   0  0  0  0  0  0  0  0  0  0  0  0
  -14.1626  -37.0289   -9.4232 N   0  0  0  0  0  0  0  0  0  0  0  0
  2  1  1  1
  2  3  1  0
  3  4  1  0
  4  5  1  0
  5  6  1  0
  6  7  1  0
  7  8  1  0
  8  9  1  0
  9 10  1  0
 10 11  1  0
 11 12  1  0
 12 13  2  0
 13 14  1  0
 14 15  2  0
 15 16  1  0
 13 17  1  0
 17 18  2  0
 17 19  1  0
 19 20  1  0
 20 21  1  1
 20 22  1  0
 22 23  1  6
 22 24  1  0
 24 25  1  0
 25 26  1  0
 26 27  1  0
 26 28  1  0
 26 29  1  0
 29 30  1  0
 30 31  2  0
 31 32  1  0
 32 33  1  0
 33 34  1  0
 33 35  1  0
 33 36  1  0
 31 37  1  0
 37 38  1  0
 16 11  2  0
 21  2  1  0
 38 29  2  0
M  END
$$$$
