
     RDKit          3D

 38 40  0  0  0  0  0  0  0  0999 V2000
  -19.9164  -38.8436   -5.1609 C   0  0  0  0  0  0  0  0  0  0  0  0
  -19.4948  -39.3283   -6.5399 C   0  0  2  0  0  0  0  0  0  0  0  0
  -20.4049  -40.3828   -7.0868 C   0  0  0  0  0  0  0  0  0  0  0  0
  -21.7755  -40.3541   -6.4800 C   0  0  0  0  0  0  0  0  0  0  0  0
  -22.5603  -41.5237   -7.0044 C   0  0  0  0  0  0  0  0  0  0  0  0
  -23.2848  -42.2189   -5.8699 C   0  0  0  0  0  0  0  0  0  0  0  0
  -22.8175  -43.6387   -5.8220 C   0  0  0  0  0  0  0  0  0  0  0  0
  -21.4850  -43.7297   -5.1588 C   0  0  0  0  0  0  0  0  0  0  0  0
  -20.9399  -45.1362   -5.1749 C   0  0  0  0  0  0  0  0  0  0  0  0
  -20.2884  -45.4827   -6.4161 N   0  0  0  0  0  0  0  0  0  0  0  0
  -19.4909  -44.7331   -7.3343 C   0  0  0  0  0  0  0  0  0  0  0  0
  -18.4659  -43.8322   -7.1414 C   0  0  0  0  0  0  0  0  0  0  0  0
  -17.8654  -43.2610   -8.2446 C   0  0  0  0  0  0  0  0  0  0  0  0
  -18.3158  -43.6155   -9.5437 C   0  0  0  0  0  0  0  0  0  0  0  0
  -19.3279  -44.5041   -9.7769 C   0  0  0  0  0  0  0  0  0  0  0  0
  -19.8958  -45.0461   -8.6599 C   0  0  0  0  0  0  0  0  0  0  0  0
  -16.7672  -42.2976   -8.3721 C   0  0  0  0  0  0  0  0  0  0  0  0
  -15.8232  -42.5513   -9.2771 O   0  0  0  0  0  0  0  0  0  0  0  0
  -16.4803  -41.0808   -7.6980 N   0  0  0  0  0  0  0  0  0  0  0  0
  -17.2868  -39.8970   -7.6189 C   0  0  1  0  0  0  0  0  0  0  0  0
  -18.0700  -39.8468   -6.3598 C   0  0  0  0  0  0  0  0  0  0  0  0
  -16.2965  -38.7201   -7.7719 C   0  0  2  0  0  0  0  0  0  0  0  0
  -16.0438  -38.1475   -6.5312 O   0  0  0  0  0  0  0  0  0  0  0  0
  -16.8356  -37.6705   -8.6677 C   0  0  0  0  0  0  0  0  0  0  0  0
  -16.5510  -37.7212  -10.0349 N   0  0  0  0  0  0  0  0  0  0  0  0
  -15.3785  -37.1589  -10.5737 C   0  0  0  0  0  0  0  0  0  0  0  0
  -15.5818  -35.7351  -11.0070 C   0  0  0  0  0  0  0  0  0  0  0  0
  -14.2223  -37.1510   -9.5731 C   0  0  0  0  0  0  0  0  0  0  0  0
  -14.8836  -37.9376  -11.7643 C   0  0  0  0  0  0  0  0  0  0  0  0
  -13.5953  -37.8963  -12.2149 C   0  0  0  0  0  0  0  0  0  0  0  0
  -13.5022  -38.7320  -13.3117 C   0  0  0  0  0  0  0  0  0  0  0  0
  -12.2576  -38.9575  -14.0829 C   0  0  0  0  0  0  0  0  0  0  0  0
  -11.7733  -37.7331  -14.7871 C   0  0  0  0  0  0  0  0  0  0  0  0
  -11.3721  -36.6827  -13.7724 C   0  0  0  0  0  0  0  0  0  0  0  0
  -10.5614  -37.9919  -15.6580 C   0  0  0  0  0  0  0  0  0  0  0  0
  -12.9047  -37.1589  -15.6368 C   0  0  0  0  0  0  0  0  0  0  0  0
  -14.6824  -39.2293  -13.4815 O   0  0  0  0  0  0  0  0  0  0  0  0
  -15.5259  -38.7733  -12.5739 N   0  0  0  0  0  0  0  0  0  0  0  0
  2  1  1  1
  2  3  1  0
  3  4  1  0
  4  5  1  0
  5  6  1  0
  6  7  1  0
  7  8  1  0
  8  9  1  0
  9 10  1  0
 10 11  1  0
 11 12  1  0
 12 13  2  0
 13 14  1  0
 14 15  2  0
 15 16  1  0
 13 17  1  0
 17 18  2  0
 17 19  1  0
 19 20  1  0
 20 21  1  1
 20 22  1  0
 22 23  1  1
 22 24  1  0
 24 25  1  0
 25 26  1  0
 26 27  1  0
 26 28  1  0
 26 29  1  0
 29 30  1  0
 30 31  2  0
 31 32  1  0
 32 33  1  0
 33 34  1  0
 33 35  1  0
 33 36  1  0
 31 37  1  0
 37 38  1  0
 16 11  2  0
 21  2  1  0
 38 29  2  0
M  END
$$$$
