
     RDKit          3D

 38 39  0  0  0  0  0  0  0  0999 V2000
  -21.2090  -37.0010   -6.0380 C   0  0  0  0  0  0  0  0  0  0  0  0
  -20.8246  -38.3955   -6.4841 C   0  0  2  0  0  0  0  0  0  0  0  0
  -21.7034  -39.4154   -5.8899 C   0  0  0  0  0  0  0  0  0  0  0  0
  -21.7797  -39.5112   -4.4211 C   0  0  0  0  0  0  0  0  0  0  0  0
  -21.8807  -40.9883   -4.0194 C   0  0  0  0  0  0  0  0  0  0  0  0
  -23.2524  -41.5455   -4.1491 C   0  0  0  0  0  0  0  0  0  0  0  0
  -23.5787  -42.1663   -5.4667 C   0  0  0  0  0  0  0  0  0  0  0  0
  -22.6620  -43.2786   -5.8880 C   0  0  0  0  0  0  0  0  0  0  0  0
  -22.4501  -43.2375   -7.4101 C   0  0  0  0  0  0  0  0  0  0  0  0
  -21.5864  -44.3324   -7.8786 C   0  0  0  0  0  0  0  0  0  0  0  0
  -20.3541  -43.9642   -8.5700 C   0  0  0  0  0  0  0  0  0  0  0  0
  -20.3749  -43.9410   -9.8326 O   0  0  0  0  0  0  0  0  0  0  0  0
  -19.1047  -43.6207   -7.9821 N   0  0  0  0  0  0  0  0  0  0  0  0
  -17.8163  -43.9224   -8.5783 C   0  0  0  0  0  0  0  0  0  0  0  0
  -19.0086  -42.9218   -6.7045 C   0  0  1  0  0  0  0  0  0  0  0  0
  -18.8406  -43.9354   -5.5636 C   0  0  0  0  0  0  0  0  0  0  0  0
  -17.8472  -42.0154   -6.6086 C   0  0  0  0  0  0  0  0  0  0  0  0
  -16.7007  -42.5224   -6.6752 O   0  0  0  0  0  0  0  0  0  0  0  0
  -17.9156  -40.6127   -6.4462 N   0  0  0  0  0  0  0  0  0  0  0  0
  -18.7888  -39.7148   -7.1663 C   0  0  1  0  0  0  0  0  0  0  0  0
  -19.3423  -38.5916   -6.3315 C   0  0  0  0  0  0  0  0  0  0  0  0
  -17.9236  -39.1949   -8.3352 C   0  0  2  0  0  0  0  0  0  0  0  0
  -18.5852  -39.4699   -9.5348 O   0  0  0  0  0  0  0  0  0  0  0  0
  -16.6017  -39.8820   -8.3599 C   0  0  0  0  0  0  0  0  0  0  0  0
  -15.5602  -39.3054   -9.1109 N   0  0  0  0  0  0  0  0  0  0  0  0
  -14.6525  -40.1437   -9.8062 C   0  0  0  0  0  0  0  0  0  0  0  0
  -15.3502  -41.0895  -10.7719 C   0  0  0  0  0  0  0  0  0  0  0  0
  -13.7382  -40.8898   -8.9113 C   0  0  0  0  0  0  0  0  0  0  0  0
  -13.8274  -39.2238  -10.6972 C   0  0  0  0  0  0  0  0  0  0  0  0
  -14.2244  -38.5378  -11.8149 C   0  0  0  0  0  0  0  0  0  0  0  0
  -13.1097  -37.8324  -12.2920 C   0  0  0  0  0  0  0  0  0  0  0  0
  -13.1214  -36.9611  -13.4951 C   0  0  0  0  0  0  0  0  0  0  0  0
  -11.7827  -36.3114  -13.7626 C   0  0  0  0  0  0  0  0  0  0  0  0
  -10.7364  -37.3657  -13.3768 C   0  0  0  0  0  0  0  0  0  0  0  0
  -11.5447  -35.1102  -12.9024 C   0  0  0  0  0  0  0  0  0  0  0  0
  -11.5538  -35.9592  -15.1953 C   0  0  0  0  0  0  0  0  0  0  0  0
  -12.1429  -38.1116  -11.4813 O   0  0  0  0  0  0  0  0  0  0  0  0
  -12.5170  -38.9237  -10.5309 N   0  0  0  0  0  0  0  0  0  0  0  0
  2  1  1  1
  2  3  1  0
  3  4  1  0
  4  5  1  0
  5  6  1  0
  6  7  1  0
  7  8  1  0
  8  9  1  0
  9 10  1  0
 10 11  1  0
 11 12  2  0
 11 13  1  0
 13 14  1  0
 13 15  1  0
 15 16  1  1
 15 17  1  0
 17 18  2  0
 17 19  1  0
 19 20  1  0
 20 21  1  1
 20 22  1  0
 22 23  1  6
 22 24  1  0
 24 25  1  0
 25 26  1  0
 26 27  1  0
 26 28  1  0
 26 29  1  0
 29 30  1  0
 30 31  2  0
 31 32  1  0
 32 33  1  0
 33 34  1  0
 33 35  1  0
 33 36  1  0
 31 37  1  0
 37 38  1  0
 21  2  1  0
 38 29  2  0
M  END
$$$$
