
     RDKit          3D

 38 39  0  0  0  0  0  0  0  0999 V2000
  -20.2211  -37.0358   -9.3274 C   0  0  0  0  0  0  0  0  0  0  0  0
  -20.0806  -38.4892   -8.9285 C   0  0  2  0  0  0  0  0  0  0  0  0
  -21.2636  -38.9659   -8.1944 C   0  0  0  0  0  0  0  0  0  0  0  0
  -21.6417  -38.2807   -6.9455 C   0  0  0  0  0  0  0  0  0  0  0  0
  -22.1471  -39.3198   -5.9364 C   0  0  0  0  0  0  0  0  0  0  0  0
  -23.5572  -39.7302   -6.1641 C   0  0  0  0  0  0  0  0  0  0  0  0
  -23.7537  -40.9085   -7.0591 C   0  0  0  0  0  0  0  0  0  0  0  0
  -23.0462  -42.1598   -6.6245 C   0  0  0  0  0  0  0  0  0  0  0  0
  -22.5405  -42.9321   -7.8538 C   0  0  0  0  0  0  0  0  0  0  0  0
  -21.8707  -44.1880   -7.4817 C   0  0  0  0  0  0  0  0  0  0  0  0
  -20.4774  -44.3496   -7.8879 C   0  0  0  0  0  0  0  0  0  0  0  0
  -20.2482  -44.9807   -8.9576 O   0  0  0  0  0  0  0  0  0  0  0  0
  -19.3205  -43.8723   -7.2108 N   0  0  0  0  0  0  0  0  0  0  0  0
  -18.0424  -44.5598   -7.2034 C   0  0  0  0  0  0  0  0  0  0  0  0
  -19.3188  -42.6263   -6.4509 C   0  0  1  0  0  0  0  0  0  0  0  0
  -19.6061  -42.9146   -4.9705 C   0  0  0  0  0  0  0  0  0  0  0  0
  -18.0247  -41.9162   -6.4764 C   0  0  0  0  0  0  0  0  0  0  0  0
  -17.0304  -42.4911   -5.9695 O   0  0  0  0  0  0  0  0  0  0  0  0
  -17.8067  -40.6326   -7.0272 N   0  0  0  0  0  0  0  0  0  0  0  0
  -18.3002  -40.1580   -8.2993 C   0  0  1  0  0  0  0  0  0  0  0  0
  -18.7382  -38.7182   -8.2926 C   0  0  0  0  0  0  0  0  0  0  0  0
  -17.1314  -40.4026   -9.2787 C   0  0  2  0  0  0  0  0  0  0  0  0
  -17.0919  -41.7635   -9.5932 O   0  0  0  0  0  0  0  0  0  0  0  0
  -15.8318  -40.0272   -8.6540 C   0  0  0  0  0  0  0  0  0  0  0  0
  -14.6480  -40.5627   -9.1955 N   0  0  0  0  0  0  0  0  0  0  0  0
  -13.4752  -39.7672   -9.2356 C   0  0  0  0  0  0  0  0  0  0  0  0
  -12.3974  -40.3567  -10.1325 C   0  0  0  0  0  0  0  0  0  0  0  0
  -12.9288  -39.4578   -7.8943 C   0  0  0  0  0  0  0  0  0  0  0  0
  -13.8730  -38.4642   -9.9177 C   0  0  0  0  0  0  0  0  0  0  0  0
  -13.3475  -37.2118   -9.7369 C   0  0  0  0  0  0  0  0  0  0  0  0
  -14.0452  -36.3379  -10.5839 C   0  0  0  0  0  0  0  0  0  0  0  0
  -13.7783  -34.8803  -10.6878 C   0  0  0  0  0  0  0  0  0  0  0  0
  -13.0328  -34.5084  -11.9495 C   0  0  0  0  0  0  0  0  0  0  0  0
  -11.6443  -35.1454  -11.8023 C   0  0  0  0  0  0  0  0  0  0  0  0
  -12.8345  -33.0314  -12.0856 C   0  0  0  0  0  0  0  0  0  0  0  0
  -13.6431  -35.0527  -13.1986 C   0  0  0  0  0  0  0  0  0  0  0  0
  -14.9135  -37.0670  -11.2038 O   0  0  0  0  0  0  0  0  0  0  0  0
  -14.8495  -38.3200  -10.8453 N   0  0  0  0  0  0  0  0  0  0  0  0
  2  1  1  1
  2  3  1  0
  3  4  1  0
  4  5  1  0
  5  6  1  0
  6  7  1  0
  7  8  1  0
  8  9  1  0
  9 10  1  0
 10 11  1  0
 11 12  2  0
 11 13  1  0
 13 14  1  0
 13 15  1  0
 15 16  1  1
 15 17  1  0
 17 18  2  0
 17 19  1  0
 19 20  1  0
 20 21  1  1
 20 22  1  0
 22 23  1  1
 22 24  1  0
 24 25  1  0
 25 26  1  0
 26 27  1  0
 26 28  1  0
 26 29  1  0
 29 30  1  0
 30 31  2  0
 31 32  1  0
 32 33  1  0
 33 34  1  0
 33 35  1  0
 33 36  1  0
 31 37  1  0
 37 38  1  0
 21  2  1  0
 38 29  2  0
M  END
$$$$
