
     RDKit          3D

 38 39  0  0  0  0  0  0  0  0999 V2000
  -19.6546  -37.1270   -8.7195 C   0  0  0  0  0  0  0  0  0  0  0  0
  -19.5562  -38.6291   -8.5600 C   0  0  2  0  0  0  0  0  0  0  0  0
  -20.8860  -39.2590   -8.5344 C   0  0  0  0  0  0  0  0  0  0  0  0
  -21.8426  -38.8442   -7.4927 C   0  0  0  0  0  0  0  0  0  0  0  0
  -22.6313  -40.0717   -7.0186 C   0  0  0  0  0  0  0  0  0  0  0  0
  -23.7474  -40.4459   -7.9258 C   0  0  0  0  0  0  0  0  0  0  0  0
  -23.4088  -41.4221   -9.0029 C   0  0  0  0  0  0  0  0  0  0  0  0
  -22.8409  -42.7262   -8.5211 C   0  0  0  0  0  0  0  0  0  0  0  0
  -21.7702  -43.2284   -9.5032 C   0  0  0  0  0  0  0  0  0  0  0  0
  -21.2079  -44.5248   -9.0939 C   0  0  0  0  0  0  0  0  0  0  0  0
  -19.7696  -44.5835   -8.8487 C   0  0  0  0  0  0  0  0  0  0  0  0
  -19.0302  -44.9832   -9.7913 O   0  0  0  0  0  0  0  0  0  0  0  0
  -19.0839  -44.2377   -7.6508 N   0  0  0  0  0  0  0  0  0  0  0  0
  -17.8766  -44.8962   -7.1872 C   0  0  0  0  0  0  0  0  0  0  0  0
  -19.5438  -43.1704   -6.7680 C   0  0  1  0  0  0  0  0  0  0  0  0
  -20.4218  -43.7546   -5.6522 C   0  0  0  0  0  0  0  0  0  0  0  0
  -18.4504  -42.4532   -6.0827 C   0  0  0  0  0  0  0  0  0  0  0  0
  -17.7275  -43.1057   -5.2903 O   0  0  0  0  0  0  0  0  0  0  0  0
  -18.1447  -41.0823   -6.2428 N   0  0  0  0  0  0  0  0  0  0  0  0
  -18.0740  -40.3675   -7.4963 C   0  0  1  0  0  0  0  0  0  0  0  0
  -18.6148  -38.9643   -7.4374 C   0  0  0  0  0  0  0  0  0  0  0  0
  -16.5754  -40.3948   -7.8685 C   0  0  2  0  0  0  0  0  0  0  0  0
  -15.8761  -39.5998   -6.9567 O   0  0  0  0  0  0  0  0  0  0  0  0
  -16.3607  -39.8413   -9.2352 C   0  0  0  0  0  0  0  0  0  0  0  0
  -15.0396  -39.6360   -9.6756 N   0  0  0  0  0  0  0  0  0  0  0  0
  -14.6456  -38.3520  -10.1297 C   0  0  0  0  0  0  0  0  0  0  0  0
  -13.4269  -37.8181   -9.3924 C   0  0  0  0  0  0  0  0  0  0  0  0
  -15.7448  -37.3596  -10.1119 C   0  0  0  0  0  0  0  0  0  0  0  0
  -14.1745  -38.5395  -11.5663 C   0  0  0  0  0  0  0  0  0  0  0  0
  -13.6485  -37.6057  -12.4201 C   0  0  0  0  0  0  0  0  0  0  0  0
  -13.3723  -38.2547  -13.6327 C   0  0  0  0  0  0  0  0  0  0  0  0
  -12.7900  -37.5886  -14.8260 C   0  0  0  0  0  0  0  0  0  0  0  0
  -11.2844  -37.4701  -14.7561 C   0  0  0  0  0  0  0  0  0  0  0  0
  -10.7608  -38.9107  -14.8312 C   0  0  0  0  0  0  0  0  0  0  0  0
  -10.8132  -36.8905  -13.4595 C   0  0  0  0  0  0  0  0  0  0  0  0
  -10.6808  -36.7163  -15.8947 C   0  0  0  0  0  0  0  0  0  0  0  0
  -13.7263  -39.4857  -13.4619 O   0  0  0  0  0  0  0  0  0  0  0  0
  -14.2023  -39.6991  -12.2658 N   0  0  0  0  0  0  0  0  0  0  0  0
  2  1  1  1
  2  3  1  0
  3  4  1  0
  4  5  1  0
  5  6  1  0
  6  7  1  0
  7  8  1  0
  8  9  1  0
  9 10  1  0
 10 11  1  0
 11 12  2  0
 11 13  1  0
 13 14  1  0
 13 15  1  0
 15 16  1  1
 15 17  1  0
 17 18  2  0
 17 19  1  0
 19 20  1  0
 20 21  1  1
 20 22  1  0
 22 23  1  1
 22 24  1  0
 24 25  1  0
 25 26  1  0
 26 27  1  0
 26 28  1  0
 26 29  1  0
 29 30  1  0
 30 31  2  0
 31 32  1  0
 32 33  1  0
 33 34  1  0
 33 35  1  0
 33 36  1  0
 31 37  1  0
 37 38  1  0
 21  2  1  0
 38 29  2  0
M  END
$$$$
