
     RDKit          3D

 38 39  0  0  0  0  0  0  0  0999 V2000
  -20.1567  -36.8989   -5.9582 C   0  0  0  0  0  0  0  0  0  0  0  0
  -19.8597  -38.1857   -6.6979 C   0  0  2  0  0  0  0  0  0  0  0  0
  -21.0361  -39.0687   -6.7419 C   0  0  0  0  0  0  0  0  0  0  0  0
  -21.6341  -39.5103   -5.4692 C   0  0  0  0  0  0  0  0  0  0  0  0
  -22.0945  -40.9669   -5.6101 C   0  0  0  0  0  0  0  0  0  0  0  0
  -23.4027  -41.1110   -6.3003 C   0  0  0  0  0  0  0  0  0  0  0  0
  -23.3397  -41.2764   -7.7824 C   0  0  0  0  0  0  0  0  0  0  0  0
  -22.5160  -42.4392   -8.2562 C   0  0  0  0  0  0  0  0  0  0  0  0
  -21.7824  -42.0693   -9.5556 C   0  0  0  0  0  0  0  0  0  0  0  0
  -20.9885  -43.1905  -10.0817 C   0  0  0  0  0  0  0  0  0  0  0  0
  -19.5514  -42.9806  -10.2331 C   0  0  0  0  0  0  0  0  0  0  0  0
  -19.1263  -42.6346  -11.3709 O   0  0  0  0  0  0  0  0  0  0  0  0
  -18.5489  -43.1213   -9.2332 N   0  0  0  0  0  0  0  0  0  0  0  0
  -17.1961  -43.5754   -9.4977 C   0  0  0  0  0  0  0  0  0  0  0  0
  -18.7989  -42.8151   -7.8283 C   0  0  1  0  0  0  0  0  0  0  0  0
  -19.1974  -44.0927   -7.0760 C   0  0  0  0  0  0  0  0  0  0  0  0
  -17.6196  -42.2833   -7.1169 C   0  0  0  0  0  0  0  0  0  0  0  0
  -16.6143  -43.0276   -7.0102 O   0  0  0  0  0  0  0  0  0  0  0  0
  -17.5242  -40.9963   -6.5396 N   0  0  0  0  0  0  0  0  0  0  0  0
  -17.9421  -39.7564   -7.1520 C   0  0  1  0  0  0  0  0  0  0  0  0
  -18.5728  -38.7789   -6.1972 C   0  0  0  0  0  0  0  0  0  0  0  0
  -16.6545  -39.1920   -7.7911 C   0  0  2  0  0  0  0  0  0  0  0  0
  -17.0123  -38.2172   -8.7261 O   0  0  0  0  0  0  0  0  0  0  0  0
  -15.9012  -40.2660   -8.4977 C   0  0  0  0  0  0  0  0  0  0  0  0
  -14.5149  -40.1041   -8.6801 N   0  0  0  0  0  0  0  0  0  0  0  0
  -13.8983  -40.6206   -9.8476 C   0  0  0  0  0  0  0  0  0  0  0  0
  -14.8424  -41.4746  -10.6802 C   0  0  0  0  0  0  0  0  0  0  0  0
  -12.6379  -41.3483   -9.5736 C   0  0  0  0  0  0  0  0  0  0  0  0
  -13.5902  -39.4167  -10.7290 C   0  0  0  0  0  0  0  0  0  0  0  0
  -13.1031  -39.3996  -12.0096 C   0  0  0  0  0  0  0  0  0  0  0  0
  -12.9815  -38.0560  -12.3942 C   0  0  0  0  0  0  0  0  0  0  0  0
  -12.4848  -37.6054  -13.7196 C   0  0  0  0  0  0  0  0  0  0  0  0
  -12.4118  -36.1000  -13.8385 C   0  0  0  0  0  0  0  0  0  0  0  0
  -11.9151  -35.8299  -15.2653 C   0  0  0  0  0  0  0  0  0  0  0  0
  -11.4169  -35.4968  -12.8974 C   0  0  0  0  0  0  0  0  0  0  0  0
  -13.7293  -35.4140  -13.6876 C   0  0  0  0  0  0  0  0  0  0  0  0
  -13.3806  -37.3620  -11.3798 O   0  0  0  0  0  0  0  0  0  0  0  0
  -13.7469  -38.1171  -10.3807 N   0  0  0  0  0  0  0  0  0  0  0  0
  2  1  1  1
  2  3  1  0
  3  4  1  0
  4  5  1  0
  5  6  1  0
  6  7  1  0
  7  8  1  0
  8  9  1  0
  9 10  1  0
 10 11  1  0
 11 12  2  0
 11 13  1  0
 13 14  1  0
 13 15  1  0
 15 16  1  1
 15 17  1  0
 17 18  2  0
 17 19  1  0
 19 20  1  0
 20 21  1  1
 20 22  1  0
 22 23  1  6
 22 24  1  0
 24 25  1  0
 25 26  1  0
 26 27  1  0
 26 28  1  0
 26 29  1  0
 29 30  1  0
 30 31  2  0
 31 32  1  0
 32 33  1  0
 33 34  1  0
 33 35  1  0
 33 36  1  0
 31 37  1  0
 37 38  1  0
 21  2  1  0
 38 29  2  0
M  END
$$$$
