
     RDKit          3D

 38 39  0  0  0  0  0  0  0  0999 V2000
  -12.2651  -37.6466   -8.6081 C   0  0  0  0  0  0  0  0  0  0  0  0
  -13.0118  -38.9581   -8.7262 C   0  0  2  0  0  0  0  0  0  0  0  0
  -12.2584  -39.9402   -9.5220 C   0  0  0  0  0  0  0  0  0  0  0  0
  -11.9021  -39.5981  -10.9106 C   0  0  0  0  0  0  0  0  0  0  0  0
  -12.0265  -40.8530  -11.7842 C   0  0  0  0  0  0  0  0  0  0  0  0
  -10.8557  -41.7630  -11.6846 C   0  0  0  0  0  0  0  0  0  0  0  0
  -10.9432  -42.8204  -10.6348 C   0  0  0  0  0  0  0  0  0  0  0  0
  -12.1358  -43.7262  -10.7448 C   0  0  0  0  0  0  0  0  0  0  0  0
  -12.6442  -44.0991   -9.3427 C   0  0  0  0  0  0  0  0  0  0  0  0
  -13.7923  -45.0174   -9.3961 C   0  0  0  0  0  0  0  0  0  0  0  0
  -15.0381  -44.5683   -8.7806 C   0  0  0  0  0  0  0  0  0  0  0  0
  -15.2739  -44.9393   -7.5966 O   0  0  0  0  0  0  0  0  0  0  0  0
  -16.0413  -43.7456   -9.3648 N   0  0  0  0  0  0  0  0  0  0  0  0
  -17.4588  -43.8655   -9.0775 C   0  0  0  0  0  0  0  0  0  0  0  0
  -15.7258  -42.6895  -10.3215 C   0  0  1  0  0  0  0  0  0  0  0  0
  -15.8597  -43.2232  -11.7548 C   0  0  0  0  0  0  0  0  0  0  0  0
  -16.6305  -41.5256  -10.2418 C   0  0  0  0  0  0  0  0  0  0  0  0
  -17.8453  -41.7085  -10.5001 O   0  0  0  0  0  0  0  0  0  0  0  0
  -16.2429  -40.2104   -9.8971 N   0  0  0  0  0  0  0  0  0  0  0  0
  -15.3715  -39.8390   -8.8063 C   0  0  1  0  0  0  0  0  0  0  0  0
  -14.4386  -38.7011   -9.1224 C   0  0  0  0  0  0  0  0  0  0  0  0
  -16.3333  -39.4940   -7.6483 C   0  0  2  0  0  0  0  0  0  0  0  0
  -15.8849  -40.1363   -6.4913 O   0  0  0  0  0  0  0  0  0  0  0  0
  -17.7122  -39.9731   -7.9468 C   0  0  0  0  0  0  0  0  0  0  0  0
  -18.7573  -39.5868   -7.0865 N   0  0  0  0  0  0  0  0  0  0  0  0
  -19.8866  -38.9136   -7.6168 C   0  0  0  0  0  0  0  0  0  0  0  0
  -20.6557  -38.1364   -6.5593 C   0  0  0  0  0  0  0  0  0  0  0  0
  -20.7953  -39.8008   -8.3788 C   0  0  0  0  0  0  0  0  0  0  0  0
  -19.3385  -37.8465   -8.5559 C   0  0  0  0  0  0  0  0  0  0  0  0
  -19.7782  -37.5046   -9.8078 C   0  0  0  0  0  0  0  0  0  0  0  0
  -18.9523  -36.4712  -10.2747 C   0  0  0  0  0  0  0  0  0  0  0  0
  -19.0974  -35.8166  -11.6002 C   0  0  0  0  0  0  0  0  0  0  0  0
  -18.1453  -36.3705  -12.6359 C   0  0  0  0  0  0  0  0  0  0  0  0
  -18.4306  -35.5734  -13.9159 C   0  0  0  0  0  0  0  0  0  0  0  0
  -18.4034  -37.8126  -12.9408 C   0  0  0  0  0  0  0  0  0  0  0  0
  -16.7033  -36.1758  -12.3013 C   0  0  0  0  0  0  0  0  0  0  0  0
  -18.0978  -36.2498   -9.3309 O   0  0  0  0  0  0  0  0  0  0  0  0
  -18.2856  -37.0325   -8.3038 N   0  0  0  0  0  0  0  0  0  0  0  0
  2  1  1  6
  2  3  1  0
  3  4  1  0
  4  5  1  0
  5  6  1  0
  6  7  1  0
  7  8  1  0
  8  9  1  0
  9 10  1  0
 10 11  1  0
 11 12  2  0
 11 13  1  0
 13 14  1  0
 13 15  1  0
 15 16  1  6
 15 17  1  0
 17 18  2  0
 17 19  1  0
 19 20  1  0
 20 21  1  6
 20 22  1  0
 22 23  1  1
 22 24  1  0
 24 25  1  0
 25 26  1  0
 26 27  1  0
 26 28  1  0
 26 29  1  0
 29 30  1  0
 30 31  2  0
 31 32  1  0
 32 33  1  0
 33 34  1  0
 33 35  1  0
 33 36  1  0
 31 37  1  0
 37 38  1  0
 21  2  1  0
 38 29  2  0
M  END
$$$$
