
     RDKit          3D

 38 39  0  0  0  0  0  0  0  0999 V2000
  -12.5709  -37.1430  -10.9051 C   0  0  0  0  0  0  0  0  0  0  0  0
  -13.2783  -38.4227  -10.5139 C   0  0  2  0  0  0  0  0  0  0  0  0
  -12.6723  -39.5963  -11.1627 C   0  0  0  0  0  0  0  0  0  0  0  0
  -12.6251  -39.6421  -12.6351 C   0  0  0  0  0  0  0  0  0  0  0  0
  -12.8835  -41.0807  -13.1008 C   0  0  0  0  0  0  0  0  0  0  0  0
  -11.6859  -41.9563  -13.0132 C   0  0  0  0  0  0  0  0  0  0  0  0
  -11.5150  -42.6955  -11.7278 C   0  0  0  0  0  0  0  0  0  0  0  0
  -12.6713  -43.5727  -11.3422 C   0  0  0  0  0  0  0  0  0  0  0  0
  -12.8631  -43.5499   -9.8171 C   0  0  0  0  0  0  0  0  0  0  0  0
  -13.9636  -44.4250   -9.3843 C   0  0  0  0  0  0  0  0  0  0  0  0
  -15.0693  -43.8028   -8.6614 C   0  0  0  0  0  0  0  0  0  0  0  0
  -15.0402  -43.8416   -7.3994 O   0  0  0  0  0  0  0  0  0  0  0  0
  -16.2009  -43.1433   -9.2175 N   0  0  0  0  0  0  0  0  0  0  0  0
  -17.5224  -43.1529   -8.6176 C   0  0  0  0  0  0  0  0  0  0  0  0
  -16.1294  -42.3855  -10.4627 C   0  0  1  0  0  0  0  0  0  0  0  0
  -16.5393  -43.2771  -11.6435 C   0  0  0  0  0  0  0  0  0  0  0  0
  -17.0388  -41.2232  -10.5044 C   0  0  0  0  0  0  0  0  0  0  0  0
  -18.2734  -41.4424  -10.4442 O   0  0  0  0  0  0  0  0  0  0  0  0
  -16.6353  -39.8722  -10.6076 N   0  0  0  0  0  0  0  0  0  0  0  0
  -15.5699  -39.2434   -9.8616 C   0  0  1  0  0  0  0  0  0  0  0  0
  -14.7646  -38.2500  -10.6549 C   0  0  0  0  0  0  0  0  0  0  0  0
  -16.2815  -38.5836   -8.6602 C   0  0  2  0  0  0  0  0  0  0  0  0
  -15.4465  -38.6752   -7.5436 O   0  0  0  0  0  0  0  0  0  0  0  0
  -17.5578  -39.2876   -8.3509 C   0  0  0  0  0  0  0  0  0  0  0  0
  -18.7708  -38.6431   -8.6588 N   0  0  0  0  0  0  0  0  0  0  0  0
  -19.6267  -38.2253   -7.6087 C   0  0  0  0  0  0  0  0  0  0  0  0
  -20.4058  -36.9653   -7.9538 C   0  0  0  0  0  0  0  0  0  0  0  0
  -18.9318  -38.0720   -6.3099 C   0  0  0  0  0  0  0  0  0  0  0  0
  -20.6886  -39.3094   -7.4741 C   0  0  0  0  0  0  0  0  0  0  0  0
  -20.7150  -40.3753   -6.6135 C   0  0  0  0  0  0  0  0  0  0  0  0
  -21.8921  -41.0935   -6.8713 C   0  0  0  0  0  0  0  0  0  0  0  0
  -22.2973  -42.3259   -6.1477 C   0  0  0  0  0  0  0  0  0  0  0  0
  -23.3835  -42.0767   -5.1261 C   0  0  0  0  0  0  0  0  0  0  0  0
  -24.5762  -41.5362   -5.9265 C   0  0  0  0  0  0  0  0  0  0  0  0
  -23.0039  -41.0288   -4.1276 C   0  0  0  0  0  0  0  0  0  0  0  0
  -23.8436  -43.3069   -4.4161 C   0  0  0  0  0  0  0  0  0  0  0  0
  -22.4894  -40.4595   -7.8258 O   0  0  0  0  0  0  0  0  0  0  0  0
  -21.8208  -39.4073   -8.2112 N   0  0  0  0  0  0  0  0  0  0  0  0
  2  1  1  6
  2  3  1  0
  3  4  1  0
  4  5  1  0
  5  6  1  0
  6  7  1  0
  7  8  1  0
  8  9  1  0
  9 10  1  0
 10 11  1  0
 11 12  2  0
 11 13  1  0
 13 14  1  0
 13 15  1  0
 15 16  1  6
 15 17  1  0
 17 18  2  0
 17 19  1  0
 19 20  1  0
 20 21  1  6
 20 22  1  0
 22 23  1  1
 22 24  1  0
 24 25  1  0
 25 26  1  0
 26 27  1  0
 26 28  1  0
 26 29  1  0
 29 30  1  0
 30 31  2  0
 31 32  1  0
 32 33  1  0
 33 34  1  0
 33 35  1  0
 33 36  1  0
 31 37  1  0
 37 38  1  0
 21  2  1  0
 38 29  2  0
M  END
$$$$
