
     RDKit          3D

 38 39  0  0  0  0  0  0  0  0999 V2000
  -19.4221  -37.5784   -4.7858 C   0  0  0  0  0  0  0  0  0  0  0  0
  -19.1577  -38.6361   -5.8359 C   0  0  2  0  0  0  0  0  0  0  0  0
  -20.2780  -39.5843   -5.9432 C   0  0  0  0  0  0  0  0  0  0  0  0
  -20.6709  -40.3497   -4.7465 C   0  0  0  0  0  0  0  0  0  0  0  0
  -21.0643  -41.7715   -5.1673 C   0  0  0  0  0  0  0  0  0  0  0  0
  -22.4445  -41.8687   -5.7098 C   0  0  0  0  0  0  0  0  0  0  0  0
  -22.5755  -41.6914   -7.1861 C   0  0  0  0  0  0  0  0  0  0  0  0
  -21.7607  -42.6433   -8.0138 C   0  0  0  0  0  0  0  0  0  0  0  0
  -21.2333  -41.9299   -9.2693 C   0  0  0  0  0  0  0  0  0  0  0  0
  -20.4575  -42.8323  -10.1342 C   0  0  0  0  0  0  0  0  0  0  0  0
  -19.0686  -42.4713  -10.4039 C   0  0  0  0  0  0  0  0  0  0  0  0
  -18.8229  -41.8438  -11.4721 O   0  0  0  0  0  0  0  0  0  0  0  0
  -17.9326  -42.7463   -9.5924 N   0  0  0  0  0  0  0  0  0  0  0  0
  -16.6055  -43.0118  -10.1162 C   0  0  0  0  0  0  0  0  0  0  0  0
  -18.0049  -42.7856   -8.1353 C   0  0  1  0  0  0  0  0  0  0  0  0
  -18.2251  -44.2288   -7.6599 C   0  0  0  0  0  0  0  0  0  0  0  0
  -16.7710  -42.3279   -7.4663 C   0  0  0  0  0  0  0  0  0  0  0  0
  -15.7206  -42.9882   -7.6581 O   0  0  0  0  0  0  0  0  0  0  0  0
  -16.6695  -41.1999   -6.6202 N   0  0  0  0  0  0  0  0  0  0  0  0
  -17.2356  -39.8947   -6.8713 C   0  0  1  0  0  0  0  0  0  0  0  0
  -17.7834  -39.2141   -5.6459 C   0  0  0  0  0  0  0  0  0  0  0  0
  -16.0809  -39.0931   -7.5108 C   0  0  2  0  0  0  0  0  0  0  0  0
  -16.6226  -38.1829   -8.4222 O   0  0  0  0  0  0  0  0  0  0  0  0
  -15.1537  -39.9984   -8.2464 C   0  0  0  0  0  0  0  0  0  0  0  0
  -14.2430  -39.4299   -9.1567 N   0  0  0  0  0  0  0  0  0  0  0  0
  -13.7660  -40.2042  -10.2443 C   0  0  0  0  0  0  0  0  0  0  0  0
  -14.5975  -41.4556  -10.4820 C   0  0  0  0  0  0  0  0  0  0  0  0
  -12.3282  -40.5431  -10.1384 C   0  0  0  0  0  0  0  0  0  0  0  0
  -13.9816  -39.3565  -11.4916 C   0  0  0  0  0  0  0  0  0  0  0  0
  -13.1584  -38.4000  -12.0255 C   0  0  0  0  0  0  0  0  0  0  0  0
  -13.7905  -37.8948  -13.1715 C   0  0  0  0  0  0  0  0  0  0  0  0
  -13.2230  -36.8339  -14.0426 C   0  0  0  0  0  0  0  0  0  0  0  0
  -13.4978  -35.4401  -13.5253 C   0  0  0  0  0  0  0  0  0  0  0  0
  -13.3178  -35.5298  -12.0039 C   0  0  0  0  0  0  0  0  0  0  0  0
  -14.9040  -34.9981  -13.7835 C   0  0  0  0  0  0  0  0  0  0  0  0
  -12.5440  -34.4069  -14.0271 C   0  0  0  0  0  0  0  0  0  0  0  0
  -14.9073  -38.5375  -13.2697 O   0  0  0  0  0  0  0  0  0  0  0  0
  -15.0622  -39.4045  -12.3069 N   0  0  0  0  0  0  0  0  0  0  0  0
  2  1  1  1
  2  3  1  0
  3  4  1  0
  4  5  1  0
  5  6  1  0
  6  7  1  0
  7  8  1  0
  8  9  1  0
  9 10  1  0
 10 11  1  0
 11 12  2  0
 11 13  1  0
 13 14  1  0
 13 15  1  0
 15 16  1  6
 15 17  1  0
 17 18  2  0
 17 19  1  0
 19 20  1  0
 20 21  1  1
 20 22  1  0
 22 23  1  6
 22 24  1  0
 24 25  1  0
 25 26  1  0
 26 27  1  0
 26 28  1  0
 26 29  1  0
 29 30  1  0
 30 31  2  0
 31 32  1  0
 32 33  1  0
 33 34  1  0
 33 35  1  0
 33 36  1  0
 31 37  1  0
 37 38  1  0
 21  2  1  0
 38 29  2  0
M  END
$$$$
