
     RDKit          3D

 38 39  0  0  0  0  0  0  0  0999 V2000
  -21.5410  -37.3974   -7.5886 C   0  0  0  0  0  0  0  0  0  0  0  0
  -21.0963  -38.8416   -7.6767 C   0  0  2  0  0  0  0  0  0  0  0  0
  -21.8479  -39.6972   -6.7446 C   0  0  0  0  0  0  0  0  0  0  0  0
  -21.7952  -39.3874   -5.3046 C   0  0  0  0  0  0  0  0  0  0  0  0
  -21.7570  -40.6993   -4.5104 C   0  0  0  0  0  0  0  0  0  0  0  0
  -23.0914  -41.3330   -4.3478 C   0  0  0  0  0  0  0  0  0  0  0  0
  -23.4807  -42.3076   -5.4092 C   0  0  0  0  0  0  0  0  0  0  0  0
  -22.5250  -43.4497   -5.6027 C   0  0  0  0  0  0  0  0  0  0  0  0
  -22.4434  -43.8205   -7.0924 C   0  0  0  0  0  0  0  0  0  0  0  0
  -21.5456  -44.9614   -7.3306 C   0  0  0  0  0  0  0  0  0  0  0  0
  -20.4042  -44.7421   -8.2145 C   0  0  0  0  0  0  0  0  0  0  0  0
  -20.5312  -45.0692   -9.4278 O   0  0  0  0  0  0  0  0  0  0  0  0
  -19.1381  -44.1927   -7.8685 N   0  0  0  0  0  0  0  0  0  0  0  0
  -17.8853  -44.5877   -8.4856 C   0  0  0  0  0  0  0  0  0  0  0  0
  -18.9866  -43.1648   -6.8436 C   0  0  1  0  0  0  0  0  0  0  0  0
  -18.6528  -43.8153   -5.4936 C   0  0  0  0  0  0  0  0  0  0  0  0
  -17.8889  -42.2148   -7.1122 C   0  0  0  0  0  0  0  0  0  0  0  0
  -16.7186  -42.6673   -7.1526 O   0  0  0  0  0  0  0  0  0  0  0  0
  -18.0435  -40.8264   -7.3294 N   0  0  0  0  0  0  0  0  0  0  0  0
  -19.0351  -40.2031   -8.1751 C   0  0  1  0  0  0  0  0  0  0  0  0
  -19.5963  -38.9198   -7.6246 C   0  0  0  0  0  0  0  0  0  0  0  0
  -18.3091  -39.9868   -9.5209 C   0  0  2  0  0  0  0  0  0  0  0  0
  -18.8745  -40.8387  -10.4733 O   0  0  0  0  0  0  0  0  0  0  0  0
  -16.8609  -40.3152   -9.3982 C   0  0  0  0  0  0  0  0  0  0  0  0
  -15.9772  -39.8270  -10.3791 N   0  0  0  0  0  0  0  0  0  0  0  0
  -14.7687  -39.2009   -9.9820 C   0  0  0  0  0  0  0  0  0  0  0  0
  -13.8416  -40.1415   -9.2275 C   0  0  0  0  0  0  0  0  0  0  0  0
  -14.9786  -37.9490   -9.2191 C   0  0  0  0  0  0  0  0  0  0  0  0
  -14.0211  -38.8740  -11.2686 C   0  0  0  0  0  0  0  0  0  0  0  0
  -13.6310  -37.6482  -11.7405 C   0  0  0  0  0  0  0  0  0  0  0  0
  -12.9801  -37.8579  -12.9653 C   0  0  0  0  0  0  0  0  0  0  0  0
  -12.4041  -36.7759  -13.8043 C   0  0  0  0  0  0  0  0  0  0  0  0
  -10.9913  -36.4134  -13.4064 C   0  0  0  0  0  0  0  0  0  0  0  0
  -10.4651  -35.5270  -14.5434 C   0  0  0  0  0  0  0  0  0  0  0  0
  -10.0943  -37.6080  -13.3196 C   0  0  0  0  0  0  0  0  0  0  0  0
  -10.8999  -35.6210  -12.1444 C   0  0  0  0  0  0  0  0  0  0  0  0
  -13.0067  -39.1346  -13.1640 O   0  0  0  0  0  0  0  0  0  0  0  0
  -13.6070  -39.7707  -12.1956 N   0  0  0  0  0  0  0  0  0  0  0  0
  2  1  1  1
  2  3  1  0
  3  4  1  0
  4  5  1  0
  5  6  1  0
  6  7  1  0
  7  8  1  0
  8  9  1  0
  9 10  1  0
 10 11  1  0
 11 12  2  0
 11 13  1  0
 13 14  1  0
 13 15  1  0
 15 16  1  1
 15 17  1  0
 17 18  2  0
 17 19  1  0
 19 20  1  0
 20 21  1  1
 20 22  1  0
 22 23  1  6
 22 24  1  0
 24 25  1  0
 25 26  1  0
 26 27  1  0
 26 28  1  0
 26 29  1  0
 29 30  1  0
 30 31  2  0
 31 32  1  0
 32 33  1  0
 33 34  1  0
 33 35  1  0
 33 36  1  0
 31 37  1  0
 37 38  1  0
 21  2  1  0
 38 29  2  0
M  END
$$$$
