
     RDKit          3D

 38 39  0  0  0  0  0  0  0  0999 V2000
  -14.8385  -34.6357   -9.6774 C   0  0  0  0  0  0  0  0  0  0  0  0
  -14.2969  -36.0179   -9.9732 C   0  0  2  0  0  0  0  0  0  0  0  0
  -13.1738  -35.9674  -10.9228 C   0  0  0  0  0  0  0  0  0  0  0  0
  -13.4008  -35.3733  -12.2523 C   0  0  0  0  0  0  0  0  0  0  0  0
  -12.6177  -36.1747  -13.3002 C   0  0  0  0  0  0  0  0  0  0  0  0
  -11.1762  -35.8189  -13.3629 C   0  0  0  0  0  0  0  0  0  0  0  0
  -10.2724  -36.6143  -12.4806 C   0  0  0  0  0  0  0  0  0  0  0  0
  -10.3198  -38.0994  -12.6983 C   0  0  0  0  0  0  0  0  0  0  0  0
  -10.1609  -38.8330  -11.3567 C   0  0  0  0  0  0  0  0  0  0  0  0
  -10.1637  -40.2949  -11.5213 C   0  0  0  0  0  0  0  0  0  0  0  0
  -11.2004  -41.0459  -10.8188 C   0  0  0  0  0  0  0  0  0  0  0  0
  -10.9034  -41.5475   -9.6984 O   0  0  0  0  0  0  0  0  0  0  0  0
  -12.5342  -41.2871  -11.2517 N   0  0  0  0  0  0  0  0  0  0  0  0
  -13.2782  -42.4972  -10.9547 C   0  0  0  0  0  0  0  0  0  0  0  0
  -13.2840  -40.3199  -12.0471 C   0  0  1  0  0  0  0  0  0  0  0  0
  -13.1396  -40.6449  -13.5406 C   0  0  0  0  0  0  0  0  0  0  0  0
  -14.7351  -40.3243  -11.7752 C   0  0  0  0  0  0  0  0  0  0  0  0
  -15.3764  -41.3727  -12.0313 O   0  0  0  0  0  0  0  0  0  0  0  0
  -15.4715  -39.2394  -11.2468 N   0  0  0  0  0  0  0  0  0  0  0  0
  -15.0797  -38.4080  -10.1322 C   0  0  1  0  0  0  0  0  0  0  0  0
  -15.4284  -36.9531  -10.2955 C   0  0  0  0  0  0  0  0  0  0  0  0
  -15.7896  -39.0400   -8.9150 C   0  0  2  0  0  0  0  0  0  0  0  0
  -14.8304  -39.6711   -8.1188 O   0  0  0  0  0  0  0  0  0  0  0  0
  -16.7812  -40.0619   -9.3541 C   0  0  0  0  0  0  0  0  0  0  0  0
  -17.5579  -40.7074   -8.3736 N   0  0  0  0  0  0  0  0  0  0  0  0
  -18.8569  -41.1698   -8.7034 C   0  0  0  0  0  0  0  0  0  0  0  0
  -18.8931  -42.6642   -8.9851 C   0  0  0  0  0  0  0  0  0  0  0  0
  -19.4869  -40.4130   -9.8096 C   0  0  0  0  0  0  0  0  0  0  0  0
  -19.6983  -40.9951   -7.4453 C   0  0  0  0  0  0  0  0  0  0  0  0
  -20.6966  -40.0875   -7.2062 C   0  0  0  0  0  0  0  0  0  0  0  0
  -21.1674  -40.3151   -5.9046 C   0  0  0  0  0  0  0  0  0  0  0  0
  -22.2558  -39.5371   -5.2591 C   0  0  0  0  0  0  0  0  0  0  0  0
  -23.5996  -40.2246   -5.3450 C   0  0  0  0  0  0  0  0  0  0  0  0
  -23.8990  -40.3428   -6.8455 C   0  0  0  0  0  0  0  0  0  0  0  0
  -24.6993  -39.4154   -4.7324 C   0  0  0  0  0  0  0  0  0  0  0  0
  -23.6129  -41.6054   -4.7774 C   0  0  0  0  0  0  0  0  0  0  0  0
  -20.4672  -41.2987   -5.4439 O   0  0  0  0  0  0  0  0  0  0  0  0
  -19.5934  -41.7295   -6.3120 N   0  0  0  0  0  0  0  0  0  0  0  0
  2  1  1  6
  2  3  1  0
  3  4  1  0
  4  5  1  0
  5  6  1  0
  6  7  1  0
  7  8  1  0
  8  9  1  0
  9 10  1  0
 10 11  1  0
 11 12  2  0
 11 13  1  0
 13 14  1  0
 13 15  1  0
 15 16  1  6
 15 17  1  0
 17 18  2  0
 17 19  1  0
 19 20  1  0
 20 21  1  6
 20 22  1  0
 22 23  1  1
 22 24  1  0
 24 25  1  0
 25 26  1  0
 26 27  1  0
 26 28  1  0
 26 29  1  0
 29 30  1  0
 30 31  2  0
 31 32  1  0
 32 33  1  0
 33 34  1  0
 33 35  1  0
 33 36  1  0
 31 37  1  0
 37 38  1  0
 21  2  1  0
 38 29  2  0
M  END
$$$$
