
     RDKit          3D

 38 39  0  0  0  0  0  0  0  0999 V2000
  -20.7918  -37.3512   -8.0730 C   0  0  0  0  0  0  0  0  0  0  0  0
  -20.5477  -38.8391   -7.9390 C   0  0  2  0  0  0  0  0  0  0  0  0
  -21.5214  -39.4679   -7.0323 C   0  0  0  0  0  0  0  0  0  0  0  0
  -21.6036  -38.9859   -5.6419 C   0  0  0  0  0  0  0  0  0  0  0  0
  -21.8488  -40.1801   -4.7107 C   0  0  0  0  0  0  0  0  0  0  0  0
  -23.2690  -40.6159   -4.6669 C   0  0  0  0  0  0  0  0  0  0  0  0
  -23.6578  -41.6615   -5.6585 C   0  0  0  0  0  0  0  0  0  0  0  0
  -22.8562  -42.9295   -5.5903 C   0  0  0  0  0  0  0  0  0  0  0  0
  -22.6445  -43.4947   -7.0042 C   0  0  0  0  0  0  0  0  0  0  0  0
  -21.8940  -44.7599   -6.9881 C   0  0  0  0  0  0  0  0  0  0  0  0
  -20.6329  -44.7998   -7.7231 C   0  0  0  0  0  0  0  0  0  0  0  0
  -20.6541  -45.2606   -8.8989 O   0  0  0  0  0  0  0  0  0  0  0  0
  -19.3545  -44.3735   -7.2666 N   0  0  0  0  0  0  0  0  0  0  0  0
  -18.1035  -44.9976   -7.6560 C   0  0  0  0  0  0  0  0  0  0  0  0
  -19.1872  -43.2503   -6.3499 C   0  0  1  0  0  0  0  0  0  0  0  0
  -19.1174  -43.7598   -4.9033 C   0  0  0  0  0  0  0  0  0  0  0  0
  -17.9419  -42.4872   -6.5658 C   0  0  0  0  0  0  0  0  0  0  0  0
  -16.8511  -43.0840   -6.3928 O   0  0  0  0  0  0  0  0  0  0  0  0
  -17.8714  -41.1295   -6.9536 N   0  0  0  0  0  0  0  0  0  0  0  0
  -18.6533  -40.5002   -7.9926 C   0  0  1  0  0  0  0  0  0  0  0  0
  -19.0916  -39.0970   -7.6702 C   0  0  0  0  0  0  0  0  0  0  0  0
  -17.7437  -40.5499   -9.2397 C   0  0  2  0  0  0  0  0  0  0  0  0
  -17.3124  -41.8663   -9.4234 O   0  0  0  0  0  0  0  0  0  0  0  0
  -16.5449  -39.6848   -9.0536 C   0  0  0  0  0  0  0  0  0  0  0  0
  -15.3265  -40.0950   -9.6268 N   0  0  0  0  0  0  0  0  0  0  0  0
  -14.1926  -39.2485   -9.5391 C   0  0  0  0  0  0  0  0  0  0  0  0
  -12.9096  -39.9404   -9.9738 C   0  0  0  0  0  0  0  0  0  0  0  0
  -14.0259  -38.6257   -8.2058 C   0  0  0  0  0  0  0  0  0  0  0  0
  -14.4062  -38.1497  -10.5726 C   0  0  0  0  0  0  0  0  0  0  0  0
  -14.2738  -36.7948  -10.4167 C   0  0  0  0  0  0  0  0  0  0  0  0
  -14.5812  -36.1989  -11.6489 C   0  0  0  0  0  0  0  0  0  0  0  0
  -14.5569  -34.7352  -11.9011 C   0  0  0  0  0  0  0  0  0  0  0  0
  -13.3699  -34.3020  -12.7312 C   0  0  0  0  0  0  0  0  0  0  0  0
  -13.5522  -34.9919  -14.0899 C   0  0  0  0  0  0  0  0  0  0  0  0
  -12.0683  -34.7727  -12.1622 C   0  0  0  0  0  0  0  0  0  0  0  0
  -13.3084  -32.8315  -12.9823 C   0  0  0  0  0  0  0  0  0  0  0  0
  -14.8694  -37.1722  -12.4486 O   0  0  0  0  0  0  0  0  0  0  0  0
  -14.7804  -38.3341  -11.8613 N   0  0  0  0  0  0  0  0  0  0  0  0
  2  1  1  1
  2  3  1  0
  3  4  1  0
  4  5  1  0
  5  6  1  0
  6  7  1  0
  7  8  1  0
  8  9  1  0
  9 10  1  0
 10 11  1  0
 11 12  2  0
 11 13  1  0
 13 14  1  0
 13 15  1  0
 15 16  1  1
 15 17  1  0
 17 18  2  0
 17 19  1  0
 19 20  1  0
 20 21  1  1
 20 22  1  0
 22 23  1  1
 22 24  1  0
 24 25  1  0
 25 26  1  0
 26 27  1  0
 26 28  1  0
 26 29  1  0
 29 30  1  0
 30 31  2  0
 31 32  1  0
 32 33  1  0
 33 34  1  0
 33 35  1  0
 33 36  1  0
 31 37  1  0
 37 38  1  0
 21  2  1  0
 38 29  2  0
M  END
$$$$
