
     RDKit          3D

 38 39  0  0  0  0  0  0  0  0999 V2000
  -20.0168  -36.9687   -5.4309 C   0  0  0  0  0  0  0  0  0  0  0  0
  -19.7628  -38.2841   -6.1354 C   0  0  2  0  0  0  0  0  0  0  0  0
  -20.9036  -39.2029   -5.9943 C   0  0  0  0  0  0  0  0  0  0  0  0
  -21.3314  -39.5927   -4.6388 C   0  0  0  0  0  0  0  0  0  0  0  0
  -21.7524  -41.0679   -4.6505 C   0  0  0  0  0  0  0  0  0  0  0  0
  -23.1267  -41.2880   -5.1715 C   0  0  0  0  0  0  0  0  0  0  0  0
  -23.2327  -41.5313   -6.6403 C   0  0  0  0  0  0  0  0  0  0  0  0
  -22.4291  -42.6929   -7.1503 C   0  0  0  0  0  0  0  0  0  0  0  0
  -21.8674  -42.3720   -8.5448 C   0  0  0  0  0  0  0  0  0  0  0  0
  -21.1011  -43.4959   -9.1051 C   0  0  0  0  0  0  0  0  0  0  0  0
  -19.7003  -43.2517   -9.4374 C   0  0  0  0  0  0  0  0  0  0  0  0
  -19.4248  -42.9551  -10.6338 O   0  0  0  0  0  0  0  0  0  0  0  0
  -18.5827  -43.3082   -8.5586 N   0  0  0  0  0  0  0  0  0  0  0  0
  -17.2549  -43.7354   -8.9597 C   0  0  0  0  0  0  0  0  0  0  0  0
  -18.6764  -42.9341   -7.1510 C   0  0  1  0  0  0  0  0  0  0  0  0
  -18.9373  -44.1805   -6.2934 C   0  0  0  0  0  0  0  0  0  0  0  0
  -17.4415  -42.3297   -6.6130 C   0  0  0  0  0  0  0  0  0  0  0  0
  -16.4045  -43.0369   -6.5901 O   0  0  0  0  0  0  0  0  0  0  0  0
  -17.3252  -41.0112   -6.1165 N   0  0  0  0  0  0  0  0  0  0  0  0
  -17.8567  -39.8192   -6.7360 C   0  0  1  0  0  0  0  0  0  0  0  0
  -18.4054  -38.8108   -5.7628 C   0  0  0  0  0  0  0  0  0  0  0  0
  -16.6744  -39.2520   -7.5518 C   0  0  2  0  0  0  0  0  0  0  0  0
  -17.1849  -38.4525   -8.5778 O   0  0  0  0  0  0  0  0  0  0  0  0
  -15.8801  -40.3531   -8.1657 C   0  0  0  0  0  0  0  0  0  0  0  0
  -14.7640  -40.0158   -8.9542 N   0  0  0  0  0  0  0  0  0  0  0  0
  -14.5513  -40.6832  -10.1868 C   0  0  0  0  0  0  0  0  0  0  0  0
  -15.8078  -40.7499  -11.0416 C   0  0  0  0  0  0  0  0  0  0  0  0
  -13.9521  -42.0286  -10.0309 C   0  0  0  0  0  0  0  0  0  0  0  0
  -13.5918  -39.8058  -10.9809 C   0  0  0  0  0  0  0  0  0  0  0  0
  -13.6323  -39.4859  -12.3127 C   0  0  0  0  0  0  0  0  0  0  0  0
  -12.5330  -38.6559  -12.5782 C   0  0  0  0  0  0  0  0  0  0  0  0
  -12.2151  -38.0878  -13.9134 C   0  0  0  0  0  0  0  0  0  0  0  0
  -12.5507  -36.6176  -14.0210 C   0  0  0  0  0  0  0  0  0  0  0  0
  -14.0658  -36.5301  -13.7924 C   0  0  0  0  0  0  0  0  0  0  0  0
  -12.2715  -36.0625  -15.3823 C   0  0  0  0  0  0  0  0  0  0  0  0
  -11.8936  -35.7670  -12.9848 C   0  0  0  0  0  0  0  0  0  0  0  0
  -11.9136  -38.5211  -11.4521 O   0  0  0  0  0  0  0  0  0  0  0  0
  -12.4979  -39.1775  -10.4876 N   0  0  0  0  0  0  0  0  0  0  0  0
  2  1  1  1
  2  3  1  0
  3  4  1  0
  4  5  1  0
  5  6  1  0
  6  7  1  0
  7  8  1  0
  8  9  1  0
  9 10  1  0
 10 11  1  0
 11 12  2  0
 11 13  1  0
 13 14  1  0
 13 15  1  0
 15 16  1  1
 15 17  1  0
 17 18  2  0
 17 19  1  0
 19 20  1  0
 20 21  1  1
 20 22  1  0
 22 23  1  6
 22 24  1  0
 24 25  1  0
 25 26  1  0
 26 27  1  0
 26 28  1  0
 26 29  1  0
 29 30  1  0
 30 31  2  0
 31 32  1  0
 32 33  1  0
 33 34  1  0
 33 35  1  0
 33 36  1  0
 31 37  1  0
 37 38  1  0
 21  2  1  0
 38 29  2  0
M  END
$$$$
