
     RDKit          3D

 40 43  0  0  0  0  0  0  0  0999 V2000
  -11.3639  -38.6113  -12.5489 C   0  0  0  0  0  0  0  0  0  0  0  0
  -12.0723  -39.9730  -12.5645 C   0  0  0  0  0  0  0  0  0  0  0  0
  -11.5098  -40.7282  -11.3592 C   0  0  0  0  0  0  0  0  0  0  0  0
  -13.5136  -39.6857  -12.3541 C   0  0  0  0  0  0  0  0  0  0  0  0
  -14.4662  -40.5493  -12.8630 C   0  0  0  0  0  0  0  0  0  0  0  0
  -15.8041  -40.3030  -12.6799 C   0  0  0  0  0  0  0  0  0  0  0  0
  -16.2245  -39.1896  -11.9850 C   0  0  0  0  0  0  0  0  0  0  0  0
  -15.3128  -38.3232  -11.4735 C   0  0  0  0  0  0  0  0  0  0  0  0
  -13.9670  -38.5825  -11.6646 C   0  0  0  0  0  0  0  0  0  0  0  0
  -15.6545  -37.0828  -10.6895 C   0  0  0  0  0  0  0  0  0  0  0  0
  -14.3447  -36.6481  -10.0565 C   0  0  0  0  0  0  0  0  0  0  0  0
  -16.0976  -36.0553  -11.6933 C   0  0  0  0  0  0  0  0  0  0  0  0
  -16.6699  -37.3326   -9.7209 N   0  0  0  0  0  0  0  0  0  0  0  0
  -16.0243  -37.3379   -8.3938 C   0  0  0  0  0  0  0  0  0  0  0  0
  -16.2059  -38.6420   -7.7128 C   0  0  1  0  0  0  0  0  0  0  0  0
  -16.0407  -38.5448   -6.3508 O   0  0  0  0  0  0  0  0  0  0  0  0
  -17.5409  -39.3363   -8.0866 C   0  0  2  0  0  0  0  0  0  0  0  0
  -18.4463  -39.1155   -6.9939 C   0  0  0  0  0  0  0  0  0  0  0  0
  -19.8809  -39.4184   -6.9303 C   0  0  0  0  0  0  0  0  0  0  0  0
  -20.4835  -38.5945   -5.9316 C   0  0  0  0  0  0  0  0  0  0  0  0
  -21.7840  -38.6684   -5.5436 C   0  0  0  0  0  0  0  0  0  0  0  0
  -22.3157  -37.8597   -4.5881 F   0  0  0  0  0  0  0  0  0  0  0  0
  -22.5313  -39.6201   -6.1855 C   0  0  0  0  0  0  0  0  0  0  0  0
  -23.9134  -39.7048   -5.7832 N   0  0  0  0  0  0  0  0  0  0  0  0
  -21.9956  -40.4723   -7.1866 C   0  0  0  0  0  0  0  0  0  0  0  0
  -23.0340  -41.4614   -7.6187 C   0  0  0  0  0  0  0  0  0  0  0  0
  -22.7441  -42.8953   -7.2326 C   0  0  0  0  0  0  0  0  0  0  0  0
  -22.9810  -43.2448   -5.8160 C   0  0  0  0  0  0  0  0  0  0  0  0
  -21.8290  -43.0870   -4.8865 C   0  0  0  0  0  0  0  0  0  0  0  0
  -20.7002  -43.9726   -5.1626 N   0  0  0  0  0  0  0  0  0  0  0  0
  -19.6547  -43.8383   -6.1337 C   0  0  0  0  0  0  0  0  0  0  0  0
  -19.5294  -45.0631   -6.8432 C   0  0  0  0  0  0  0  0  0  0  0  0
  -18.6724  -45.2404   -7.8896 C   0  0  0  0  0  0  0  0  0  0  0  0
  -17.9268  -44.1455   -8.2232 C   0  0  0  0  0  0  0  0  0  0  0  0
  -18.0010  -42.8879   -7.5568 C   0  0  0  0  0  0  0  0  0  0  0  0
  -18.8798  -42.7634   -6.4981 C   0  0  0  0  0  0  0  0  0  0  0  0
  -17.1323  -41.9104   -8.2297 C   0  0  0  0  0  0  0  0  0  0  0  0
  -15.9062  -42.3719   -8.5471 O   0  0  0  0  0  0  0  0  0  0  0  0
  -17.2218  -40.5860   -8.6556 N   0  0  0  0  0  0  0  0  0  0  0  0
  -20.6796  -40.3630   -7.5536 C   0  0  0  0  0  0  0  0  0  0  0  0
  1  2  1  0
  2  3  1  0
  2  4  1  0
  4  5  2  0
  5  6  1  0
  6  7  2  0
  7  8  1  0
  8  9  2  0
  8 10  1  0
 10 11  1  0
 10 12  1  0
 10 13  1  0
 13 14  1  0
 14 15  1  0
 15 16  1  1
 15 17  1  0
 17 18  1  1
 18 19  1  0
 19 20  1  0
 20 21  2  0
 21 22  1  0
 21 23  1  0
 23 24  1  0
 23 25  2  0
 25 26  1  0
 26 27  1  0
 27 28  1  0
 28 29  1  0
 29 30  1  0
 30 31  1  0
 31 32  1  0
 32 33  2  0
 33 34  1  0
 34 35  2  0
 35 36  1  0
 35 37  1  0
 37 38  2  0
 37 39  1  0
 25 40  1  0
  9  4  1  0
 36 31  2  0
 39 17  1  0
 40 19  2  0
M  END
$$$$
