
     RDKit          3D

 40 43  0  0  0  0  0  0  0  0999 V2000
  -17.5963  -34.1347  -11.9503 C   0  0  0  0  0  0  0  0  0  0  0  0
  -17.6873  -35.4896  -11.2344 C   0  0  0  0  0  0  0  0  0  0  0  0
  -18.8262  -36.2335  -11.9335 C   0  0  0  0  0  0  0  0  0  0  0  0
  -16.3977  -36.1770  -11.4962 C   0  0  0  0  0  0  0  0  0  0  0  0
  -15.5577  -35.7042  -12.4877 C   0  0  0  0  0  0  0  0  0  0  0  0
  -14.3607  -36.3243  -12.7462 C   0  0  0  0  0  0  0  0  0  0  0  0
  -13.9724  -37.4310  -12.0225 C   0  0  0  0  0  0  0  0  0  0  0  0
  -14.7759  -37.9187  -11.0426 C   0  0  0  0  0  0  0  0  0  0  0  0
  -15.9800  -37.2846  -10.7913 C   0  0  0  0  0  0  0  0  0  0  0  0
  -14.4513  -39.1119  -10.1821 C   0  0  0  0  0  0  0  0  0  0  0  0
  -14.1234  -40.2232  -11.1632 C   0  0  0  0  0  0  0  0  0  0  0  0
  -13.2206  -38.7479   -9.3993 C   0  0  0  0  0  0  0  0  0  0  0  0
  -15.5333  -39.4509   -9.3184 N   0  0  0  0  0  0  0  0  0  0  0  0
  -14.9538  -39.9937   -8.0745 C   0  0  0  0  0  0  0  0  0  0  0  0
  -15.9610  -40.0403   -6.9878 C   0  0  1  0  0  0  0  0  0  0  0  0
  -15.9134  -38.9234   -6.1865 O   0  0  0  0  0  0  0  0  0  0  0  0
  -17.3950  -40.3205   -7.5068 C   0  0  2  0  0  0  0  0  0  0  0  0
  -18.2777  -40.1968   -6.3807 C   0  0  0  0  0  0  0  0  0  0  0  0
  -19.7453  -40.1967   -6.3755 C   0  0  0  0  0  0  0  0  0  0  0  0
  -20.2033  -39.5435   -5.1911 C   0  0  0  0  0  0  0  0  0  0  0  0
  -21.5053  -39.4371   -4.8157 C   0  0  0  0  0  0  0  0  0  0  0  0
  -21.8954  -38.8024   -3.6779 F   0  0  0  0  0  0  0  0  0  0  0  0
  -22.4075  -40.0166   -5.6680 C   0  0  0  0  0  0  0  0  0  0  0  0
  -23.7921  -39.9069   -5.2804 N   0  0  0  0  0  0  0  0  0  0  0  0
  -22.0207  -40.6818   -6.8611 C   0  0  0  0  0  0  0  0  0  0  0  0
  -23.2235  -41.2882   -7.5158 C   0  0  0  0  0  0  0  0  0  0  0  0
  -23.2530  -42.8010   -7.5124 C   0  0  0  0  0  0  0  0  0  0  0  0
  -23.6136  -43.4384   -6.2284 C   0  0  0  0  0  0  0  0  0  0  0  0
  -22.4919  -43.7665   -5.3063 C   0  0  0  0  0  0  0  0  0  0  0  0
  -21.5612  -44.7711   -5.8156 N   0  0  0  0  0  0  0  0  0  0  0  0
  -20.4727  -44.6197   -6.7355 C   0  0  0  0  0  0  0  0  0  0  0  0
  -20.5760  -45.6238   -7.7356 C   0  0  0  0  0  0  0  0  0  0  0  0
  -19.7332  -45.7079   -8.8050 C   0  0  0  0  0  0  0  0  0  0  0  0
  -18.7641  -44.7467   -8.8593 C   0  0  0  0  0  0  0  0  0  0  0  0
  -18.6024  -43.7115   -7.8933 C   0  0  0  0  0  0  0  0  0  0  0  0
  -19.4778  -43.6758   -6.8251 C   0  0  0  0  0  0  0  0  0  0  0  0
  -17.5237  -42.8016   -8.3074 C   0  0  0  0  0  0  0  0  0  0  0  0
  -16.4083  -43.4157   -8.7498 O   0  0  0  0  0  0  0  0  0  0  0  0
  -17.3195  -41.4245   -8.3802 N   0  0  0  0  0  0  0  0  0  0  0  0
  -20.6971  -40.7633   -7.2073 C   0  0  0  0  0  0  0  0  0  0  0  0
  1  2  1  0
  2  3  1  0
  2  4  1  0
  4  5  2  0
  5  6  1  0
  6  7  2  0
  7  8  1  0
  8  9  2  0
  8 10  1  0
 10 11  1  0
 10 12  1  0
 10 13  1  0
 13 14  1  0
 14 15  1  0
 15 16  1  6
 15 17  1  0
 17 18  1  1
 18 19  1  0
 19 20  1  0
 20 21  2  0
 21 22  1  0
 21 23  1  0
 23 24  1  0
 23 25  2  0
 25 26  1  0
 26 27  1  0
 27 28  1  0
 28 29  1  0
 29 30  1  0
 30 31  1  0
 31 32  1  0
 32 33  2  0
 33 34  1  0
 34 35  2  0
 35 36  1  0
 35 37  1  0
 37 38  2  0
 37 39  1  0
 25 40  1  0
  9  4  1  0
 36 31  2  0
 39 17  1  0
 40 19  2  0
M  END
$$$$
