
     RDKit          3D

 40 43  0  0  0  0  0  0  0  0999 V2000
  -21.0204  -42.2745   -7.7445 C   0  0  0  0  0  0  0  0  0  0  0  0
  -22.0384  -41.3357   -8.4069 C   0  0  0  0  0  0  0  0  0  0  0  0
  -22.8779  -40.7821   -7.2545 C   0  0  0  0  0  0  0  0  0  0  0  0
  -21.2446  -40.2438   -9.0250 C   0  0  0  0  0  0  0  0  0  0  0  0
  -21.0974  -40.1965  -10.3991 C   0  0  0  0  0  0  0  0  0  0  0  0
  -20.3682  -39.1958  -10.9914 C   0  0  0  0  0  0  0  0  0  0  0  0
  -19.7680  -38.2180  -10.2278 C   0  0  0  0  0  0  0  0  0  0  0  0
  -19.8945  -38.2378   -8.8761 C   0  0  0  0  0  0  0  0  0  0  0  0
  -20.6324  -39.2517   -8.2909 C   0  0  0  0  0  0  0  0  0  0  0  0
  -19.2935  -37.2184   -7.9436 C   0  0  0  0  0  0  0  0  0  0  0  0
  -20.3852  -36.1829   -7.7414 C   0  0  0  0  0  0  0  0  0  0  0  0
  -19.0274  -37.9335   -6.6484 C   0  0  0  0  0  0  0  0  0  0  0  0
  -18.0995  -36.6524   -8.4779 N   0  0  0  0  0  0  0  0  0  0  0  0
  -16.9648  -37.4399   -7.9581 C   0  0  0  0  0  0  0  0  0  0  0  0
  -16.3480  -38.2631   -9.0255 C   0  0  1  0  0  0  0  0  0  0  0  0
  -15.2476  -37.6535   -9.5817 O   0  0  0  0  0  0  0  0  0  0  0  0
  -16.0382  -39.7113   -8.5665 C   0  0  2  0  0  0  0  0  0  0  0  0
  -14.9663  -40.1907   -9.3935 C   0  0  0  0  0  0  0  0  0  0  0  0
  -14.1957  -41.4314   -9.2492 C   0  0  0  0  0  0  0  0  0  0  0  0
  -12.9404  -41.2755   -9.9119 C   0  0  0  0  0  0  0  0  0  0  0  0
  -12.0090  -42.2552  -10.0537 C   0  0  0  0  0  0  0  0  0  0  0  0
  -10.8240  -42.0597  -10.6918 F   0  0  0  0  0  0  0  0  0  0  0  0
  -12.3460  -43.4643   -9.5053 C   0  0  0  0  0  0  0  0  0  0  0  0
  -11.3634  -44.5100   -9.6477 N   0  0  0  0  0  0  0  0  0  0  0  0
  -13.5766  -43.6880   -8.8339 C   0  0  0  0  0  0  0  0  0  0  0  0
  -13.6840  -45.1289   -8.4395 C   0  0  0  0  0  0  0  0  0  0  0  0
  -14.7491  -45.9109   -9.1766 C   0  0  0  0  0  0  0  0  0  0  0  0
  -14.4220  -46.3010  -10.5643 C   0  0  0  0  0  0  0  0  0  0  0  0
  -14.8168  -45.3480  -11.6377 C   0  0  0  0  0  0  0  0  0  0  0  0
  -16.2583  -45.1568  -11.7797 N   0  0  0  0  0  0  0  0  0  0  0  0
  -17.1456  -44.3279  -11.0183 C   0  0  0  0  0  0  0  0  0  0  0  0
  -18.2729  -45.1007  -10.6297 C   0  0  0  0  0  0  0  0  0  0  0  0
  -19.2693  -44.6251   -9.8285 C   0  0  0  0  0  0  0  0  0  0  0  0
  -19.1141  -43.3336   -9.4113 C   0  0  0  0  0  0  0  0  0  0  0  0
  -18.0109  -42.5019   -9.7612 C   0  0  0  0  0  0  0  0  0  0  0  0
  -17.0326  -43.0297  -10.5815 C   0  0  0  0  0  0  0  0  0  0  0  0
  -18.1163  -41.2091   -9.0679 C   0  0  0  0  0  0  0  0  0  0  0  0
  -19.3442  -40.6538   -9.0965 O   0  0  0  0  0  0  0  0  0  0  0  0
  -17.2718  -40.3599   -8.3546 N   0  0  0  0  0  0  0  0  0  0  0  0
  -14.4880  -42.6722   -8.7074 C   0  0  0  0  0  0  0  0  0  0  0  0
  1  2  1  0
  2  3  1  0
  2  4  1  0
  4  5  2  0
  5  6  1  0
  6  7  2  0
  7  8  1  0
  8  9  2  0
  8 10  1  0
 10 11  1  0
 10 12  1  0
 10 13  1  0
 13 14  1  0
 14 15  1  0
 15 16  1  1
 15 17  1  0
 17 18  1  6
 18 19  1  0
 19 20  1  0
 20 21  2  0
 21 22  1  0
 21 23  1  0
 23 24  1  0
 23 25  2  0
 25 26  1  0
 26 27  1  0
 27 28  1  0
 28 29  1  0
 29 30  1  0
 30 31  1  0
 31 32  1  0
 32 33  2  0
 33 34  1  0
 34 35  2  0
 35 36  1  0
 35 37  1  0
 37 38  2  0
 37 39  1  0
 25 40  1  0
  9  4  1  0
 36 31  2  0
 39 17  1  0
 40 19  2  0
M  END
$$$$
