
     RDKit          3D

 40 43  0  0  0  0  0  0  0  0999 V2000
  -14.8463  -34.8928  -12.3983 C   0  0  0  0  0  0  0  0  0  0  0  0
  -15.6460  -35.5412  -11.2597 C   0  0  0  0  0  0  0  0  0  0  0  0
  -17.1114  -35.2482  -11.5854 C   0  0  0  0  0  0  0  0  0  0  0  0
  -15.3873  -36.9998  -11.3583 C   0  0  0  0  0  0  0  0  0  0  0  0
  -16.0157  -37.7426  -12.3409 C   0  0  0  0  0  0  0  0  0  0  0  0
  -15.7906  -39.0922  -12.4502 C   0  0  0  0  0  0  0  0  0  0  0  0
  -14.9336  -39.7338  -11.5825 C   0  0  0  0  0  0  0  0  0  0  0  0
  -14.3020  -39.0313  -10.6073 C   0  0  0  0  0  0  0  0  0  0  0  0
  -14.5369  -37.6712  -10.5074 C   0  0  0  0  0  0  0  0  0  0  0  0
  -13.3381  -39.6226   -9.6117 C   0  0  0  0  0  0  0  0  0  0  0  0
  -13.4047  -41.1211   -9.8466 C   0  0  0  0  0  0  0  0  0  0  0  0
  -11.9750  -39.1113   -9.9861 C   0  0  0  0  0  0  0  0  0  0  0  0
  -13.6756  -39.2666   -8.2734 N   0  0  0  0  0  0  0  0  0  0  0  0
  -14.6764  -40.2400   -7.7952 C   0  0  0  0  0  0  0  0  0  0  0  0
  -15.7548  -39.5701   -7.0298 C   0  0  1  0  0  0  0  0  0  0  0  0
  -15.5161  -38.2259   -6.8628 O   0  0  0  0  0  0  0  0  0  0  0  0
  -17.1655  -39.8400   -7.6139 C   0  0  2  0  0  0  0  0  0  0  0  0
  -18.1063  -39.6176   -6.5518 C   0  0  0  0  0  0  0  0  0  0  0  0
  -19.5710  -39.5731   -6.6332 C   0  0  0  0  0  0  0  0  0  0  0  0
  -20.0734  -38.8315   -5.5210 C   0  0  0  0  0  0  0  0  0  0  0  0
  -21.3903  -38.6620   -5.2305 C   0  0  0  0  0  0  0  0  0  0  0  0
  -21.8230  -37.9439   -4.1597 F   0  0  0  0  0  0  0  0  0  0  0  0
  -22.2615  -39.2679   -6.0966 C   0  0  0  0  0  0  0  0  0  0  0  0
  -23.6614  -39.0919   -5.7990 N   0  0  0  0  0  0  0  0  0  0  0  0
  -21.8301  -40.0199   -7.2208 C   0  0  0  0  0  0  0  0  0  0  0  0
  -23.0134  -40.6308   -7.9061 C   0  0  0  0  0  0  0  0  0  0  0  0
  -23.0940  -42.1387   -7.8098 C   0  0  0  0  0  0  0  0  0  0  0  0
  -23.5484  -42.6810   -6.5119 C   0  0  0  0  0  0  0  0  0  0  0  0
  -22.4928  -42.9825   -5.5065 C   0  0  0  0  0  0  0  0  0  0  0  0
  -21.5690  -44.0453   -5.8961 N   0  0  0  0  0  0  0  0  0  0  0  0
  -20.4253  -43.9862   -6.7579 C   0  0  0  0  0  0  0  0  0  0  0  0
  -20.5053  -45.0492   -7.6976 C   0  0  0  0  0  0  0  0  0  0  0  0
  -19.6063  -45.2273   -8.7081 C   0  0  0  0  0  0  0  0  0  0  0  0
  -18.6038  -44.3011   -8.7652 C   0  0  0  0  0  0  0  0  0  0  0  0
  -18.4626  -43.2111   -7.8579 C   0  0  0  0  0  0  0  0  0  0  0  0
  -19.3957  -43.0803   -6.8476 C   0  0  0  0  0  0  0  0  0  0  0  0
  -17.3320  -42.3626   -8.2639 C   0  0  0  0  0  0  0  0  0  0  0  0
  -16.2146  -43.0371   -8.6004 O   0  0  0  0  0  0  0  0  0  0  0  0
  -17.0777  -40.9998   -8.4105 N   0  0  0  0  0  0  0  0  0  0  0  0
  -20.4924  -40.1633   -7.4826 C   0  0  0  0  0  0  0  0  0  0  0  0
  1  2  1  0
  2  3  1  0
  2  4  1  0
  4  5  2  0
  5  6  1  0
  6  7  2  0
  7  8  1  0
  8  9  2  0
  8 10  1  0
 10 11  1  0
 10 12  1  0
 10 13  1  0
 13 14  1  0
 14 15  1  0
 15 16  1  6
 15 17  1  0
 17 18  1  1
 18 19  1  0
 19 20  1  0
 20 21  2  0
 21 22  1  0
 21 23  1  0
 23 24  1  0
 23 25  2  0
 25 26  1  0
 26 27  1  0
 27 28  1  0
 28 29  1  0
 29 30  1  0
 30 31  1  0
 31 32  1  0
 32 33  2  0
 33 34  1  0
 34 35  2  0
 35 36  1  0
 35 37  1  0
 37 38  2  0
 37 39  1  0
 25 40  1  0
  9  4  1  0
 36 31  2  0
 39 17  1  0
 40 19  2  0
M  END
$$$$
