
     RDKit          3D

 40 43  0  0  0  0  0  0  0  0999 V2000
  -18.0812  -35.3067  -10.1419 C   0  0  0  0  0  0  0  0  0  0  0  0
  -17.5094  -35.4658  -11.5575 C   0  0  0  0  0  0  0  0  0  0  0  0
  -16.3404  -34.4819  -11.6275 C   0  0  0  0  0  0  0  0  0  0  0  0
  -17.0037  -36.8593  -11.6393 C   0  0  0  0  0  0  0  0  0  0  0  0
  -17.4979  -37.7121  -12.6092 C   0  0  0  0  0  0  0  0  0  0  0  0
  -17.0442  -39.0042  -12.7029 C   0  0  0  0  0  0  0  0  0  0  0  0
  -16.0869  -39.4772  -11.8316 C   0  0  0  0  0  0  0  0  0  0  0  0
  -15.5827  -38.6637  -10.8686 C   0  0  0  0  0  0  0  0  0  0  0  0
  -16.0479  -37.3631  -10.7845 C   0  0  0  0  0  0  0  0  0  0  0  0
  -14.5284  -39.0671   -9.8708 C   0  0  0  0  0  0  0  0  0  0  0  0
  -13.6283  -40.0314  -10.6224 C   0  0  0  0  0  0  0  0  0  0  0  0
  -13.7632  -37.8178   -9.5339 C   0  0  0  0  0  0  0  0  0  0  0  0
  -15.1010  -39.6543   -8.7050 N   0  0  0  0  0  0  0  0  0  0  0  0
  -15.7703  -38.5774   -7.9498 C   0  0  0  0  0  0  0  0  0  0  0  0
  -16.5383  -39.1212   -6.8045 C   0  0  1  0  0  0  0  0  0  0  0  0
  -16.4384  -38.3259   -5.6868 O   0  0  0  0  0  0  0  0  0  0  0  0
  -18.0139  -39.4347   -7.1628 C   0  0  2  0  0  0  0  0  0  0  0  0
  -18.7124  -39.6273   -5.9228 C   0  0  0  0  0  0  0  0  0  0  0  0
  -20.1569  -39.7755   -5.7099 C   0  0  0  0  0  0  0  0  0  0  0  0
  -20.4641  -39.4211   -4.3611 C   0  0  0  0  0  0  0  0  0  0  0  0
  -21.6939  -39.5228   -3.7913 C   0  0  0  0  0  0  0  0  0  0  0  0
  -21.9404  -39.1704   -2.5010 F   0  0  0  0  0  0  0  0  0  0  0  0
  -22.6783  -40.0081   -4.6107 C   0  0  0  0  0  0  0  0  0  0  0  0
  -23.9877  -40.1174   -4.0166 N   0  0  0  0  0  0  0  0  0  0  0  0
  -22.4418  -40.3797   -5.9603 C   0  0  0  0  0  0  0  0  0  0  0  0
  -23.6890  -40.9607   -6.5519 C   0  0  0  0  0  0  0  0  0  0  0  0
  -23.6135  -42.4389   -6.8659 C   0  0  0  0  0  0  0  0  0  0  0  0
  -23.7202  -43.3527   -5.7089 C   0  0  0  0  0  0  0  0  0  0  0  0
  -22.4461  -43.7440   -5.0458 C   0  0  0  0  0  0  0  0  0  0  0  0
  -21.5417  -44.5282   -5.8835 N   0  0  0  0  0  0  0  0  0  0  0  0
  -20.6266  -44.0879   -6.8949 C   0  0  0  0  0  0  0  0  0  0  0  0
  -20.8186  -44.8774   -8.0606 C   0  0  0  0  0  0  0  0  0  0  0  0
  -20.1533  -44.6615   -9.2317 C   0  0  0  0  0  0  0  0  0  0  0  0
  -19.2736  -43.6166   -9.2172 C   0  0  0  0  0  0  0  0  0  0  0  0
  -19.0315  -42.7840   -8.0860 C   0  0  0  0  0  0  0  0  0  0  0  0
  -19.7260  -43.0501   -6.9218 C   0  0  0  0  0  0  0  0  0  0  0  0
  -18.0978  -41.7063   -8.4458 C   0  0  0  0  0  0  0  0  0  0  0  0
  -17.0275  -42.1047   -9.1620 O   0  0  0  0  0  0  0  0  0  0  0  0
  -18.0029  -40.3289   -8.2525 N   0  0  0  0  0  0  0  0  0  0  0  0
  -21.1878  -40.2573   -6.4998 C   0  0  0  0  0  0  0  0  0  0  0  0
  1  2  1  0
  2  3  1  0
  2  4  1  0
  4  5  2  0
  5  6  1  0
  6  7  2  0
  7  8  1  0
  8  9  2  0
  8 10  1  0
 10 11  1  0
 10 12  1  0
 10 13  1  0
 13 14  1  0
 14 15  1  0
 15 16  1  1
 15 17  1  0
 17 18  1  1
 18 19  1  0
 19 20  1  0
 20 21  2  0
 21 22  1  0
 21 23  1  0
 23 24  1  0
 23 25  2  0
 25 26  1  0
 26 27  1  0
 27 28  1  0
 28 29  1  0
 29 30  1  0
 30 31  1  0
 31 32  1  0
 32 33  2  0
 33 34  1  0
 34 35  2  0
 35 36  1  0
 35 37  1  0
 37 38  2  0
 37 39  1  0
 25 40  1  0
  9  4  1  0
 36 31  2  0
 39 17  1  0
 40 19  2  0
M  END
$$$$
