
     RDKit          3D

 40 43  0  0  0  0  0  0  0  0999 V2000
  -15.2538  -37.2158  -15.4837 C   0  0  0  0  0  0  0  0  0  0  0  0
  -15.3057  -38.5738  -14.7698 C   0  0  0  0  0  0  0  0  0  0  0  0
  -14.9955  -39.6060  -15.8550 C   0  0  0  0  0  0  0  0  0  0  0  0
  -14.2115  -38.5495  -13.7666 C   0  0  0  0  0  0  0  0  0  0  0  0
  -12.9154  -38.8297  -14.1588 C   0  0  0  0  0  0  0  0  0  0  0  0
  -11.8888  -38.8125  -13.2478 C   0  0  0  0  0  0  0  0  0  0  0  0
  -12.1297  -38.5157  -11.9238 C   0  0  0  0  0  0  0  0  0  0  0  0
  -13.3918  -38.2364  -11.5085 C   0  0  0  0  0  0  0  0  0  0  0  0
  -14.4183  -38.2566  -12.4364 C   0  0  0  0  0  0  0  0  0  0  0  0
  -13.7713  -37.8884  -10.0926 C   0  0  0  0  0  0  0  0  0  0  0  0
  -12.4501  -37.7404   -9.3595 C   0  0  0  0  0  0  0  0  0  0  0  0
  -14.4679  -36.5578  -10.1551 C   0  0  0  0  0  0  0  0  0  0  0  0
  -14.6079  -38.8844   -9.5096 N   0  0  0  0  0  0  0  0  0  0  0  0
  -14.8377  -38.5018   -8.1030 C   0  0  0  0  0  0  0  0  0  0  0  0
  -15.7328  -39.4678   -7.4224 C   0  0  1  0  0  0  0  0  0  0  0  0
  -15.8464  -39.2118   -6.0759 O   0  0  0  0  0  0  0  0  0  0  0  0
  -17.1181  -39.5919   -8.1078 C   0  0  2  0  0  0  0  0  0  0  0  0
  -18.1074  -39.3434   -7.0968 C   0  0  0  0  0  0  0  0  0  0  0  0
  -19.5551  -39.1741   -7.2678 C   0  0  0  0  0  0  0  0  0  0  0  0
  -20.0706  -38.4476   -6.1517 C   0  0  0  0  0  0  0  0  0  0  0  0
  -21.3864  -38.1839   -5.9361 C   0  0  0  0  0  0  0  0  0  0  0  0
  -21.8316  -37.4846   -4.8580 F   0  0  0  0  0  0  0  0  0  0  0  0
  -22.2428  -38.6735   -6.8864 C   0  0  0  0  0  0  0  0  0  0  0  0
  -23.6412  -38.3968   -6.6686 N   0  0  0  0  0  0  0  0  0  0  0  0
  -21.7980  -39.4039   -8.0195 C   0  0  0  0  0  0  0  0  0  0  0  0
  -22.9774  -39.8814   -8.8095 C   0  0  0  0  0  0  0  0  0  0  0  0
  -23.1838  -41.3803   -8.7988 C   0  0  0  0  0  0  0  0  0  0  0  0
  -23.7659  -41.9446   -7.5628 C   0  0  0  0  0  0  0  0  0  0  0  0
  -22.8074  -42.3802   -6.5103 C   0  0  0  0  0  0  0  0  0  0  0  0
  -21.9469  -43.4959   -6.8969 N   0  0  0  0  0  0  0  0  0  0  0  0
  -20.7469  -43.4904   -7.6806 C   0  0  0  0  0  0  0  0  0  0  0  0
  -20.8478  -44.4969   -8.6786 C   0  0  0  0  0  0  0  0  0  0  0  0
  -19.9000  -44.7002   -9.6384 C   0  0  0  0  0  0  0  0  0  0  0  0
  -18.8256  -43.8584   -9.5829 C   0  0  0  0  0  0  0  0  0  0  0  0
  -18.6594  -42.8285   -8.6119 C   0  0  0  0  0  0  0  0  0  0  0  0
  -19.6450  -42.6695   -7.6569 C   0  0  0  0  0  0  0  0  0  0  0  0
  -17.4404  -42.0579   -8.9001 C   0  0  0  0  0  0  0  0  0  0  0  0
  -16.3600  -42.8057   -9.2010 O   0  0  0  0  0  0  0  0  0  0  0  0
  -17.0694  -40.7154   -8.9578 N   0  0  0  0  0  0  0  0  0  0  0  0
  -20.4614  -39.6447   -8.2037 C   0  0  0  0  0  0  0  0  0  0  0  0
  1  2  1  0
  2  3  1  0
  2  4  1  0
  4  5  2  0
  5  6  1  0
  6  7  2  0
  7  8  1  0
  8  9  2  0
  8 10  1  0
 10 11  1  0
 10 12  1  0
 10 13  1  0
 13 14  1  0
 14 15  1  0
 15 16  1  1
 15 17  1  0
 17 18  1  1
 18 19  1  0
 19 20  1  0
 20 21  2  0
 21 22  1  0
 21 23  1  0
 23 24  1  0
 23 25  2  0
 25 26  1  0
 26 27  1  0
 27 28  1  0
 28 29  1  0
 29 30  1  0
 30 31  1  0
 31 32  1  0
 32 33  2  0
 33 34  1  0
 34 35  2  0
 35 36  1  0
 35 37  1  0
 37 38  2  0
 37 39  1  0
 25 40  1  0
  9  4  1  0
 36 31  2  0
 39 17  1  0
 40 19  2  0
M  END
$$$$
