
     RDKit          3D

 40 43  0  0  0  0  0  0  0  0999 V2000
  -11.3048  -39.3926  -14.6168 C   0  0  0  0  0  0  0  0  0  0  0  0
  -12.7463  -38.9077  -14.8251 C   0  0  0  0  0  0  0  0  0  0  0  0
  -13.6273  -40.0819  -14.3956 C   0  0  0  0  0  0  0  0  0  0  0  0
  -12.9322  -37.7676  -13.8925 C   0  0  0  0  0  0  0  0  0  0  0  0
  -12.3323  -36.5524  -14.1671 C   0  0  0  0  0  0  0  0  0  0  0  0
  -12.4913  -35.4852  -13.3186 C   0  0  0  0  0  0  0  0  0  0  0  0
  -13.2522  -35.6039  -12.1758 C   0  0  0  0  0  0  0  0  0  0  0  0
  -13.8537  -36.7844  -11.8792 C   0  0  0  0  0  0  0  0  0  0  0  0
  -13.6861  -37.8529  -12.7425 C   0  0  0  0  0  0  0  0  0  0  0  0
  -14.7153  -37.0272  -10.6673 C   0  0  0  0  0  0  0  0  0  0  0  0
  -13.7363  -37.3283   -9.5465 C   0  0  0  0  0  0  0  0  0  0  0  0
  -15.4253  -35.7326  -10.3856 C   0  0  0  0  0  0  0  0  0  0  0  0
  -15.6407  -38.0900  -10.8809 N   0  0  0  0  0  0  0  0  0  0  0  0
  -16.9438  -37.6582  -10.3392 C   0  0  0  0  0  0  0  0  0  0  0  0
  -17.1252  -38.1204   -8.9425 C   0  0  1  0  0  0  0  0  0  0  0  0
  -17.1205  -37.0781   -8.0451 O   0  0  0  0  0  0  0  0  0  0  0  0
  -18.3670  -39.0318   -8.7658 C   0  0  2  0  0  0  0  0  0  0  0  0
  -18.7048  -39.0106   -7.3701 C   0  0  0  0  0  0  0  0  0  0  0  0
  -19.8950  -39.5683   -6.7172 C   0  0  0  0  0  0  0  0  0  0  0  0
  -20.0973  -38.8968   -5.4732 C   0  0  0  0  0  0  0  0  0  0  0  0
  -21.0570  -39.2150   -4.5649 C   0  0  0  0  0  0  0  0  0  0  0  0
  -21.2140  -38.5445   -3.3921 F   0  0  0  0  0  0  0  0  0  0  0  0
  -21.8641  -40.2656   -4.9127 C   0  0  0  0  0  0  0  0  0  0  0  0
  -22.8877  -40.6096   -3.9570 N   0  0  0  0  0  0  0  0  0  0  0  0
  -21.7178  -40.9769   -6.1326 C   0  0  0  0  0  0  0  0  0  0  0  0
  -22.6813  -42.1230   -6.1695 C   0  0  0  0  0  0  0  0  0  0  0  0
  -22.0412  -43.4925   -6.1064 C   0  0  0  0  0  0  0  0  0  0  0  0
  -21.5605  -43.9217   -4.7761 C   0  0  0  0  0  0  0  0  0  0  0  0
  -20.1506  -43.5875   -4.4345 C   0  0  0  0  0  0  0  0  0  0  0  0
  -19.1505  -44.2470   -5.2710 N   0  0  0  0  0  0  0  0  0  0  0  0
  -18.6868  -43.8976   -6.5813 C   0  0  0  0  0  0  0  0  0  0  0  0
  -18.7158  -45.0578   -7.4012 C   0  0  0  0  0  0  0  0  0  0  0  0
  -18.4060  -45.0464   -8.7297 C   0  0  0  0  0  0  0  0  0  0  0  0
  -18.0608  -43.8256   -9.2363 C   0  0  0  0  0  0  0  0  0  0  0  0
  -18.0110  -42.6226   -8.4737 C   0  0  0  0  0  0  0  0  0  0  0  0
  -18.3266  -42.6903   -7.1304 C   0  0  0  0  0  0  0  0  0  0  0  0
  -17.6928  -41.4850   -9.3497 C   0  0  0  0  0  0  0  0  0  0  0  0
  -16.6880  -41.7087  -10.2199 O   0  0  0  0  0  0  0  0  0  0  0  0
  -18.1583  -40.1860   -9.5479 N   0  0  0  0  0  0  0  0  0  0  0  0
  -20.7402  -40.6217   -7.0251 C   0  0  0  0  0  0  0  0  0  0  0  0
  1  2  1  0
  2  3  1  0
  2  4  1  0
  4  5  2  0
  5  6  1  0
  6  7  2  0
  7  8  1  0
  8  9  2  0
  8 10  1  0
 10 11  1  0
 10 12  1  0
 10 13  1  0
 13 14  1  0
 14 15  1  0
 15 16  1  1
 15 17  1  0
 17 18  1  1
 18 19  1  0
 19 20  1  0
 20 21  2  0
 21 22  1  0
 21 23  1  0
 23 24  1  0
 23 25  2  0
 25 26  1  0
 26 27  1  0
 27 28  1  0
 28 29  1  0
 29 30  1  0
 30 31  1  0
 31 32  1  0
 32 33  2  0
 33 34  1  0
 34 35  2  0
 35 36  1  0
 35 37  1  0
 37 38  2  0
 37 39  1  0
 25 40  1  0
  9  4  1  0
 36 31  2  0
 39 17  1  0
 40 19  2  0
M  END
$$$$
