
     RDKit          3D

 40 43  0  0  0  0  0  0  0  0999 V2000
  -13.2704  -33.5986  -11.5822 C   0  0  0  0  0  0  0  0  0  0  0  0
  -12.6080  -34.4998  -12.6337 C   0  0  0  0  0  0  0  0  0  0  0  0
  -11.1270  -34.1188  -12.6084 C   0  0  0  0  0  0  0  0  0  0  0  0
  -12.7812  -35.8913  -12.1460 C   0  0  0  0  0  0  0  0  0  0  0  0
  -11.7864  -36.8252  -12.3705 C   0  0  0  0  0  0  0  0  0  0  0  0
  -11.9257  -38.1171  -11.9280 C   0  0  0  0  0  0  0  0  0  0  0  0
  -13.0603  -38.5090  -11.2511 C   0  0  0  0  0  0  0  0  0  0  0  0
  -14.0544  -37.6147  -11.0156 C   0  0  0  0  0  0  0  0  0  0  0  0
  -13.9021  -36.3153  -11.4665 C   0  0  0  0  0  0  0  0  0  0  0  0
  -15.3311  -37.9261  -10.2788 C   0  0  0  0  0  0  0  0  0  0  0  0
  -15.7264  -36.6198   -9.6136 C   0  0  0  0  0  0  0  0  0  0  0  0
  -16.3471  -38.2892  -11.3255 C   0  0  0  0  0  0  0  0  0  0  0  0
  -15.1548  -38.9832   -9.3390 N   0  0  0  0  0  0  0  0  0  0  0  0
  -15.2969  -38.4040   -7.9891 C   0  0  0  0  0  0  0  0  0  0  0  0
  -16.1592  -39.2495   -7.1294 C   0  0  1  0  0  0  0  0  0  0  0  0
  -16.4224  -38.6586   -5.9157 O   0  0  0  0  0  0  0  0  0  0  0  0
  -17.4563  -39.7095   -7.8436 C   0  0  2  0  0  0  0  0  0  0  0  0
  -18.5487  -39.4008   -6.9639 C   0  0  0  0  0  0  0  0  0  0  0  0
  -19.9873  -39.4791   -7.2436 C   0  0  0  0  0  0  0  0  0  0  0  0
  -20.6814  -38.6182   -6.3400 C   0  0  0  0  0  0  0  0  0  0  0  0
  -22.0333  -38.5063   -6.2563 C   0  0  0  0  0  0  0  0  0  0  0  0
  -22.6513  -37.6695   -5.3802 F   0  0  0  0  0  0  0  0  0  0  0  0
  -22.7392  -39.2994   -7.1217 C   0  0  0  0  0  0  0  0  0  0  0  0
  -24.1746  -39.1861   -7.0430 N   0  0  0  0  0  0  0  0  0  0  0  0
  -22.1130  -40.1777   -8.0447 C   0  0  0  0  0  0  0  0  0  0  0  0
  -23.1528  -40.9720   -8.7735 C   0  0  0  0  0  0  0  0  0  0  0  0
  -23.1653  -42.4499   -8.4492 C   0  0  0  0  0  0  0  0  0  0  0  0
  -23.7694  -42.8229   -7.1527 C   0  0  0  0  0  0  0  0  0  0  0  0
  -22.8524  -42.8894   -5.9819 C   0  0  0  0  0  0  0  0  0  0  0  0
  -21.8271  -43.9264   -6.0718 N   0  0  0  0  0  0  0  0  0  0  0  0
  -20.5776  -43.9122   -6.7737 C   0  0  0  0  0  0  0  0  0  0  0  0
  -20.4664  -45.1076   -7.5339 C   0  0  0  0  0  0  0  0  0  0  0  0
  -19.4250  -45.3680   -8.3757 C   0  0  0  0  0  0  0  0  0  0  0  0
  -18.4756  -44.3884   -8.4474 C   0  0  0  0  0  0  0  0  0  0  0  0
  -18.5231  -43.1665   -7.7151 C   0  0  0  0  0  0  0  0  0  0  0  0
  -19.5957  -42.9555   -6.8704 C   0  0  0  0  0  0  0  0  0  0  0  0
  -17.3935  -42.3065   -8.0988 C   0  0  0  0  0  0  0  0  0  0  0  0
  -16.2051  -42.9382   -8.1732 O   0  0  0  0  0  0  0  0  0  0  0  0
  -17.1944  -40.9661   -8.4263 N   0  0  0  0  0  0  0  0  0  0  0  0
  -20.7460  -40.2580   -8.1017 C   0  0  0  0  0  0  0  0  0  0  0  0
  1  2  1  0
  2  3  1  0
  2  4  1  0
  4  5  2  0
  5  6  1  0
  6  7  2  0
  7  8  1  0
  8  9  2  0
  8 10  1  0
 10 11  1  0
 10 12  1  0
 10 13  1  0
 13 14  1  0
 14 15  1  0
 15 16  1  1
 15 17  1  0
 17 18  1  1
 18 19  1  0
 19 20  1  0
 20 21  2  0
 21 22  1  0
 21 23  1  0
 23 24  1  0
 23 25  2  0
 25 26  1  0
 26 27  1  0
 27 28  1  0
 28 29  1  0
 29 30  1  0
 30 31  1  0
 31 32  1  0
 32 33  2  0
 33 34  1  0
 34 35  2  0
 35 36  1  0
 35 37  1  0
 37 38  2  0
 37 39  1  0
 25 40  1  0
  9  4  1  0
 36 31  2  0
 39 17  1  0
 40 19  2  0
M  END
$$$$
