
     RDKit          3D

 40 43  0  0  0  0  0  0  0  0999 V2000
  -18.9968  -39.7141  -12.6895 C   0  0  0  0  0  0  0  0  0  0  0  0
  -19.1262  -38.1978  -12.8911 C   0  0  0  0  0  0  0  0  0  0  0  0
  -20.3581  -37.7921  -12.0804 C   0  0  0  0  0  0  0  0  0  0  0  0
  -17.9063  -37.6008  -12.2913 C   0  0  0  0  0  0  0  0  0  0  0  0
  -17.7528  -36.2266  -12.2745 C   0  0  0  0  0  0  0  0  0  0  0  0
  -16.6332  -35.6536  -11.7247 C   0  0  0  0  0  0  0  0  0  0  0  0
  -15.6396  -36.4369  -11.1785 C   0  0  0  0  0  0  0  0  0  0  0  0
  -15.7618  -37.7892  -11.1802 C   0  0  0  0  0  0  0  0  0  0  0  0
  -16.8952  -38.3549  -11.7372 C   0  0  0  0  0  0  0  0  0  0  0  0
  -14.7477  -38.7426  -10.6035 C   0  0  0  0  0  0  0  0  0  0  0  0
  -14.3714  -39.6563  -11.7561 C   0  0  0  0  0  0  0  0  0  0  0  0
  -13.5600  -37.9103  -10.2082 C   0  0  0  0  0  0  0  0  0  0  0  0
  -15.2713  -39.4606   -9.4890 N   0  0  0  0  0  0  0  0  0  0  0  0
  -15.7347  -38.4677   -8.5005 C   0  0  0  0  0  0  0  0  0  0  0  0
  -16.3012  -39.1280   -7.3003 C   0  0  1  0  0  0  0  0  0  0  0  0
  -16.1029  -38.3885   -6.1577 O   0  0  0  0  0  0  0  0  0  0  0  0
  -17.7876  -39.5311   -7.4792 C   0  0  2  0  0  0  0  0  0  0  0  0
  -18.3237  -39.7426   -6.1638 C   0  0  0  0  0  0  0  0  0  0  0  0
  -19.7222  -39.9694   -5.7808 C   0  0  0  0  0  0  0  0  0  0  0  0
  -19.8898  -39.6108   -4.4088 C   0  0  0  0  0  0  0  0  0  0  0  0
  -21.0363  -39.7731   -3.6971 C   0  0  0  0  0  0  0  0  0  0  0  0
  -21.1505  -39.4138   -2.3903 F   0  0  0  0  0  0  0  0  0  0  0  0
  -22.0797  -40.3273   -4.3901 C   0  0  0  0  0  0  0  0  0  0  0  0
  -23.3019  -40.5012   -3.6449 N   0  0  0  0  0  0  0  0  0  0  0  0
  -21.9813  -40.7071   -5.7545 C   0  0  0  0  0  0  0  0  0  0  0  0
  -23.2529  -41.3682   -6.1894 C   0  0  0  0  0  0  0  0  0  0  0  0
  -23.1282  -42.8447   -6.4955 C   0  0  0  0  0  0  0  0  0  0  0  0
  -23.0450  -43.7437   -5.3251 C   0  0  0  0  0  0  0  0  0  0  0  0
  -21.6813  -44.0505   -4.8129 C   0  0  0  0  0  0  0  0  0  0  0  0
  -20.8367  -44.7957   -5.7435 N   0  0  0  0  0  0  0  0  0  0  0  0
  -20.0736  -44.3207   -6.8599 C   0  0  0  0  0  0  0  0  0  0  0  0
  -20.3541  -45.1392   -7.9870 C   0  0  0  0  0  0  0  0  0  0  0  0
  -19.8441  -44.9052   -9.2304 C   0  0  0  0  0  0  0  0  0  0  0  0
  -19.0316  -43.8116   -9.3299 C   0  0  0  0  0  0  0  0  0  0  0  0
  -18.7081  -42.9479   -8.2433 C   0  0  0  0  0  0  0  0  0  0  0  0
  -19.2447  -43.2338   -7.0028 C   0  0  0  0  0  0  0  0  0  0  0  0
  -17.8876  -41.8247   -8.7211 C   0  0  0  0  0  0  0  0  0  0  0  0
  -16.8871  -42.1733   -9.5544 O   0  0  0  0  0  0  0  0  0  0  0  0
  -17.8517  -40.4412   -8.5538 N   0  0  0  0  0  0  0  0  0  0  0  0
  -20.8084  -40.5223   -6.4390 C   0  0  0  0  0  0  0  0  0  0  0  0
  1  2  1  0
  2  3  1  0
  2  4  1  0
  4  5  2  0
  5  6  1  0
  6  7  2  0
  7  8  1  0
  8  9  2  0
  8 10  1  0
 10 11  1  0
 10 12  1  0
 10 13  1  0
 13 14  1  0
 14 15  1  0
 15 16  1  1
 15 17  1  0
 17 18  1  1
 18 19  1  0
 19 20  1  0
 20 21  2  0
 21 22  1  0
 21 23  1  0
 23 24  1  0
 23 25  2  0
 25 26  1  0
 26 27  1  0
 27 28  1  0
 28 29  1  0
 29 30  1  0
 30 31  1  0
 31 32  1  0
 32 33  2  0
 33 34  1  0
 34 35  2  0
 35 36  1  0
 35 37  1  0
 37 38  2  0
 37 39  1  0
 25 40  1  0
  9  4  1  0
 36 31  2  0
 39 17  1  0
 40 19  2  0
M  END
$$$$
