
     RDKit          3D

 40 43  0  0  0  0  0  0  0  0999 V2000
  -22.5163  -43.2162   -6.3926 C   0  0  0  0  0  0  0  0  0  0  0  0
  -22.8766  -42.0799   -5.4255 C   0  0  0  0  0  0  0  0  0  0  0  0
  -21.9086  -42.2345   -4.2514 C   0  0  0  0  0  0  0  0  0  0  0  0
  -22.5913  -40.8181   -6.1539 C   0  0  0  0  0  0  0  0  0  0  0  0
  -23.4329  -39.7318   -5.9993 C   0  0  0  0  0  0  0  0  0  0  0  0
  -23.1877  -38.5557   -6.6630 C   0  0  0  0  0  0  0  0  0  0  0  0
  -22.0974  -38.4342   -7.4971 C   0  0  0  0  0  0  0  0  0  0  0  0
  -21.2529  -39.4833   -7.6693 C   0  0  0  0  0  0  0  0  0  0  0  0
  -21.5107  -40.6637   -6.9945 C   0  0  0  0  0  0  0  0  0  0  0  0
  -20.0270  -39.4626   -8.5449 C   0  0  0  0  0  0  0  0  0  0  0  0
  -20.4307  -40.2163   -9.7995 C   0  0  0  0  0  0  0  0  0  0  0  0
  -19.7704  -38.0201   -8.8810 C   0  0  0  0  0  0  0  0  0  0  0  0
  -18.9032  -40.0511   -7.8950 N   0  0  0  0  0  0  0  0  0  0  0  0
  -18.1654  -38.9672   -7.2179 C   0  0  0  0  0  0  0  0  0  0  0  0
  -16.7993  -38.8181   -7.7736 C   0  0  1  0  0  0  0  0  0  0  0  0
  -16.0630  -37.8737   -7.0971 O   0  0  0  0  0  0  0  0  0  0  0  0
  -16.0449  -40.1678   -7.8888 C   0  0  2  0  0  0  0  0  0  0  0  0
  -14.7870  -39.8898   -8.5237 C   0  0  0  0  0  0  0  0  0  0  0  0
  -13.6446  -40.7929   -8.7056 C   0  0  0  0  0  0  0  0  0  0  0  0
  -12.4626  -40.0123   -8.8867 C   0  0  0  0  0  0  0  0  0  0  0  0
  -11.2325  -40.5176   -9.1678 C   0  0  0  0  0  0  0  0  0  0  0  0
  -10.1327  -39.7343   -9.3298 F   0  0  0  0  0  0  0  0  0  0  0  0
  -11.1733  -41.8817   -9.2777 C   0  0  0  0  0  0  0  0  0  0  0  0
   -9.8721  -42.4284   -9.5729 N   0  0  0  0  0  0  0  0  0  0  0  0
  -12.3091  -42.7167   -9.1103 C   0  0  0  0  0  0  0  0  0  0  0  0
  -11.9369  -44.1404   -9.3892 C   0  0  0  0  0  0  0  0  0  0  0  0
  -12.5615  -44.7272  -10.6361 C   0  0  0  0  0  0  0  0  0  0  0  0
  -11.9631  -44.3048  -11.9201 C   0  0  0  0  0  0  0  0  0  0  0  0
  -12.5501  -43.0995  -12.5672 C   0  0  0  0  0  0  0  0  0  0  0  0
  -13.9389  -43.2549  -12.9937 N   0  0  0  0  0  0  0  0  0  0  0  0
  -15.1435  -43.1598  -12.2230 C   0  0  0  0  0  0  0  0  0  0  0  0
  -15.9552  -44.2925  -12.5013 C   0  0  0  0  0  0  0  0  0  0  0  0
  -17.1388  -44.5412  -11.8705 C   0  0  0  0  0  0  0  0  0  0  0  0
  -17.5042  -43.6172  -10.9331 C   0  0  0  0  0  0  0  0  0  0  0  0
  -16.7403  -42.4601  -10.6031 C   0  0  0  0  0  0  0  0  0  0  0  0
  -15.5525  -42.2507  -11.2770 C   0  0  0  0  0  0  0  0  0  0  0  0
  -17.3786  -41.7360   -9.4936 C   0  0  0  0  0  0  0  0  0  0  0  0
  -18.7125  -41.5837   -9.6145 O   0  0  0  0  0  0  0  0  0  0  0  0
  -16.9798  -41.1403   -8.2980 N   0  0  0  0  0  0  0  0  0  0  0  0
  -13.5319  -42.1685   -8.8224 C   0  0  0  0  0  0  0  0  0  0  0  0
  1  2  1  0
  2  3  1  0
  2  4  1  0
  4  5  2  0
  5  6  1  0
  6  7  2  0
  7  8  1  0
  8  9  2  0
  8 10  1  0
 10 11  1  0
 10 12  1  0
 10 13  1  0
 13 14  1  0
 14 15  1  0
 15 16  1  1
 15 17  1  0
 17 18  1  6
 18 19  1  0
 19 20  1  0
 20 21  2  0
 21 22  1  0
 21 23  1  0
 23 24  1  0
 23 25  2  0
 25 26  1  0
 26 27  1  0
 27 28  1  0
 28 29  1  0
 29 30  1  0
 30 31  1  0
 31 32  1  0
 32 33  2  0
 33 34  1  0
 34 35  2  0
 35 36  1  0
 35 37  1  0
 37 38  2  0
 37 39  1  0
 25 40  1  0
  9  4  1  0
 36 31  2  0
 39 17  1  0
 40 19  2  0
M  END
$$$$
