
     RDKit          3D

 40 43  0  0  0  0  0  0  0  0999 V2000
  -12.7187  -35.3846  -13.0114 C   0  0  0  0  0  0  0  0  0  0  0  0
  -12.4728  -36.8686  -12.7052 C   0  0  0  0  0  0  0  0  0  0  0  0
  -11.6640  -36.8785  -11.4071 C   0  0  0  0  0  0  0  0  0  0  0  0
  -13.8123  -37.4646  -12.4717 C   0  0  0  0  0  0  0  0  0  0  0  0
  -14.1251  -38.6891  -13.0327 C   0  0  0  0  0  0  0  0  0  0  0  0
  -15.3575  -39.2584  -12.8294 C   0  0  0  0  0  0  0  0  0  0  0  0
  -16.3077  -38.6205  -12.0618 C   0  0  0  0  0  0  0  0  0  0  0  0
  -16.0301  -37.4170  -11.4977 C   0  0  0  0  0  0  0  0  0  0  0  0
  -14.7841  -36.8535  -11.7099 C   0  0  0  0  0  0  0  0  0  0  0  0
  -16.9841  -36.6347  -10.6331 C   0  0  0  0  0  0  0  0  0  0  0  0
  -17.0566  -35.2611  -11.2759 C   0  0  0  0  0  0  0  0  0  0  0  0
  -18.3179  -37.3185  -10.7473 C   0  0  0  0  0  0  0  0  0  0  0  0
  -16.5449  -36.5784   -9.2783 N   0  0  0  0  0  0  0  0  0  0  0  0
  -17.6753  -37.0001   -8.4284 C   0  0  0  0  0  0  0  0  0  0  0  0
  -17.4617  -38.3637   -7.8875 C   0  0  1  0  0  0  0  0  0  0  0  0
  -17.1382  -38.3480   -6.5508 O   0  0  0  0  0  0  0  0  0  0  0  0
  -18.6427  -39.3226   -8.1869 C   0  0  2  0  0  0  0  0  0  0  0  0
  -19.1992  -39.7072   -6.9200 C   0  0  0  0  0  0  0  0  0  0  0  0
  -20.4322  -40.4605   -6.6630 C   0  0  0  0  0  0  0  0  0  0  0  0
  -20.8806  -40.1749   -5.3376 C   0  0  0  0  0  0  0  0  0  0  0  0
  -21.9458  -40.7645   -4.7332 C   0  0  0  0  0  0  0  0  0  0  0  0
  -22.3382  -40.4584   -3.4675 F   0  0  0  0  0  0  0  0  0  0  0  0
  -22.6047  -41.6960   -5.4910 C   0  0  0  0  0  0  0  0  0  0  0  0
  -23.7383  -42.3254   -4.8600 N   0  0  0  0  0  0  0  0  0  0  0  0
  -22.2122  -42.0281   -6.8142 C   0  0  0  0  0  0  0  0  0  0  0  0
  -23.0673  -43.1436   -7.3315 C   0  0  0  0  0  0  0  0  0  0  0  0
  -22.3429  -44.4562   -7.5359 C   0  0  0  0  0  0  0  0  0  0  0  0
  -22.0491  -45.2308   -6.3118 C   0  0  0  0  0  0  0  0  0  0  0  0
  -20.7413  -44.9673   -5.6513 C   0  0  0  0  0  0  0  0  0  0  0  0
  -19.5734  -45.3342   -6.4489 N   0  0  0  0  0  0  0  0  0  0  0  0
  -18.9348  -44.6149   -7.5114 C   0  0  0  0  0  0  0  0  0  0  0  0
  -18.7443  -45.4957   -8.6101 C   0  0  0  0  0  0  0  0  0  0  0  0
  -18.2286  -45.0996   -9.8093 C   0  0  0  0  0  0  0  0  0  0  0  0
  -17.9011  -43.7761   -9.8934 C   0  0  0  0  0  0  0  0  0  0  0  0
  -18.0653  -42.8375   -8.8335 C   0  0  0  0  0  0  0  0  0  0  0  0
  -18.5848  -43.2918   -7.6367 C   0  0  0  0  0  0  0  0  0  0  0  0
  -17.6992  -41.4897   -9.2945 C   0  0  0  0  0  0  0  0  0  0  0  0
  -16.5545  -41.4292  -10.0036 O   0  0  0  0  0  0  0  0  0  0  0  0
  -18.2247  -40.2015   -9.2067 N   0  0  0  0  0  0  0  0  0  0  0  0
  -21.1348  -41.4071   -7.3904 C   0  0  0  0  0  0  0  0  0  0  0  0
  1  2  1  0
  2  3  1  0
  2  4  1  0
  4  5  2  0
  5  6  1  0
  6  7  2  0
  7  8  1  0
  8  9  2  0
  8 10  1  0
 10 11  1  0
 10 12  1  0
 10 13  1  0
 13 14  1  0
 14 15  1  0
 15 16  1  1
 15 17  1  0
 17 18  1  1
 18 19  1  0
 19 20  1  0
 20 21  2  0
 21 22  1  0
 21 23  1  0
 23 24  1  0
 23 25  2  0
 25 26  1  0
 26 27  1  0
 27 28  1  0
 28 29  1  0
 29 30  1  0
 30 31  1  0
 31 32  1  0
 32 33  2  0
 33 34  1  0
 34 35  2  0
 35 36  1  0
 35 37  1  0
 37 38  2  0
 37 39  1  0
 25 40  1  0
  9  4  1  0
 36 31  2  0
 39 17  1  0
 40 19  2  0
M  END
$$$$
