
     RDKit          3D

 40 43  0  0  0  0  0  0  0  0999 V2000
  -11.9510  -40.7473  -10.8749 C   0  0  0  0  0  0  0  0  0  0  0  0
  -12.6670  -40.4519  -12.2002 C   0  0  0  0  0  0  0  0  0  0  0  0
  -12.5588  -41.7461  -13.0081 C   0  0  0  0  0  0  0  0  0  0  0  0
  -14.0857  -40.1918  -11.8485 C   0  0  0  0  0  0  0  0  0  0  0  0
  -15.0450  -41.1516  -12.1143 C   0  0  0  0  0  0  0  0  0  0  0  0
  -16.3623  -40.9319  -11.7971 C   0  0  0  0  0  0  0  0  0  0  0  0
  -16.7549  -39.7499  -11.2074 C   0  0  0  0  0  0  0  0  0  0  0  0
  -15.8360  -38.7883  -10.9343 C   0  0  0  0  0  0  0  0  0  0  0  0
  -14.5111  -39.0217  -11.2585 C   0  0  0  0  0  0  0  0  0  0  0  0
  -16.1467  -37.4655  -10.2837 C   0  0  0  0  0  0  0  0  0  0  0  0
  -15.1663  -36.4859  -10.9036 C   0  0  0  0  0  0  0  0  0  0  0  0
  -17.5477  -37.1089  -10.6956 C   0  0  0  0  0  0  0  0  0  0  0  0
  -16.0247  -37.5324   -8.8651 N   0  0  0  0  0  0  0  0  0  0  0  0
  -15.6860  -38.9255   -8.5150 C   0  0  0  0  0  0  0  0  0  0  0  0
  -16.4434  -39.3799   -7.3245 C   0  0  1  0  0  0  0  0  0  0  0  0
  -16.5033  -38.4146   -6.3466 O   0  0  0  0  0  0  0  0  0  0  0  0
  -17.8476  -39.9338   -7.6789 C   0  0  2  0  0  0  0  0  0  0  0  0
  -18.5902  -40.0040   -6.4516 C   0  0  0  0  0  0  0  0  0  0  0  0
  -20.0170  -40.2970   -6.2713 C   0  0  0  0  0  0  0  0  0  0  0  0
  -20.4432  -39.7644   -5.0167 C   0  0  0  0  0  0  0  0  0  0  0  0
  -21.6836  -39.9252   -4.4848 C   0  0  0  0  0  0  0  0  0  0  0  0
  -22.0460  -39.3966   -3.2853 F   0  0  0  0  0  0  0  0  0  0  0  0
  -22.5533  -40.6616   -5.2447 C   0  0  0  0  0  0  0  0  0  0  0  0
  -23.8732  -40.8357   -4.6907 N   0  0  0  0  0  0  0  0  0  0  0  0
  -22.1951  -41.2200   -6.4998 C   0  0  0  0  0  0  0  0  0  0  0  0
  -23.3273  -42.0455   -7.0289 C   0  0  0  0  0  0  0  0  0  0  0  0
  -23.0583  -43.5335   -7.0794 C   0  0  0  0  0  0  0  0  0  0  0  0
  -23.1238  -44.2475   -5.7867 C   0  0  0  0  0  0  0  0  0  0  0  0
  -21.8536  -44.3574   -5.0182 C   0  0  0  0  0  0  0  0  0  0  0  0
  -20.8145  -45.1490   -5.6727 N   0  0  0  0  0  0  0  0  0  0  0  0
  -19.9002  -44.7708   -6.7096 C   0  0  0  0  0  0  0  0  0  0  0  0
  -19.9279  -45.7618   -7.7276 C   0  0  0  0  0  0  0  0  0  0  0  0
  -19.2249  -45.6616   -8.8924 C   0  0  0  0  0  0  0  0  0  0  0  0
  -18.4780  -44.5256   -9.0255 C   0  0  0  0  0  0  0  0  0  0  0  0
  -18.4038  -43.4920   -8.0470 C   0  0  0  0  0  0  0  0  0  0  0  0
  -19.1292  -43.6462   -6.8814 C   0  0  0  0  0  0  0  0  0  0  0  0
  -17.5851  -42.3796   -8.5521 C   0  0  0  0  0  0  0  0  0  0  0  0
  -16.4347  -42.7526   -9.1474 O   0  0  0  0  0  0  0  0  0  0  0  0
  -17.6661  -40.9886   -8.5963 N   0  0  0  0  0  0  0  0  0  0  0  0
  -20.9349  -41.0309   -7.0044 C   0  0  0  0  0  0  0  0  0  0  0  0
  1  2  1  0
  2  3  1  0
  2  4  1  0
  4  5  2  0
  5  6  1  0
  6  7  2  0
  7  8  1  0
  8  9  2  0
  8 10  1  0
 10 11  1  0
 10 12  1  0
 10 13  1  0
 13 14  1  0
 14 15  1  0
 15 16  1  1
 15 17  1  0
 17 18  1  1
 18 19  1  0
 19 20  1  0
 20 21  2  0
 21 22  1  0
 21 23  1  0
 23 24  1  0
 23 25  2  0
 25 26  1  0
 26 27  1  0
 27 28  1  0
 28 29  1  0
 29 30  1  0
 30 31  1  0
 31 32  1  0
 32 33  2  0
 33 34  1  0
 34 35  2  0
 35 36  1  0
 35 37  1  0
 37 38  2  0
 37 39  1  0
 25 40  1  0
  9  4  1  0
 36 31  2  0
 39 17  1  0
 40 19  2  0
M  END
$$$$
