
     RDKit          3D

 40 43  0  0  0  0  0  0  0  0999 V2000
  -21.0158  -37.6568  -13.0917 C   0  0  0  0  0  0  0  0  0  0  0  0
  -20.4523  -37.6385  -11.6640 C   0  0  0  0  0  0  0  0  0  0  0  0
  -21.4191  -38.4936  -10.8434 C   0  0  0  0  0  0  0  0  0  0  0  0
  -19.1272  -38.3039  -11.7396 C   0  0  0  0  0  0  0  0  0  0  0  0
  -18.9964  -39.4947  -12.4301 C   0  0  0  0  0  0  0  0  0  0  0  0
  -17.7807  -40.1266  -12.5129 C   0  0  0  0  0  0  0  0  0  0  0  0
  -16.6659  -39.5863  -11.9090 C   0  0  0  0  0  0  0  0  0  0  0  0
  -16.7629  -38.4182  -11.2237 C   0  0  0  0  0  0  0  0  0  0  0  0
  -17.9939  -37.7906  -11.1477 C   0  0  0  0  0  0  0  0  0  0  0  0
  -15.6132  -37.7303  -10.5347 C   0  0  0  0  0  0  0  0  0  0  0  0
  -14.3735  -38.4581  -11.0231 C   0  0  0  0  0  0  0  0  0  0  0  0
  -15.6016  -36.3146  -11.0401 C   0  0  0  0  0  0  0  0  0  0  0  0
  -15.7451  -37.7730   -9.1161 N   0  0  0  0  0  0  0  0  0  0  0  0
  -15.2753  -39.0980   -8.6673 C   0  0  0  0  0  0  0  0  0  0  0  0
  -15.9461  -39.5089   -7.4108 C   0  0  1  0  0  0  0  0  0  0  0  0
  -15.8088  -38.5686   -6.4165 O   0  0  0  0  0  0  0  0  0  0  0  0
  -17.4271  -39.9157   -7.6234 C   0  0  2  0  0  0  0  0  0  0  0  0
  -18.0074  -40.0747   -6.3194 C   0  0  0  0  0  0  0  0  0  0  0  0
  -19.4186  -40.2835   -5.9748 C   0  0  0  0  0  0  0  0  0  0  0  0
  -19.6305  -39.8712   -4.6241 C   0  0  0  0  0  0  0  0  0  0  0  0
  -20.8006  -40.0033   -3.9453 C   0  0  0  0  0  0  0  0  0  0  0  0
  -20.9570  -39.5931   -2.6581 F   0  0  0  0  0  0  0  0  0  0  0  0
  -21.8222  -40.5820   -4.6507 C   0  0  0  0  0  0  0  0  0  0  0  0
  -23.0691  -40.7243   -3.9405 N   0  0  0  0  0  0  0  0  0  0  0  0
  -21.6798  -41.0150   -5.9952 C   0  0  0  0  0  0  0  0  0  0  0  0
  -22.9384  -41.6900   -6.4462 C   0  0  0  0  0  0  0  0  0  0  0  0
  -22.8084  -43.1776   -6.6903 C   0  0  0  0  0  0  0  0  0  0  0  0
  -22.7673  -44.0303   -5.4836 C   0  0  0  0  0  0  0  0  0  0  0  0
  -21.4224  -44.3197   -4.9146 C   0  0  0  0  0  0  0  0  0  0  0  0
  -20.5497  -45.1024   -5.7867 N   0  0  0  0  0  0  0  0  0  0  0  0
  -19.7484  -44.6728   -6.8947 C   0  0  0  0  0  0  0  0  0  0  0  0
  -19.9939  -45.5342   -7.9979 C   0  0  0  0  0  0  0  0  0  0  0  0
  -19.4421  -45.3499   -9.2317 C   0  0  0  0  0  0  0  0  0  0  0  0
  -18.6230  -44.2627   -9.3465 C   0  0  0  0  0  0  0  0  0  0  0  0
  -18.3330  -43.3578   -8.2842 C   0  0  0  0  0  0  0  0  0  0  0  0
  -18.9116  -43.5941   -7.0521 C   0  0  0  0  0  0  0  0  0  0  0  0
  -17.4934  -42.2559   -8.7777 C   0  0  0  0  0  0  0  0  0  0  0  0
  -16.4668  -42.6387   -9.5629 O   0  0  0  0  0  0  0  0  0  0  0  0
  -17.4584  -40.8670   -8.6633 N   0  0  0  0  0  0  0  0  0  0  0  0
  -20.4841  -40.8595   -6.6469 C   0  0  0  0  0  0  0  0  0  0  0  0
  1  2  1  0
  2  3  1  0
  2  4  1  0
  4  5  2  0
  5  6  1  0
  6  7  2  0
  7  8  1  0
  8  9  2  0
  8 10  1  0
 10 11  1  0
 10 12  1  0
 10 13  1  0
 13 14  1  0
 14 15  1  0
 15 16  1  1
 15 17  1  0
 17 18  1  1
 18 19  1  0
 19 20  1  0
 20 21  2  0
 21 22  1  0
 21 23  1  0
 23 24  1  0
 23 25  2  0
 25 26  1  0
 26 27  1  0
 27 28  1  0
 28 29  1  0
 29 30  1  0
 30 31  1  0
 31 32  1  0
 32 33  2  0
 33 34  1  0
 34 35  2  0
 35 36  1  0
 35 37  1  0
 37 38  2  0
 37 39  1  0
 25 40  1  0
  9  4  1  0
 36 31  2  0
 39 17  1  0
 40 19  2  0
M  END
$$$$
