
     RDKit          3D

 40 43  0  0  0  0  0  0  0  0999 V2000
  -22.5200  -40.9783   -3.2369 C   0  0  0  0  0  0  0  0  0  0  0  0
  -23.2178  -39.8869   -4.0605 C   0  0  0  0  0  0  0  0  0  0  0  0
  -22.5559  -38.5776   -3.6281 C   0  0  0  0  0  0  0  0  0  0  0  0
  -22.8908  -40.1748   -5.4798 C   0  0  0  0  0  0  0  0  0  0  0  0
  -23.8162  -40.8205   -6.2791 C   0  0  0  0  0  0  0  0  0  0  0  0
  -23.5347  -41.0962   -7.5940 C   0  0  0  0  0  0  0  0  0  0  0  0
  -22.3237  -40.7348   -8.1436 C   0  0  0  0  0  0  0  0  0  0  0  0
  -21.3948  -40.0997   -7.3839 C   0  0  0  0  0  0  0  0  0  0  0  0
  -21.6905  -39.8271   -6.0597 C   0  0  0  0  0  0  0  0  0  0  0  0
  -20.0451  -39.6487   -7.8786 C   0  0  0  0  0  0  0  0  0  0  0  0
  -19.5333  -40.8024   -8.7226 C   0  0  0  0  0  0  0  0  0  0  0  0
  -20.2924  -38.4517   -8.7536 C   0  0  0  0  0  0  0  0  0  0  0  0
  -19.1665  -39.3311   -6.8021 N   0  0  0  0  0  0  0  0  0  0  0  0
  -17.8356  -39.8699   -7.1429 C   0  0  0  0  0  0  0  0  0  0  0  0
  -16.8830  -38.7823   -7.4699 C   0  0  1  0  0  0  0  0  0  0  0  0
  -16.5090  -38.0663   -6.3567 O   0  0  0  0  0  0  0  0  0  0  0  0
  -15.6567  -39.2782   -8.2789 C   0  0  2  0  0  0  0  0  0  0  0  0
  -15.2849  -38.2131   -9.1677 C   0  0  0  0  0  0  0  0  0  0  0  0
  -14.0912  -38.1158  -10.0160 C   0  0  0  0  0  0  0  0  0  0  0  0
  -13.8448  -36.7405  -10.3113 C   0  0  0  0  0  0  0  0  0  0  0  0
  -12.8703  -36.2863  -11.1427 C   0  0  0  0  0  0  0  0  0  0  0  0
  -12.6709  -34.9643  -11.3925 F   0  0  0  0  0  0  0  0  0  0  0  0
  -12.0943  -37.2576  -11.7176 C   0  0  0  0  0  0  0  0  0  0  0  0
  -11.0553  -36.7860  -12.5994 N   0  0  0  0  0  0  0  0  0  0  0  0
  -12.2851  -38.6421  -11.4683 C   0  0  0  0  0  0  0  0  0  0  0  0
  -11.3472  -39.4438  -12.3174 C   0  0  0  0  0  0  0  0  0  0  0  0
  -12.0144  -40.2625  -13.4008 C   0  0  0  0  0  0  0  0  0  0  0  0
  -12.4717  -39.5127  -14.5898 C   0  0  0  0  0  0  0  0  0  0  0  0
  -13.8655  -38.9909  -14.5563 C   0  0  0  0  0  0  0  0  0  0  0  0
  -14.8992  -40.0227  -14.5157 N   0  0  0  0  0  0  0  0  0  0  0  0
  -15.3871  -40.7786  -13.4001 C   0  0  0  0  0  0  0  0  0  0  0  0
  -15.4025  -42.1552  -13.7520 C   0  0  0  0  0  0  0  0  0  0  0  0
  -15.7440  -43.1489  -12.8820 C   0  0  0  0  0  0  0  0  0  0  0  0
  -16.0755  -42.7324  -11.6239 C   0  0  0  0  0  0  0  0  0  0  0  0
  -16.0813  -41.3710  -11.2023 C   0  0  0  0  0  0  0  0  0  0  0  0
  -15.7348  -40.4027  -12.1247 C   0  0  0  0  0  0  0  0  0  0  0  0
  -16.3965  -41.2903   -9.7680 C   0  0  0  0  0  0  0  0  0  0  0  0
  -17.4266  -42.0652   -9.3738 O   0  0  0  0  0  0  0  0  0  0  0  0
  -15.9087  -40.6145   -8.6506 N   0  0  0  0  0  0  0  0  0  0  0  0
  -13.2763  -39.0598  -10.6189 C   0  0  0  0  0  0  0  0  0  0  0  0
  1  2  1  0
  2  3  1  0
  2  4  1  0
  4  5  2  0
  5  6  1  0
  6  7  2  0
  7  8  1  0
  8  9  2  0
  8 10  1  0
 10 11  1  0
 10 12  1  0
 10 13  1  0
 13 14  1  0
 14 15  1  0
 15 16  1  1
 15 17  1  0
 17 18  1  6
 18 19  1  0
 19 20  1  0
 20 21  2  0
 21 22  1  0
 21 23  1  0
 23 24  1  0
 23 25  2  0
 25 26  1  0
 26 27  1  0
 27 28  1  0
 28 29  1  0
 29 30  1  0
 30 31  1  0
 31 32  1  0
 32 33  2  0
 33 34  1  0
 34 35  2  0
 35 36  1  0
 35 37  1  0
 37 38  2  0
 37 39  1  0
 25 40  1  0
  9  4  1  0
 36 31  2  0
 39 17  1  0
 40 19  2  0
M  END
$$$$
