
     RDKit          3D

 40 43  0  0  0  0  0  0  0  0999 V2000
  -19.8349  -37.6348  -12.3735 C   0  0  0  0  0  0  0  0  0  0  0  0
  -20.9020  -38.7380  -12.3989 C   0  0  0  0  0  0  0  0  0  0  0  0
  -20.5244  -39.6296  -13.5829 C   0  0  0  0  0  0  0  0  0  0  0  0
  -20.7427  -39.4893  -11.1284 C   0  0  0  0  0  0  0  0  0  0  0  0
  -20.7154  -40.8717  -11.1482 C   0  0  0  0  0  0  0  0  0  0  0  0
  -20.5687  -41.5860   -9.9853 C   0  0  0  0  0  0  0  0  0  0  0  0
  -20.4459  -40.9393   -8.7746 C   0  0  0  0  0  0  0  0  0  0  0  0
  -20.4692  -39.5827   -8.7230 C   0  0  0  0  0  0  0  0  0  0  0  0
  -20.6173  -38.8737   -9.9022 C   0  0  0  0  0  0  0  0  0  0  0  0
  -20.3331  -38.7701   -7.4617 C   0  0  0  0  0  0  0  0  0  0  0  0
  -21.5569  -37.8717   -7.4423 C   0  0  0  0  0  0  0  0  0  0  0  0
  -20.4023  -39.7450   -6.3196 C   0  0  0  0  0  0  0  0  0  0  0  0
  -19.1151  -38.0301   -7.4384 N   0  0  0  0  0  0  0  0  0  0  0  0
  -18.0070  -39.0029   -7.3784 C   0  0  0  0  0  0  0  0  0  0  0  0
  -16.8710  -38.5768   -8.2301 C   0  0  1  0  0  0  0  0  0  0  0  0
  -16.2947  -37.4107   -7.7831 O   0  0  0  0  0  0  0  0  0  0  0  0
  -15.8214  -39.6986   -8.4401 C   0  0  2  0  0  0  0  0  0  0  0  0
  -14.8687  -39.2050   -9.3948 C   0  0  0  0  0  0  0  0  0  0  0  0
  -13.5949  -39.8109   -9.8002 C   0  0  0  0  0  0  0  0  0  0  0  0
  -12.7476  -38.7925  -10.3332 C   0  0  0  0  0  0  0  0  0  0  0  0
  -11.5242  -39.0087  -10.8847 C   0  0  0  0  0  0  0  0  0  0  0  0
  -10.7500  -38.0055  -11.3784 F   0  0  0  0  0  0  0  0  0  0  0  0
  -11.1185  -40.3167  -10.9099 C   0  0  0  0  0  0  0  0  0  0  0  0
   -9.8205  -40.5568  -11.4905 N   0  0  0  0  0  0  0  0  0  0  0  0
  -11.9109  -41.3777  -10.3982 C   0  0  0  0  0  0  0  0  0  0  0  0
  -11.2351  -42.6879  -10.6626 C   0  0  0  0  0  0  0  0  0  0  0  0
  -11.9422  -43.5762  -11.6628 C   0  0  0  0  0  0  0  0  0  0  0  0
  -11.7935  -43.1971  -13.0838 C   0  0  0  0  0  0  0  0  0  0  0  0
  -12.8215  -42.2760  -13.6414 C   0  0  0  0  0  0  0  0  0  0  0  0
  -14.1730  -42.8294  -13.6848 N   0  0  0  0  0  0  0  0  0  0  0  0
  -15.1477  -42.9334  -12.6392 C   0  0  0  0  0  0  0  0  0  0  0  0
  -15.6574  -44.2597  -12.6193 C   0  0  0  0  0  0  0  0  0  0  0  0
  -16.5498  -44.7073  -11.6897 C   0  0  0  0  0  0  0  0  0  0  0  0
  -16.9309  -43.7846  -10.7573 C   0  0  0  0  0  0  0  0  0  0  0  0
  -16.4606  -42.4398  -10.7167 C   0  0  0  0  0  0  0  0  0  0  0  0
  -15.5634  -42.0348  -11.6861 C   0  0  0  0  0  0  0  0  0  0  0  0
  -17.0021  -41.7534   -9.5342 C   0  0  0  0  0  0  0  0  0  0  0  0
  -18.3172  -41.9564   -9.3187 O   0  0  0  0  0  0  0  0  0  0  0  0
  -16.5202  -40.9198   -8.5260 N   0  0  0  0  0  0  0  0  0  0  0  0
  -13.1376  -41.1176   -9.8450 C   0  0  0  0  0  0  0  0  0  0  0  0
  1  2  1  0
  2  3  1  0
  2  4  1  0
  4  5  2  0
  5  6  1  0
  6  7  2  0
  7  8  1  0
  8  9  2  0
  8 10  1  0
 10 11  1  0
 10 12  1  0
 10 13  1  0
 13 14  1  0
 14 15  1  0
 15 16  1  1
 15 17  1  0
 17 18  1  6
 18 19  1  0
 19 20  1  0
 20 21  2  0
 21 22  1  0
 21 23  1  0
 23 24  1  0
 23 25  2  0
 25 26  1  0
 26 27  1  0
 27 28  1  0
 28 29  1  0
 29 30  1  0
 30 31  1  0
 31 32  1  0
 32 33  2  0
 33 34  1  0
 34 35  2  0
 35 36  1  0
 35 37  1  0
 37 38  2  0
 37 39  1  0
 25 40  1  0
  9  4  1  0
 36 31  2  0
 39 17  1  0
 40 19  2  0
M  END
$$$$
