
     RDKit          3D

 40 43  0  0  0  0  0  0  0  0999 V2000
  -16.5528  -34.5078   -9.5175 C   0  0  0  0  0  0  0  0  0  0  0  0
  -16.9547  -34.6166  -10.9950 C   0  0  0  0  0  0  0  0  0  0  0  0
  -15.9656  -33.7217  -11.7435 C   0  0  0  0  0  0  0  0  0  0  0  0
  -16.7393  -36.0361  -11.3731 C   0  0  0  0  0  0  0  0  0  0  0  0
  -17.5738  -36.6329  -12.3002 C   0  0  0  0  0  0  0  0  0  0  0  0
  -17.3924  -37.9438  -12.6644 C   0  0  0  0  0  0  0  0  0  0  0  0
  -16.3746  -38.6914  -12.1128 C   0  0  0  0  0  0  0  0  0  0  0  0
  -15.5389  -38.1333  -11.1998 C   0  0  0  0  0  0  0  0  0  0  0  0
  -15.7319  -36.8108  -10.8410 C   0  0  0  0  0  0  0  0  0  0  0  0
  -14.3885  -38.8485  -10.5403 C   0  0  0  0  0  0  0  0  0  0  0  0
  -13.7045  -39.6066  -11.6639 C   0  0  0  0  0  0  0  0  0  0  0  0
  -13.4693  -37.7805  -10.0169 C   0  0  0  0  0  0  0  0  0  0  0  0
  -14.8312  -39.7095   -9.4942 N   0  0  0  0  0  0  0  0  0  0  0  0
  -15.2343  -38.8567   -8.3593 C   0  0  0  0  0  0  0  0  0  0  0  0
  -15.9119  -39.6490   -7.3056 C   0  0  1  0  0  0  0  0  0  0  0  0
  -15.8346  -39.0467   -6.0715 O   0  0  0  0  0  0  0  0  0  0  0  0
  -17.3698  -40.0239   -7.6772 C   0  0  2  0  0  0  0  0  0  0  0  0
  -18.1889  -39.6832   -6.5478 C   0  0  0  0  0  0  0  0  0  0  0  0
  -19.6539  -39.6812   -6.4586 C   0  0  0  0  0  0  0  0  0  0  0  0
  -20.0512  -38.8100   -5.3991 C   0  0  0  0  0  0  0  0  0  0  0  0
  -21.3310  -38.6319   -4.9775 C   0  0  0  0  0  0  0  0  0  0  0  0
  -21.6630  -37.7880   -3.9640 F   0  0  0  0  0  0  0  0  0  0  0  0
  -22.2736  -39.3654   -5.6480 C   0  0  0  0  0  0  0  0  0  0  0  0
  -23.6353  -39.1816   -5.2104 N   0  0  0  0  0  0  0  0  0  0  0  0
  -21.9477  -40.2500   -6.7095 C   0  0  0  0  0  0  0  0  0  0  0  0
  -23.1791  -40.9714   -7.1641 C   0  0  0  0  0  0  0  0  0  0  0  0
  -23.1924  -42.4546   -6.8655 C   0  0  0  0  0  0  0  0  0  0  0  0
  -23.4732  -42.8302   -5.4637 C   0  0  0  0  0  0  0  0  0  0  0  0
  -22.2980  -42.9735   -4.5613 C   0  0  0  0  0  0  0  0  0  0  0  0
  -21.3869  -44.0585   -4.9185 N   0  0  0  0  0  0  0  0  0  0  0  0
  -20.3536  -44.0894   -5.9112 C   0  0  0  0  0  0  0  0  0  0  0  0
  -20.5025  -45.2686   -6.6899 C   0  0  0  0  0  0  0  0  0  0  0  0
  -19.7206  -45.5595   -7.7691 C   0  0  0  0  0  0  0  0  0  0  0  0
  -18.7662  -44.6277   -8.0644 C   0  0  0  0  0  0  0  0  0  0  0  0
  -18.5613  -43.4246   -7.3285 C   0  0  0  0  0  0  0  0  0  0  0  0
  -19.3754  -43.1815   -6.2391 C   0  0  0  0  0  0  0  0  0  0  0  0
  -17.5173  -42.6132   -7.9725 C   0  0  0  0  0  0  0  0  0  0  0  0
  -16.4222  -43.3022   -8.3505 O   0  0  0  0  0  0  0  0  0  0  0  0
  -17.3320  -41.2766   -8.3226 N   0  0  0  0  0  0  0  0  0  0  0  0
  -20.6450  -40.3980   -7.1087 C   0  0  0  0  0  0  0  0  0  0  0  0
  1  2  1  0
  2  3  1  0
  2  4  1  0
  4  5  2  0
  5  6  1  0
  6  7  2  0
  7  8  1  0
  8  9  2  0
  8 10  1  0
 10 11  1  0
 10 12  1  0
 10 13  1  0
 13 14  1  0
 14 15  1  0
 15 16  1  1
 15 17  1  0
 17 18  1  1
 18 19  1  0
 19 20  1  0
 20 21  2  0
 21 22  1  0
 21 23  1  0
 23 24  1  0
 23 25  2  0
 25 26  1  0
 26 27  1  0
 27 28  1  0
 28 29  1  0
 29 30  1  0
 30 31  1  0
 31 32  1  0
 32 33  2  0
 33 34  1  0
 34 35  2  0
 35 36  1  0
 35 37  1  0
 37 38  2  0
 37 39  1  0
 25 40  1  0
  9  4  1  0
 36 31  2  0
 39 17  1  0
 40 19  2  0
M  END
$$$$
