
     RDKit          3D

 40 43  0  0  0  0  0  0  0  0999 V2000
  -17.4495  -35.5885  -14.0405 C   0  0  0  0  0  0  0  0  0  0  0  0
  -16.6028  -35.4974  -12.7632 C   0  0  0  0  0  0  0  0  0  0  0  0
  -17.5637  -34.9967  -11.6837 C   0  0  0  0  0  0  0  0  0  0  0  0
  -16.1761  -36.8859  -12.4565 C   0  0  0  0  0  0  0  0  0  0  0  0
  -16.6870  -37.9387  -13.1933 C   0  0  0  0  0  0  0  0  0  0  0  0
  -16.3058  -39.2301  -12.9268 C   0  0  0  0  0  0  0  0  0  0  0  0
  -15.4060  -39.5031  -11.9193 C   0  0  0  0  0  0  0  0  0  0  0  0
  -14.8871  -38.4904  -11.1785 C   0  0  0  0  0  0  0  0  0  0  0  0
  -15.2790  -37.1927  -11.4570 C   0  0  0  0  0  0  0  0  0  0  0  0
  -13.8906  -38.6676  -10.0625 C   0  0  0  0  0  0  0  0  0  0  0  0
  -12.6792  -39.3057  -10.7186 C   0  0  0  0  0  0  0  0  0  0  0  0
  -13.5391  -37.2864   -9.5846 C   0  0  0  0  0  0  0  0  0  0  0  0
  -14.4181  -39.4636   -9.0043 N   0  0  0  0  0  0  0  0  0  0  0  0
  -15.1622  -38.5637   -8.1018 C   0  0  0  0  0  0  0  0  0  0  0  0
  -15.9064  -39.3290   -7.0733 C   0  0  1  0  0  0  0  0  0  0  0  0
  -15.8877  -38.7063   -5.8471 O   0  0  0  0  0  0  0  0  0  0  0  0
  -17.3470  -39.6919   -7.5172 C   0  0  2  0  0  0  0  0  0  0  0  0
  -18.1277  -39.8386   -6.3207 C   0  0  0  0  0  0  0  0  0  0  0  0
  -19.5807  -40.0077   -6.2017 C   0  0  0  0  0  0  0  0  0  0  0  0
  -19.9889  -39.5942   -4.8972 C   0  0  0  0  0  0  0  0  0  0  0  0
  -21.2537  -39.6948   -4.4099 C   0  0  0  0  0  0  0  0  0  0  0  0
  -21.5972  -39.2848   -3.1595 F   0  0  0  0  0  0  0  0  0  0  0  0
  -22.1687  -40.2412   -5.2703 C   0  0  0  0  0  0  0  0  0  0  0  0
  -23.5146  -40.3497   -4.7641 N   0  0  0  0  0  0  0  0  0  0  0  0
  -21.8307  -40.6733   -6.5797 C   0  0  0  0  0  0  0  0  0  0  0  0
  -23.0221  -41.3099   -7.2265 C   0  0  0  0  0  0  0  0  0  0  0  0
  -22.8975  -42.7997   -7.4594 C   0  0  0  0  0  0  0  0  0  0  0  0
  -23.0688  -43.6577   -6.2679 C   0  0  0  0  0  0  0  0  0  0  0  0
  -21.8377  -43.9879   -5.4988 C   0  0  0  0  0  0  0  0  0  0  0  0
  -20.8621  -44.7924   -6.2307 N   0  0  0  0  0  0  0  0  0  0  0  0
  -19.8861  -44.3823   -7.1969 C   0  0  0  0  0  0  0  0  0  0  0  0
  -19.9808  -45.2323   -8.3317 C   0  0  0  0  0  0  0  0  0  0  0  0
  -19.2385  -45.0597   -9.4631 C   0  0  0  0  0  0  0  0  0  0  0  0
  -18.3814  -43.9962   -9.4402 C   0  0  0  0  0  0  0  0  0  0  0  0
  -18.2352  -43.1040   -8.3385 C   0  0  0  0  0  0  0  0  0  0  0  0
  -19.0051  -43.3277   -7.2135 C   0  0  0  0  0  0  0  0  0  0  0  0
  -17.2983  -42.0250   -8.6865 C   0  0  0  0  0  0  0  0  0  0  0  0
  -16.1730  -42.4347   -9.3053 O   0  0  0  0  0  0  0  0  0  0  0  0
  -17.2426  -40.6382   -8.5568 N   0  0  0  0  0  0  0  0  0  0  0  0
  -20.5442  -40.5501   -7.0360 C   0  0  0  0  0  0  0  0  0  0  0  0
  1  2  1  0
  2  3  1  0
  2  4  1  0
  4  5  2  0
  5  6  1  0
  6  7  2  0
  7  8  1  0
  8  9  2  0
  8 10  1  0
 10 11  1  0
 10 12  1  0
 10 13  1  0
 13 14  1  0
 14 15  1  0
 15 16  1  1
 15 17  1  0
 17 18  1  1
 18 19  1  0
 19 20  1  0
 20 21  2  0
 21 22  1  0
 21 23  1  0
 23 24  1  0
 23 25  2  0
 25 26  1  0
 26 27  1  0
 27 28  1  0
 28 29  1  0
 29 30  1  0
 30 31  1  0
 31 32  1  0
 32 33  2  0
 33 34  1  0
 34 35  2  0
 35 36  1  0
 35 37  1  0
 37 38  2  0
 37 39  1  0
 25 40  1  0
  9  4  1  0
 36 31  2  0
 39 17  1  0
 40 19  2  0
M  END
$$$$
