
     RDKit          3D

 40 43  0  0  0  0  0  0  0  0999 V2000
  -12.4739  -42.9065  -11.3441 C   0  0  0  0  0  0  0  0  0  0  0  0
  -11.7272  -41.6335  -10.9216 C   0  0  0  0  0  0  0  0  0  0  0  0
  -10.3150  -41.7944  -11.4865 C   0  0  0  0  0  0  0  0  0  0  0  0
  -12.4194  -40.5097  -11.6014 C   0  0  0  0  0  0  0  0  0  0  0  0
  -12.4395  -40.4520  -12.9829 C   0  0  0  0  0  0  0  0  0  0  0  0
  -13.0739  -39.4221  -13.6317 C   0  0  0  0  0  0  0  0  0  0  0  0
  -13.7034  -38.4248  -12.9189 C   0  0  0  0  0  0  0  0  0  0  0  0
  -13.7007  -38.4540  -11.5614 C   0  0  0  0  0  0  0  0  0  0  0  0
  -13.0580  -39.4976  -10.9188 C   0  0  0  0  0  0  0  0  0  0  0  0
  -14.3635  -37.4273  -10.6803 C   0  0  0  0  0  0  0  0  0  0  0  0
  -13.2971  -36.3739  -10.4383 C   0  0  0  0  0  0  0  0  0  0  0  0
  -15.4852  -36.8362  -11.4877 C   0  0  0  0  0  0  0  0  0  0  0  0
  -14.8445  -38.0024   -9.4681 N   0  0  0  0  0  0  0  0  0  0  0  0
  -16.2956  -38.2199   -9.6264 C   0  0  0  0  0  0  0  0  0  0  0  0
  -16.9650  -38.3586   -8.3111 C   0  0  1  0  0  0  0  0  0  0  0  0
  -17.0144  -37.1678   -7.6246 O   0  0  0  0  0  0  0  0  0  0  0  0
  -18.3601  -39.0275   -8.4125 C   0  0  2  0  0  0  0  0  0  0  0  0
  -18.8044  -39.2714   -7.0687 C   0  0  0  0  0  0  0  0  0  0  0  0
  -20.1256  -39.7260   -6.6196 C   0  0  0  0  0  0  0  0  0  0  0  0
  -20.3081  -39.3411   -5.2565 C   0  0  0  0  0  0  0  0  0  0  0  0
  -21.3820  -39.6726   -4.4921 C   0  0  0  0  0  0  0  0  0  0  0  0
  -21.5143  -39.2807   -3.1965 F   0  0  0  0  0  0  0  0  0  0  0  0
  -22.3318  -40.4345   -5.1194 C   0  0  0  0  0  0  0  0  0  0  0  0
  -23.4769  -40.7893   -4.3179 N   0  0  0  0  0  0  0  0  0  0  0  0
  -22.2133  -40.8521   -6.4710 C   0  0  0  0  0  0  0  0  0  0  0  0
  -23.3595  -41.7479   -6.8269 C   0  0  0  0  0  0  0  0  0  0  0  0
  -22.9821  -43.1909   -7.0811 C   0  0  0  0  0  0  0  0  0  0  0  0
  -22.6991  -44.0069   -5.8814 C   0  0  0  0  0  0  0  0  0  0  0  0
  -21.2858  -44.0426   -5.4149 C   0  0  0  0  0  0  0  0  0  0  0  0
  -20.3532  -44.6668   -6.3505 N   0  0  0  0  0  0  0  0  0  0  0  0
  -19.7263  -44.1146   -7.5151 C   0  0  0  0  0  0  0  0  0  0  0  0
  -19.8934  -45.0201   -8.5973 C   0  0  0  0  0  0  0  0  0  0  0  0
  -19.4764  -44.7555   -9.8689 C   0  0  0  0  0  0  0  0  0  0  0  0
  -18.8773  -43.5404  -10.0440 C   0  0  0  0  0  0  0  0  0  0  0  0
  -18.6774  -42.5846   -9.0058 C   0  0  0  0  0  0  0  0  0  0  0  0
  -19.1115  -42.9051   -7.7340 C   0  0  0  0  0  0  0  0  0  0  0  0
  -18.0887  -41.3562   -9.5601 C   0  0  0  0  0  0  0  0  0  0  0  0
  -17.0708  -41.5584  -10.4202 O   0  0  0  0  0  0  0  0  0  0  0  0
  -18.2962  -39.9822   -9.4477 N   0  0  0  0  0  0  0  0  0  0  0  0
  -21.1166  -40.4926   -7.2103 C   0  0  0  0  0  0  0  0  0  0  0  0
  1  2  1  0
  2  3  1  0
  2  4  1  0
  4  5  2  0
  5  6  1  0
  6  7  2  0
  7  8  1  0
  8  9  2  0
  8 10  1  0
 10 11  1  0
 10 12  1  0
 10 13  1  0
 13 14  1  0
 14 15  1  0
 15 16  1  6
 15 17  1  0
 17 18  1  1
 18 19  1  0
 19 20  1  0
 20 21  2  0
 21 22  1  0
 21 23  1  0
 23 24  1  0
 23 25  2  0
 25 26  1  0
 26 27  1  0
 27 28  1  0
 28 29  1  0
 29 30  1  0
 30 31  1  0
 31 32  1  0
 32 33  2  0
 33 34  1  0
 34 35  2  0
 35 36  1  0
 35 37  1  0
 37 38  2  0
 37 39  1  0
 25 40  1  0
  9  4  1  0
 36 31  2  0
 39 17  1  0
 40 19  2  0
M  END
$$$$
