
     RDKit          3D

 38 40  0  0  0  0  0  0  0  0999 V2000
  -19.9403  -38.1645   -7.8152 C   0  0  0  0  0  0  0  0  0  0  0  0
  -19.8271  -39.4828   -7.0782 C   0  0  2  0  0  0  0  0  0  0  0  0
  -20.7070  -39.3762   -5.8416 C   0  0  0  0  0  0  0  0  0  0  0  0
  -21.7097  -40.5080   -5.9226 C   0  0  0  0  0  0  0  0  0  0  0  0
  -22.9366  -40.3112   -5.1045 C   0  0  0  0  0  0  0  0  0  0  0  0
  -23.1957  -41.3288   -4.0530 C   0  0  0  0  0  0  0  0  0  0  0  0
  -22.8181  -42.7337   -4.3862 C   0  0  0  0  0  0  0  0  0  0  0  0
  -23.5530  -43.3397   -5.5394 C   0  0  0  0  0  0  0  0  0  0  0  0
  -23.0090  -43.1202   -6.7776 O   0  0  0  0  0  0  0  0  0  0  0  0
  -21.8728  -43.8815   -7.0464 C   0  0  0  0  0  0  0  0  0  0  0  0
  -21.0850  -43.1366   -8.0595 C   0  0  0  0  0  0  0  0  0  0  0  0
  -21.7474  -42.4981   -8.9474 O   0  0  0  0  0  0  0  0  0  0  0  0
  -19.6923  -43.0611   -8.1434 N   0  0  0  0  0  0  0  0  0  0  0  0
  -19.0685  -42.8815   -9.4649 C   0  0  0  0  0  0  0  0  0  0  0  0
  -18.7600  -43.1445   -7.0362 C   0  0  1  0  0  0  0  0  0  0  0  0
  -18.6102  -44.6525   -6.7667 C   0  0  0  0  0  0  0  0  0  0  0  0
  -17.4436  -42.5414   -7.3534 C   0  0  0  0  0  0  0  0  0  0  0  0
  -16.4397  -43.1748   -6.8496 O   0  0  0  0  0  0  0  0  0  0  0  0
  -17.1530  -41.4136   -8.1026 N   0  0  0  0  0  0  0  0  0  0  0  0
  -17.6015  -40.0429   -7.9573 C   0  0  1  0  0  0  0  0  0  0  0  0
  -18.3747  -39.7627   -6.7277 C   0  0  0  0  0  0  0  0  0  0  0  0
  -16.3454  -39.1881   -8.0085 C   0  0  2  0  0  0  0  0  0  0  0  0
  -16.6147  -37.8754   -8.3539 O   0  0  0  0  0  0  0  0  0  0  0  0
  -15.2179  -39.8116   -8.7851 C   0  0  0  0  0  0  0  0  0  0  0  0
  -14.0312  -39.0586   -8.4366 N   0  0  0  0  0  0  0  0  0  0  0  0
  -13.1265  -38.8084   -9.5107 C   0  0  0  0  0  0  0  0  0  0  0  0
  -11.7053  -39.2182   -9.3082 C   0  0  0  0  0  0  0  0  0  0  0  0
  -12.5950  -40.0934  -10.1292 C   0  0  0  0  0  0  0  0  0  0  0  0
  -13.4419  -37.7052  -10.4617 C   0  0  0  0  0  0  0  0  0  0  0  0
  -14.7797  -37.4681  -10.8026 C   0  0  0  0  0  0  0  0  0  0  0  0
  -15.1330  -36.4704  -11.6832 C   0  0  0  0  0  0  0  0  0  0  0  0
  -14.1142  -35.7124  -12.2170 C   0  0  0  0  0  0  0  0  0  0  0  0
  -12.7957  -35.9305  -11.8947 C   0  0  0  0  0  0  0  0  0  0  0  0
  -12.4344  -36.9460  -10.9984 C   0  0  0  0  0  0  0  0  0  0  0  0
  -16.5437  -36.2107  -12.0507 C   0  0  0  0  0  0  0  0  0  0  0  0
  -17.4429  -36.1182  -10.8610 C   0  0  0  0  0  0  0  0  0  0  0  0
  -16.6900  -34.9423  -12.8646 C   0  0  0  0  0  0  0  0  0  0  0  0
  -17.0248  -37.3505  -12.9299 C   0  0  0  0  0  0  0  0  0  0  0  0
  2  1  1  1
  2  3  1  0
  3  4  1  0
  4  5  1  0
  5  6  1  0
  6  7  1  0
  7  8  1  0
  8  9  1  0
  9 10  1  0
 10 11  1  0
 11 12  2  0
 11 13  1  0
 13 14  1  0
 13 15  1  0
 15 16  1  6
 15 17  1  0
 17 18  2  0
 17 19  1  0
 19 20  1  0
 20 21  1  1
 20 22  1  0
 22 23  1  6
 22 24  1  0
 24 25  1  0
 25 26  1  0
 26 27  1  0
 27 28  1  0
 26 29  1  0
 29 30  2  0
 30 31  1  0
 31 32  2  0
 32 33  1  0
 33 34  2  0
 31 35  1  0
 35 36  1  0
 35 37  1  0
 35 38  1  0
 21  2  1  0
 28 26  1  0
 34 29  1  0
M  END
$$$$
