
     RDKit          3D

 38 40  0  0  0  0  0  0  0  0999 V2000
  -15.2863  -43.6869   -8.2059 C   0  0  0  0  0  0  0  0  0  0  0  0
  -16.7237  -43.8163   -8.6652 C   0  0  2  0  0  0  0  0  0  0  0  0
  -16.7438  -44.8638   -9.7685 C   0  0  0  0  0  0  0  0  0  0  0  0
  -17.7060  -45.9452   -9.3239 C   0  0  0  0  0  0  0  0  0  0  0  0
  -17.5159  -47.2600   -9.9936 C   0  0  0  0  0  0  0  0  0  0  0  0
  -18.6735  -47.7757  -10.7698 C   0  0  0  0  0  0  0  0  0  0  0  0
  -20.0260  -47.4869  -10.2090 C   0  0  0  0  0  0  0  0  0  0  0  0
  -20.3070  -48.0878   -8.8685 C   0  0  0  0  0  0  0  0  0  0  0  0
  -19.9270  -47.3393   -7.7856 O   0  0  0  0  0  0  0  0  0  0  0  0
  -20.7595  -46.2531   -7.5207 C   0  0  0  0  0  0  0  0  0  0  0  0
  -19.9407  -45.2496   -6.7964 C   0  0  0  0  0  0  0  0  0  0  0  0
  -19.0685  -45.7016   -5.9779 O   0  0  0  0  0  0  0  0  0  0  0  0
  -20.0249  -43.8600   -6.9166 N   0  0  0  0  0  0  0  0  0  0  0  0
  -19.6780  -43.0238   -5.7554 C   0  0  0  0  0  0  0  0  0  0  0  0
  -20.4314  -43.1238   -8.0975 C   0  0  1  0  0  0  0  0  0  0  0  0
  -21.9699  -43.1627   -8.0695 C   0  0  0  0  0  0  0  0  0  0  0  0
  -19.9481  -41.7224   -8.0894 C   0  0  0  0  0  0  0  0  0  0  0  0
  -20.7854  -40.8744   -8.5822 O   0  0  0  0  0  0  0  0  0  0  0  0
  -18.7442  -41.2124   -7.6332 N   0  0  0  0  0  0  0  0  0  0  0  0
  -17.3807  -41.5448   -7.9953 C   0  0  1  0  0  0  0  0  0  0  0  0
  -17.2436  -42.4697   -9.1416 C   0  0  0  0  0  0  0  0  0  0  0  0
  -16.6949  -40.2202   -8.2887 C   0  0  2  0  0  0  0  0  0  0  0  0
  -15.3674  -40.2158   -7.8979 O   0  0  0  0  0  0  0  0  0  0  0  0
  -17.4763  -39.0180   -7.8333 C   0  0  0  0  0  0  0  0  0  0  0  0
  -18.6351  -38.9463   -8.6985 N   0  0  0  0  0  0  0  0  0  0  0  0
  -18.9453  -37.6479   -9.2014 C   0  0  0  0  0  0  0  0  0  0  0  0
  -20.3849  -37.3472   -9.4576 C   0  0  0  0  0  0  0  0  0  0  0  0
  -19.7528  -36.8224   -8.2100 C   0  0  0  0  0  0  0  0  0  0  0  0
  -17.8969  -36.9135   -9.9646 C   0  0  0  0  0  0  0  0  0  0  0  0
  -17.8773  -35.5139   -9.9114 C   0  0  0  0  0  0  0  0  0  0  0  0
  -16.9400  -34.7795  -10.6026 C   0  0  0  0  0  0  0  0  0  0  0  0
  -16.0192  -35.4793  -11.3509 C   0  0  0  0  0  0  0  0  0  0  0  0
  -16.0228  -36.8525  -11.4155 C   0  0  0  0  0  0  0  0  0  0  0  0
  -16.9767  -37.6016  -10.7124 C   0  0  0  0  0  0  0  0  0  0  0  0
  -16.9098  -33.2999  -10.5537 C   0  0  0  0  0  0  0  0  0  0  0  0
  -15.7282  -32.7706   -9.8080 C   0  0  0  0  0  0  0  0  0  0  0  0
  -16.9175  -32.6896  -11.9394 C   0  0  0  0  0  0  0  0  0  0  0  0
  -18.1712  -32.8201   -9.8593 C   0  0  0  0  0  0  0  0  0  0  0  0
  2  1  1  6
  2  3  1  0
  3  4  1  0
  4  5  1  0
  5  6  1  0
  6  7  1  0
  7  8  1  0
  8  9  1  0
  9 10  1  0
 10 11  1  0
 11 12  2  0
 11 13  1  0
 13 14  1  0
 13 15  1  0
 15 16  1  1
 15 17  1  0
 17 18  2  0
 17 19  1  0
 19 20  1  0
 20 21  1  6
 20 22  1  0
 22 23  1  1
 22 24  1  0
 24 25  1  0
 25 26  1  0
 26 27  1  0
 27 28  1  0
 26 29  1  0
 29 30  2  0
 30 31  1  0
 31 32  2  0
 32 33  1  0
 33 34  2  0
 31 35  1  0
 35 36  1  0
 35 37  1  0
 35 38  1  0
 21  2  1  0
 28 26  1  0
 34 29  1  0
M  END
$$$$
