
     RDKit          3D

 38 40  0  0  0  0  0  0  0  0999 V2000
  -19.9466  -38.0193   -7.7453 C   0  0  0  0  0  0  0  0  0  0  0  0
  -19.8489  -39.3564   -7.0405 C   0  0  2  0  0  0  0  0  0  0  0  0
  -20.9047  -39.3581   -5.9451 C   0  0  0  0  0  0  0  0  0  0  0  0
  -21.8023  -40.5489   -6.2082 C   0  0  0  0  0  0  0  0  0  0  0  0
  -23.1460  -40.4663   -5.5749 C   0  0  0  0  0  0  0  0  0  0  0  0
  -23.4826  -41.5408   -4.6051 C   0  0  0  0  0  0  0  0  0  0  0  0
  -22.9622  -42.9032   -4.9217 C   0  0  0  0  0  0  0  0  0  0  0  0
  -23.4766  -43.5085   -6.1890 C   0  0  0  0  0  0  0  0  0  0  0  0
  -22.7753  -43.2035   -7.3258 O   0  0  0  0  0  0  0  0  0  0  0  0
  -21.5610  -43.8773   -7.4468 C   0  0  0  0  0  0  0  0  0  0  0  0
  -20.6889  -43.0416   -8.3088 C   0  0  0  0  0  0  0  0  0  0  0  0
  -21.2586  -42.4123   -9.2650 O   0  0  0  0  0  0  0  0  0  0  0  0
  -19.3077  -42.8718   -8.1834 N   0  0  0  0  0  0  0  0  0  0  0  0
  -18.5125  -42.5980   -9.3919 C   0  0  0  0  0  0  0  0  0  0  0  0
  -18.5429  -42.9390   -6.9536 C   0  0  1  0  0  0  0  0  0  0  0  0
  -18.3276  -44.4438   -6.7114 C   0  0  0  0  0  0  0  0  0  0  0  0
  -17.2403  -42.2386   -7.0539 C   0  0  0  0  0  0  0  0  0  0  0  0
  -16.2781  -42.8250   -6.4268 O   0  0  0  0  0  0  0  0  0  0  0  0
  -16.9244  -41.0646   -7.7168 N   0  0  0  0  0  0  0  0  0  0  0  0
  -17.4850  -39.7333   -7.5975 C   0  0  1  0  0  0  0  0  0  0  0  0
  -18.4468  -39.5547   -6.4879 C   0  0  0  0  0  0  0  0  0  0  0  0
  -16.2985  -38.7967   -7.4360 C   0  0  2  0  0  0  0  0  0  0  0  0
  -16.6610  -37.5745   -6.8975 O   0  0  0  0  0  0  0  0  0  0  0  0
  -15.4315  -38.6984   -8.6615 C   0  0  0  0  0  0  0  0  0  0  0  0
  -14.1961  -39.3769   -8.3298 N   0  0  0  0  0  0  0  0  0  0  0  0
  -13.0833  -39.0687   -9.1674 C   0  0  0  0  0  0  0  0  0  0  0  0
  -11.8967  -38.4421   -8.5134 C   0  0  0  0  0  0  0  0  0  0  0  0
  -11.8562  -39.9021   -8.8270 C   0  0  0  0  0  0  0  0  0  0  0  0
  -13.3314  -38.8299  -10.6174 C   0  0  0  0  0  0  0  0  0  0  0  0
  -13.5034  -39.9321  -11.4645 C   0  0  0  0  0  0  0  0  0  0  0  0
  -13.7255  -39.7758  -12.8143 C   0  0  0  0  0  0  0  0  0  0  0  0
  -13.7719  -38.4873  -13.2994 C   0  0  0  0  0  0  0  0  0  0  0  0
  -13.6050  -37.3935  -12.4835 C   0  0  0  0  0  0  0  0  0  0  0  0
  -13.3786  -37.5511  -11.1091 C   0  0  0  0  0  0  0  0  0  0  0  0
  -13.9088  -40.9334  -13.7191 C   0  0  0  0  0  0  0  0  0  0  0  0
  -12.7962  -41.9258  -13.6203 C   0  0  0  0  0  0  0  0  0  0  0  0
  -15.2174  -41.6499  -13.4600 C   0  0  0  0  0  0  0  0  0  0  0  0
  -13.9690  -40.4187  -15.1456 C   0  0  0  0  0  0  0  0  0  0  0  0
  2  1  1  1
  2  3  1  0
  3  4  1  0
  4  5  1  0
  5  6  1  0
  6  7  1  0
  7  8  1  0
  8  9  1  0
  9 10  1  0
 10 11  1  0
 11 12  2  0
 11 13  1  0
 13 14  1  0
 13 15  1  0
 15 16  1  6
 15 17  1  0
 17 18  2  0
 17 19  1  0
 19 20  1  0
 20 21  1  1
 20 22  1  0
 22 23  1  6
 22 24  1  0
 24 25  1  0
 25 26  1  0
 26 27  1  0
 27 28  1  0
 26 29  1  0
 29 30  2  0
 30 31  1  0
 31 32  2  0
 32 33  1  0
 33 34  2  0
 31 35  1  0
 35 36  1  0
 35 37  1  0
 35 38  1  0
 21  2  1  0
 28 26  1  0
 34 29  1  0
M  END
$$$$
