
     RDKit          3D

 38 40  0  0  0  0  0  0  0  0999 V2000
  -13.5031  -41.2226   -7.2342 C   0  0  0  0  0  0  0  0  0  0  0  0
  -14.3968  -41.7902   -8.3172 C   0  0  2  0  0  0  0  0  0  0  0  0
  -13.5373  -42.7227   -9.1576 C   0  0  0  0  0  0  0  0  0  0  0  0
  -14.2012  -44.0829   -9.1145 C   0  0  0  0  0  0  0  0  0  0  0  0
  -13.3046  -45.2230   -9.4459 C   0  0  0  0  0  0  0  0  0  0  0  0
  -13.6939  -46.0454  -10.6208 C   0  0  0  0  0  0  0  0  0  0  0  0
  -15.1577  -46.2479  -10.8295 C   0  0  0  0  0  0  0  0  0  0  0  0
  -15.8666  -46.9818   -9.7359 C   0  0  0  0  0  0  0  0  0  0  0  0
  -16.3318  -46.2121   -8.7024 O   0  0  0  0  0  0  0  0  0  0  0  0
  -17.4753  -45.4756   -9.0074 C   0  0  0  0  0  0  0  0  0  0  0  0
  -17.4859  -44.3014   -8.1001 C   0  0  0  0  0  0  0  0  0  0  0  0
  -17.0478  -44.4876   -6.9134 O   0  0  0  0  0  0  0  0  0  0  0  0
  -17.9262  -43.0118   -8.4092 N   0  0  0  0  0  0  0  0  0  0  0  0
  -18.4846  -42.1746   -7.3345 C   0  0  0  0  0  0  0  0  0  0  0  0
  -17.8952  -42.3846   -9.7159 C   0  0  1  0  0  0  0  0  0  0  0  0
  -19.1420  -42.9272  -10.4374 C   0  0  0  0  0  0  0  0  0  0  0  0
  -17.9440  -40.9050   -9.6388 C   0  0  0  0  0  0  0  0  0  0  0  0
  -18.6394  -40.3522  -10.5735 O   0  0  0  0  0  0  0  0  0  0  0  0
  -17.3559  -40.0549   -8.7173 N   0  0  0  0  0  0  0  0  0  0  0  0
  -15.9688  -39.9010   -8.3263 C   0  0  1  0  0  0  0  0  0  0  0  0
  -14.9987  -40.6640   -9.1418 C   0  0  0  0  0  0  0  0  0  0  0  0
  -15.6795  -38.4105   -8.4022 C   0  0  2  0  0  0  0  0  0  0  0  0
  -14.9720  -37.9541   -7.3038 O   0  0  0  0  0  0  0  0  0  0  0  0
  -16.8811  -37.5759   -8.7526 C   0  0  0  0  0  0  0  0  0  0  0  0
  -16.6182  -37.0340  -10.0693 N   0  0  0  0  0  0  0  0  0  0  0  0
  -17.7180  -36.3708  -10.6902 C   0  0  0  0  0  0  0  0  0  0  0  0
  -17.5458  -34.9212  -11.0026 C   0  0  0  0  0  0  0  0  0  0  0  0
  -17.3937  -35.9165  -12.1061 C   0  0  0  0  0  0  0  0  0  0  0  0
  -19.0883  -36.9156  -10.4748 C   0  0  0  0  0  0  0  0  0  0  0  0
  -19.4242  -37.4214   -9.2125 C   0  0  0  0  0  0  0  0  0  0  0  0
  -20.6706  -37.9469   -8.9550 C   0  0  0  0  0  0  0  0  0  0  0  0
  -21.5766  -37.9550   -9.9926 C   0  0  0  0  0  0  0  0  0  0  0  0
  -21.2650  -37.4635  -11.2381 C   0  0  0  0  0  0  0  0  0  0  0  0
  -19.9965  -36.9283  -11.5017 C   0  0  0  0  0  0  0  0  0  0  0  0
  -21.0366  -38.4841   -7.6247 C   0  0  0  0  0  0  0  0  0  0  0  0
  -20.2597  -37.8554   -6.5140 C   0  0  0  0  0  0  0  0  0  0  0  0
  -22.5133  -38.3149   -7.3352 C   0  0  0  0  0  0  0  0  0  0  0  0
  -20.7600  -39.9764   -7.6206 C   0  0  0  0  0  0  0  0  0  0  0  0
  2  1  1  1
  2  3  1  0
  3  4  1  0
  4  5  1  0
  5  6  1  0
  6  7  1  0
  7  8  1  0
  8  9  1  0
  9 10  1  0
 10 11  1  0
 11 12  2  0
 11 13  1  0
 13 14  1  0
 13 15  1  0
 15 16  1  6
 15 17  1  0
 17 18  2  0
 17 19  1  0
 19 20  1  0
 20 21  1  6
 20 22  1  0
 22 23  1  1
 22 24  1  0
 24 25  1  0
 25 26  1  0
 26 27  1  0
 27 28  1  0
 26 29  1  0
 29 30  2  0
 30 31  1  0
 31 32  2  0
 32 33  1  0
 33 34  2  0
 31 35  1  0
 35 36  1  0
 35 37  1  0
 35 38  1  0
 21  2  1  0
 28 26  1  0
 34 29  1  0
M  END
$$$$
