
     RDKit          3D

 38 40  0  0  0  0  0  0  0  0999 V2000
  -21.0127  -38.2231   -7.5698 C   0  0  0  0  0  0  0  0  0  0  0  0
  -20.7836  -39.5496   -6.8756 C   0  0  2  0  0  0  0  0  0  0  0  0
  -21.6170  -39.5335   -5.6028 C   0  0  0  0  0  0  0  0  0  0  0  0
  -22.5462  -40.7267   -5.6764 C   0  0  0  0  0  0  0  0  0  0  0  0
  -23.7487  -40.6329   -4.8054 C   0  0  0  0  0  0  0  0  0  0  0  0
  -23.8974  -41.6922   -3.7739 C   0  0  0  0  0  0  0  0  0  0  0  0
  -23.4431  -43.0599   -4.1615 C   0  0  0  0  0  0  0  0  0  0  0  0
  -24.1836  -43.6834   -5.3017 C   0  0  0  0  0  0  0  0  0  0  0  0
  -23.7066  -43.3964   -6.5535 O   0  0  0  0  0  0  0  0  0  0  0  0
  -22.5352  -44.0736   -6.8884 C   0  0  0  0  0  0  0  0  0  0  0  0
  -21.8399  -43.2522   -7.9101 C   0  0  0  0  0  0  0  0  0  0  0  0
  -22.5786  -42.6364   -8.7528 O   0  0  0  0  0  0  0  0  0  0  0  0
  -20.4597  -43.0824   -8.0466 N   0  0  0  0  0  0  0  0  0  0  0  0
  -19.9039  -42.8278   -9.3859 C   0  0  0  0  0  0  0  0  0  0  0  0
  -19.4793  -43.1323   -6.9798 C   0  0  1  0  0  0  0  0  0  0  0  0
  -19.2205  -44.6336   -6.7594 C   0  0  0  0  0  0  0  0  0  0  0  0
  -18.2191  -42.4354   -7.3313 C   0  0  0  0  0  0  0  0  0  0  0  0
  -17.1562  -43.0136   -6.8855 O   0  0  0  0  0  0  0  0  0  0  0  0
  -18.0338  -41.2718   -8.0589 N   0  0  0  0  0  0  0  0  0  0  0  0
  -18.5642  -39.9381   -7.8572 C   0  0  1  0  0  0  0  0  0  0  0  0
  -19.3029  -39.7416   -6.5907 C   0  0  0  0  0  0  0  0  0  0  0  0
  -17.3697  -39.0009   -7.9334 C   0  0  2  0  0  0  0  0  0  0  0  0
  -17.7386  -37.6991   -8.2237 O   0  0  0  0  0  0  0  0  0  0  0  0
  -16.2398  -39.5248   -8.7772 C   0  0  0  0  0  0  0  0  0  0  0  0
  -15.0235  -39.1766   -8.0731 N   0  0  0  0  0  0  0  0  0  0  0  0
  -13.8602  -39.0431   -8.8879 C   0  0  0  0  0  0  0  0  0  0  0  0
  -12.5448  -39.3279   -8.2419 C   0  0  0  0  0  0  0  0  0  0  0  0
  -13.1579  -40.3742   -9.1142 C   0  0  0  0  0  0  0  0  0  0  0  0
  -13.9166  -38.1245  -10.0600 C   0  0  0  0  0  0  0  0  0  0  0  0
  -12.7205  -37.5995  -10.5659 C   0  0  0  0  0  0  0  0  0  0  0  0
  -12.7089  -36.7382  -11.6400 C   0  0  0  0  0  0  0  0  0  0  0  0
  -13.9252  -36.4127  -12.1988 C   0  0  0  0  0  0  0  0  0  0  0  0
  -15.1092  -36.9177  -11.7159 C   0  0  0  0  0  0  0  0  0  0  0  0
  -15.1226  -37.7945  -10.6223 C   0  0  0  0  0  0  0  0  0  0  0  0
  -11.4508  -36.1774  -12.1832 C   0  0  0  0  0  0  0  0  0  0  0  0
  -10.3853  -37.2103  -12.3565 C   0  0  0  0  0  0  0  0  0  0  0  0
  -11.6697  -35.4839  -13.5114 C   0  0  0  0  0  0  0  0  0  0  0  0
  -10.9442  -35.1209  -11.2184 C   0  0  0  0  0  0  0  0  0  0  0  0
  2  1  1  1
  2  3  1  0
  3  4  1  0
  4  5  1  0
  5  6  1  0
  6  7  1  0
  7  8  1  0
  8  9  1  0
  9 10  1  0
 10 11  1  0
 11 12  2  0
 11 13  1  0
 13 14  1  0
 13 15  1  0
 15 16  1  6
 15 17  1  0
 17 18  2  0
 17 19  1  0
 19 20  1  0
 20 21  1  1
 20 22  1  0
 22 23  1  6
 22 24  1  0
 24 25  1  0
 25 26  1  0
 26 27  1  0
 27 28  1  0
 26 29  1  0
 29 30  2  0
 30 31  1  0
 31 32  2  0
 32 33  1  0
 33 34  2  0
 31 35  1  0
 35 36  1  0
 35 37  1  0
 35 38  1  0
 21  2  1  0
 28 26  1  0
 34 29  1  0
M  END
$$$$
