
     RDKit          3D

 38 40  0  0  0  0  0  0  0  0999 V2000
  -13.4092  -37.0212   -8.9492 C   0  0  0  0  0  0  0  0  0  0  0  0
  -14.0166  -37.8659  -10.0499 C   0  0  2  0  0  0  0  0  0  0  0  0
  -13.4958  -37.3157  -11.3693 C   0  0  0  0  0  0  0  0  0  0  0  0
  -12.7990  -38.4610  -12.0732 C   0  0  0  0  0  0  0  0  0  0  0  0
  -11.8217  -38.0474  -13.1159 C   0  0  0  0  0  0  0  0  0  0  0  0
  -12.0941  -38.5222  -14.4974 C   0  0  0  0  0  0  0  0  0  0  0  0
  -12.6857  -39.8866  -14.6223 C   0  0  0  0  0  0  0  0  0  0  0  0
  -11.8334  -41.0051  -14.1125 C   0  0  0  0  0  0  0  0  0  0  0  0
  -11.9635  -41.2974  -12.7803 O   0  0  0  0  0  0  0  0  0  0  0  0
  -13.1327  -41.9841  -12.4570 C   0  0  0  0  0  0  0  0  0  0  0  0
  -13.4286  -41.6844  -11.0341 C   0  0  0  0  0  0  0  0  0  0  0  0
  -12.4250  -41.5674  -10.2503 O   0  0  0  0  0  0  0  0  0  0  0  0
  -14.6922  -41.5170  -10.4617 N   0  0  0  0  0  0  0  0  0  0  0  0
  -14.8843  -41.8737   -9.0462 C   0  0  0  0  0  0  0  0  0  0  0  0
  -15.8772  -41.0156  -11.1295 C   0  0  1  0  0  0  0  0  0  0  0  0
  -16.4392  -42.2308  -11.8890 C   0  0  0  0  0  0  0  0  0  0  0  0
  -16.8852  -40.4863  -10.1801 C   0  0  0  0  0  0  0  0  0  0  0  0
  -18.1053  -40.7335  -10.5164 O   0  0  0  0  0  0  0  0  0  0  0  0
  -16.6966  -39.7776   -9.0055 N   0  0  0  0  0  0  0  0  0  0  0  0
  -15.9969  -38.5330   -8.7562 C   0  0  1  0  0  0  0  0  0  0  0  0
  -15.5337  -37.8203   -9.9669 C   0  0  0  0  0  0  0  0  0  0  0  0
  -16.9602  -37.6682   -7.9593 C   0  0  2  0  0  0  0  0  0  0  0  0
  -16.3269  -36.6024   -7.3444 O   0  0  0  0  0  0  0  0  0  0  0  0
  -17.8712  -38.4508   -7.0532 C   0  0  0  0  0  0  0  0  0  0  0  0
  -19.1198  -38.5937   -7.7724 N   0  0  0  0  0  0  0  0  0  0  0  0
  -20.2871  -38.1846   -7.0617 C   0  0  0  0  0  0  0  0  0  0  0  0
  -20.1554  -36.9926   -6.1727 C   0  0  0  0  0  0  0  0  0  0  0  0
  -20.7902  -36.8213   -7.5140 C   0  0  0  0  0  0  0  0  0  0  0  0
  -21.3332  -39.2048   -6.7685 C   0  0  0  0  0  0  0  0  0  0  0  0
  -21.0184  -40.2702   -5.9154 C   0  0  0  0  0  0  0  0  0  0  0  0
  -21.9391  -41.2488   -5.6147 C   0  0  0  0  0  0  0  0  0  0  0  0
  -23.1863  -41.1372   -6.1887 C   0  0  0  0  0  0  0  0  0  0  0  0
  -23.5134  -40.0990   -7.0285 C   0  0  0  0  0  0  0  0  0  0  0  0
  -22.5770  -39.1021   -7.3357 C   0  0  0  0  0  0  0  0  0  0  0  0
  -21.6174  -42.3793   -4.7142 C   0  0  0  0  0  0  0  0  0  0  0  0
  -21.1941  -43.6058   -5.4552 C   0  0  0  0  0  0  0  0  0  0  0  0
  -20.5328  -42.0183   -3.7212 C   0  0  0  0  0  0  0  0  0  0  0  0
  -22.8572  -42.7109   -3.9038 C   0  0  0  0  0  0  0  0  0  0  0  0
  2  1  1  1
  2  3  1  0
  3  4  1  0
  4  5  1  0
  5  6  1  0
  6  7  1  0
  7  8  1  0
  8  9  1  0
  9 10  1  0
 10 11  1  0
 11 12  2  0
 11 13  1  0
 13 14  1  0
 13 15  1  0
 15 16  1  1
 15 17  1  0
 17 18  2  0
 17 19  1  0
 19 20  1  0
 20 21  1  6
 20 22  1  0
 22 23  1  1
 22 24  1  0
 24 25  1  0
 25 26  1  0
 26 27  1  0
 27 28  1  0
 26 29  1  0
 29 30  2  0
 30 31  1  0
 31 32  2  0
 32 33  1  0
 33 34  2  0
 31 35  1  0
 35 36  1  0
 35 37  1  0
 35 38  1  0
 21  2  1  0
 28 26  1  0
 34 29  1  0
M  END
$$$$
