
     RDKit          3D

 38 40  0  0  0  0  0  0  0  0999 V2000
  -12.6416  -38.4607   -8.2401 C   0  0  0  0  0  0  0  0  0  0  0  0
  -13.3266  -38.5929   -9.5845 C   0  0  2  0  0  0  0  0  0  0  0  0
  -12.6111  -37.6507  -10.5410 C   0  0  0  0  0  0  0  0  0  0  0  0
  -12.1121  -38.4971  -11.6931 C   0  0  0  0  0  0  0  0  0  0  0  0
  -10.9985  -37.8920  -12.4723 C   0  0  0  0  0  0  0  0  0  0  0  0
  -11.2610  -37.6504  -13.9149 C   0  0  0  0  0  0  0  0  0  0  0  0
  -12.1064  -38.6641  -14.6112 C   0  0  0  0  0  0  0  0  0  0  0  0
  -11.5378  -40.0464  -14.6652 C   0  0  0  0  0  0  0  0  0  0  0  0
  -11.8204  -40.8520  -13.5936 O   0  0  0  0  0  0  0  0  0  0  0  0
  -13.1247  -41.3433  -13.5757 C   0  0  0  0  0  0  0  0  0  0  0  0
  -13.4557  -41.6346  -12.1588 C   0  0  0  0  0  0  0  0  0  0  0  0
  -12.5086  -42.0866  -11.4282 O   0  0  0  0  0  0  0  0  0  0  0  0
  -14.6971  -41.4660  -11.5400 N   0  0  0  0  0  0  0  0  0  0  0  0
  -15.0593  -42.3508  -10.4203 C   0  0  0  0  0  0  0  0  0  0  0  0
  -15.7044  -40.4841  -11.8906 C   0  0  1  0  0  0  0  0  0  0  0  0
  -16.4448  -41.0984  -13.0921 C   0  0  0  0  0  0  0  0  0  0  0  0
  -16.6499  -40.2168  -10.7806 C   0  0  0  0  0  0  0  0  0  0  0  0
  -17.8673  -40.0264  -11.1609 O   0  0  0  0  0  0  0  0  0  0  0  0
  -16.4069  -40.1461   -9.4192 N   0  0  0  0  0  0  0  0  0  0  0  0
  -15.4892  -39.3142   -8.6664 C   0  0  1  0  0  0  0  0  0  0  0  0
  -14.8048  -38.2645   -9.4525 C   0  0  0  0  0  0  0  0  0  0  0  0
  -16.3121  -38.6967   -7.5472 C   0  0  2  0  0  0  0  0  0  0  0  0
  -15.5821  -38.5366   -6.3825 O   0  0  0  0  0  0  0  0  0  0  0  0
  -17.6539  -39.3478   -7.3499 C   0  0  0  0  0  0  0  0  0  0  0  0
  -18.5884  -38.2677   -7.1117 N   0  0  0  0  0  0  0  0  0  0  0  0
  -19.9673  -38.6113   -7.2368 C   0  0  0  0  0  0  0  0  0  0  0  0
  -20.9527  -37.4918   -7.1704 C   0  0  0  0  0  0  0  0  0  0  0  0
  -20.5892  -38.0500   -8.5074 C   0  0  0  0  0  0  0  0  0  0  0  0
  -20.3938  -39.9860   -6.8506 C   0  0  0  0  0  0  0  0  0  0  0  0
  -21.6831  -40.1747   -6.3368 C   0  0  0  0  0  0  0  0  0  0  0  0
  -22.1311  -41.4189   -5.9532 C   0  0  0  0  0  0  0  0  0  0  0  0
  -21.2570  -42.4739   -6.0958 C   0  0  0  0  0  0  0  0  0  0  0  0
  -19.9879  -42.3081   -6.5976 C   0  0  0  0  0  0  0  0  0  0  0  0
  -19.5304  -41.0419   -6.9884 C   0  0  0  0  0  0  0  0  0  0  0  0
  -23.4918  -41.6301   -5.4091 C   0  0  0  0  0  0  0  0  0  0  0  0
  -24.2930  -40.3703   -5.3516 C   0  0  0  0  0  0  0  0  0  0  0  0
  -24.2658  -42.6568   -6.2088 C   0  0  0  0  0  0  0  0  0  0  0  0
  -23.3619  -42.1821   -4.0012 C   0  0  0  0  0  0  0  0  0  0  0  0
  2  1  1  1
  2  3  1  0
  3  4  1  0
  4  5  1  0
  5  6  1  0
  6  7  1  0
  7  8  1  0
  8  9  1  0
  9 10  1  0
 10 11  1  0
 11 12  2  0
 11 13  1  0
 13 14  1  0
 13 15  1  0
 15 16  1  6
 15 17  1  0
 17 18  2  0
 17 19  1  0
 19 20  1  0
 20 21  1  6
 20 22  1  0
 22 23  1  1
 22 24  1  0
 24 25  1  0
 25 26  1  0
 26 27  1  0
 27 28  1  0
 26 29  1  0
 29 30  2  0
 30 31  1  0
 31 32  2  0
 32 33  1  0
 33 34  2  0
 31 35  1  0
 35 36  1  0
 35 37  1  0
 35 38  1  0
 21  2  1  0
 28 26  1  0
 34 29  1  0
M  END
$$$$
