
     RDKit          3D

 38 40  0  0  0  0  0  0  0  0999 V2000
  -21.1108  -38.0253   -8.7627 C   0  0  0  0  0  0  0  0  0  0  0  0
  -20.7679  -39.0925   -7.7441 C   0  0  2  0  0  0  0  0  0  0  0  0
  -21.7831  -38.9722   -6.6173 C   0  0  0  0  0  0  0  0  0  0  0  0
  -22.4670  -40.3183   -6.5026 C   0  0  0  0  0  0  0  0  0  0  0  0
  -23.7904  -40.2874   -5.8237 C   0  0  0  0  0  0  0  0  0  0  0  0
  -23.9148  -41.1043   -4.5886 C   0  0  0  0  0  0  0  0  0  0  0  0
  -23.1738  -42.3997   -4.5761 C   0  0  0  0  0  0  0  0  0  0  0  0
  -23.6037  -43.3953   -5.6062 C   0  0  0  0  0  0  0  0  0  0  0  0
  -22.9908  -43.2954   -6.8274 O   0  0  0  0  0  0  0  0  0  0  0  0
  -21.6813  -43.7726   -6.8510 C   0  0  0  0  0  0  0  0  0  0  0  0
  -20.9860  -43.0678   -7.9563 C   0  0  0  0  0  0  0  0  0  0  0  0
  -21.6769  -42.8160   -9.0024 O   0  0  0  0  0  0  0  0  0  0  0  0
  -19.6525  -42.6507   -7.9720 N   0  0  0  0  0  0  0  0  0  0  0  0
  -18.9435  -42.5845   -9.2606 C   0  0  0  0  0  0  0  0  0  0  0  0
  -18.8607  -42.2640   -6.8208 C   0  0  1  0  0  0  0  0  0  0  0  0
  -18.3832  -43.5949   -6.2124 C   0  0  0  0  0  0  0  0  0  0  0  0
  -17.7013  -41.4156   -7.1859 C   0  0  0  0  0  0  0  0  0  0  0  0
  -16.6387  -41.6509   -6.4943 O   0  0  0  0  0  0  0  0  0  0  0  0
  -17.6078  -40.4256   -8.1497 N   0  0  0  0  0  0  0  0  0  0  0  0
  -18.3874  -39.2188   -8.3416 C   0  0  1  0  0  0  0  0  0  0  0  0
  -19.3409  -38.9082   -7.2541 C   0  0  0  0  0  0  0  0  0  0  0  0
  -17.3774  -38.0948   -8.5078 C   0  0  2  0  0  0  0  0  0  0  0  0
  -17.9728  -36.9010   -8.8758 O   0  0  0  0  0  0  0  0  0  0  0  0
  -16.1823  -38.4708   -9.3406 C   0  0  0  0  0  0  0  0  0  0  0  0
  -15.2844  -37.3363   -9.2820 N   0  0  0  0  0  0  0  0  0  0  0  0
  -14.7719  -36.8944  -10.5378 C   0  0  0  0  0  0  0  0  0  0  0  0
  -15.5808  -35.8838  -11.2814 C   0  0  0  0  0  0  0  0  0  0  0  0
  -14.3827  -35.4233  -10.5173 C   0  0  0  0  0  0  0  0  0  0  0  0
  -13.8618  -37.8023  -11.2918 C   0  0  0  0  0  0  0  0  0  0  0  0
  -12.6055  -37.3251  -11.6867 C   0  0  0  0  0  0  0  0  0  0  0  0
  -11.7251  -38.1128  -12.3940 C   0  0  0  0  0  0  0  0  0  0  0  0
  -12.1313  -39.3934  -12.6984 C   0  0  0  0  0  0  0  0  0  0  0  0
  -13.3604  -39.8790  -12.3197 C   0  0  0  0  0  0  0  0  0  0  0  0
  -14.2579  -39.0782  -11.5998 C   0  0  0  0  0  0  0  0  0  0  0  0
  -10.3947  -37.6189  -12.8163 C   0  0  0  0  0  0  0  0  0  0  0  0
   -9.2922  -38.0982  -11.9291 C   0  0  0  0  0  0  0  0  0  0  0  0
  -10.0725  -38.0155  -14.2417 C   0  0  0  0  0  0  0  0  0  0  0  0
  -10.4159  -36.1018  -12.7804 C   0  0  0  0  0  0  0  0  0  0  0  0
  2  1  1  6
  2  3  1  0
  3  4  1  0
  4  5  1  0
  5  6  1  0
  6  7  1  0
  7  8  1  0
  8  9  1  0
  9 10  1  0
 10 11  1  0
 11 12  2  0
 11 13  1  0
 13 14  1  0
 13 15  1  0
 15 16  1  6
 15 17  1  0
 17 18  2  0
 17 19  1  0
 19 20  1  0
 20 21  1  1
 20 22  1  0
 22 23  1  6
 22 24  1  0
 24 25  1  0
 25 26  1  0
 26 27  1  0
 27 28  1  0
 26 29  1  0
 29 30  2  0
 30 31  1  0
 31 32  2  0
 32 33  1  0
 33 34  2  0
 31 35  1  0
 35 36  1  0
 35 37  1  0
 35 38  1  0
 21  2  1  0
 28 26  1  0
 34 29  1  0
M  END
$$$$
