
     RDKit          3D

 38 40  0  0  0  0  0  0  0  0999 V2000
  -21.0033  -37.8196   -8.6006 C   0  0  0  0  0  0  0  0  0  0  0  0
  -20.3170  -38.7513   -7.6235 C   0  0  2  0  0  0  0  0  0  0  0  0
  -20.9270  -38.4859   -6.2551 C   0  0  0  0  0  0  0  0  0  0  0  0
  -21.4899  -39.8040   -5.7669 C   0  0  0  0  0  0  0  0  0  0  0  0
  -22.5306  -39.6824   -4.7107 C   0  0  0  0  0  0  0  0  0  0  0  0
  -22.2278  -40.3368   -3.4112 C   0  0  0  0  0  0  0  0  0  0  0  0
  -21.4744  -41.6232   -3.4792 C   0  0  0  0  0  0  0  0  0  0  0  0
  -22.1719  -42.7389   -4.1905 C   0  0  0  0  0  0  0  0  0  0  0  0
  -21.9813  -42.7962   -5.5460 O   0  0  0  0  0  0  0  0  0  0  0  0
  -20.7302  -43.2779   -5.9279 C   0  0  0  0  0  0  0  0  0  0  0  0
  -20.4466  -42.7208   -7.2737 C   0  0  0  0  0  0  0  0  0  0  0  0
  -21.4418  -42.6000   -8.0674 O   0  0  0  0  0  0  0  0  0  0  0  0
  -19.2028  -42.3145   -7.7636 N   0  0  0  0  0  0  0  0  0  0  0  0
  -18.9411  -42.4140   -9.2091 C   0  0  0  0  0  0  0  0  0  0  0  0
  -18.1018  -41.7890   -6.9803 C   0  0  1  0  0  0  0  0  0  0  0  0
  -17.4083  -43.0346   -6.3998 C   0  0  0  0  0  0  0  0  0  0  0  0
  -17.1492  -40.9981   -7.7955 C   0  0  0  0  0  0  0  0  0  0  0  0
  -15.9145  -41.1488   -7.4554 O   0  0  0  0  0  0  0  0  0  0  0  0
  -17.4017  -40.1378   -8.8508 N   0  0  0  0  0  0  0  0  0  0  0  0
  -18.2452  -38.9616   -8.9285 C   0  0  1  0  0  0  0  0  0  0  0  0
  -18.8160  -38.5126   -7.6398 C   0  0  0  0  0  0  0  0  0  0  0  0
  -17.3813  -37.8717   -9.5423 C   0  0  2  0  0  0  0  0  0  0  0  0
  -18.0334  -36.6525   -9.6012 O   0  0  0  0  0  0  0  0  0  0  0  0
  -16.7145  -38.2776  -10.8283 C   0  0  0  0  0  0  0  0  0  0  0  0
  -16.4655  -37.0484  -11.5520 N   0  0  0  0  0  0  0  0  0  0  0  0
  -15.0969  -36.7798  -11.8516 C   0  0  0  0  0  0  0  0  0  0  0  0
  -14.7866  -35.4586  -12.4734 C   0  0  0  0  0  0  0  0  0  0  0  0
  -14.5347  -35.6415  -11.0124 C   0  0  0  0  0  0  0  0  0  0  0  0
  -14.1828  -37.9329  -12.0879 C   0  0  0  0  0  0  0  0  0  0  0  0
  -12.8696  -37.8647  -11.6055 C   0  0  0  0  0  0  0  0  0  0  0  0
  -11.9756  -38.8935  -11.8011 C   0  0  0  0  0  0  0  0  0  0  0  0
  -12.4267  -39.9961  -12.4927 C   0  0  0  0  0  0  0  0  0  0  0  0
  -13.7117  -40.0809  -12.9739 C   0  0  0  0  0  0  0  0  0  0  0  0
  -14.6229  -39.0342  -12.7757 C   0  0  0  0  0  0  0  0  0  0  0  0
  -10.5853  -38.8324  -11.2955 C   0  0  0  0  0  0  0  0  0  0  0  0
  -10.4571  -38.0084  -10.0557 C   0  0  0  0  0  0  0  0  0  0  0  0
  -10.0254  -40.2114  -11.0171 C   0  0  0  0  0  0  0  0  0  0  0  0
   -9.7124  -38.2174  -12.3742 C   0  0  0  0  0  0  0  0  0  0  0  0
  2  1  1  6
  2  3  1  0
  3  4  1  0
  4  5  1  0
  5  6  1  0
  6  7  1  0
  7  8  1  0
  8  9  1  0
  9 10  1  0
 10 11  1  0
 11 12  2  0
 11 13  1  0
 13 14  1  0
 13 15  1  0
 15 16  1  6
 15 17  1  0
 17 18  2  0
 17 19  1  0
 19 20  1  0
 20 21  1  1
 20 22  1  0
 22 23  1  6
 22 24  1  0
 24 25  1  0
 25 26  1  0
 26 27  1  0
 27 28  1  0
 26 29  1  0
 29 30  2  0
 30 31  1  0
 31 32  2  0
 32 33  1  0
 33 34  2  0
 31 35  1  0
 35 36  1  0
 35 37  1  0
 35 38  1  0
 21  2  1  0
 28 26  1  0
 34 29  1  0
M  END
$$$$
