
     RDKit          3D

 38 40  0  0  0  0  0  0  0  0999 V2000
  -15.0313  -42.9060   -9.2712 C   0  0  0  0  0  0  0  0  0  0  0  0
  -16.4345  -43.4745   -9.3122 C   0  0  2  0  0  0  0  0  0  0  0  0
  -16.5855  -44.1865  -10.6482 C   0  0  0  0  0  0  0  0  0  0  0  0
  -16.9529  -45.6220  -10.3369 C   0  0  0  0  0  0  0  0  0  0  0  0
  -16.6759  -46.5868  -11.4351 C   0  0  0  0  0  0  0  0  0  0  0  0
  -17.8478  -47.3270  -11.9708 C   0  0  0  0  0  0  0  0  0  0  0  0
  -18.8984  -47.7061  -10.9810 C   0  0  0  0  0  0  0  0  0  0  0  0
  -18.4555  -48.6412   -9.9010 C   0  0  0  0  0  0  0  0  0  0  0  0
  -17.9125  -48.0556   -8.7877 O   0  0  0  0  0  0  0  0  0  0  0  0
  -18.8460  -47.4555   -7.9442 C   0  0  0  0  0  0  0  0  0  0  0  0
  -18.1288  -46.3957   -7.1929 C   0  0  0  0  0  0  0  0  0  0  0  0
  -16.9185  -46.6434   -6.8630 O   0  0  0  0  0  0  0  0  0  0  0  0
  -18.6405  -45.1538   -6.8080 N   0  0  0  0  0  0  0  0  0  0  0  0
  -18.1209  -44.5188   -5.5855 C   0  0  0  0  0  0  0  0  0  0  0  0
  -19.6628  -44.3946   -7.5011 C   0  0  1  0  0  0  0  0  0  0  0  0
  -20.9912  -45.0250   -7.0456 C   0  0  0  0  0  0  0  0  0  0  0  0
  -19.6301  -42.9522   -7.1609 C   0  0  0  0  0  0  0  0  0  0  0  0
  -20.7948  -42.4054   -7.0754 O   0  0  0  0  0  0  0  0  0  0  0  0
  -18.5401  -42.1306   -6.9272 N   0  0  0  0  0  0  0  0  0  0  0  0
  -17.3905  -41.8292   -7.7568 C   0  0  1  0  0  0  0  0  0  0  0  0
  -17.4547  -42.3616   -9.1354 C   0  0  0  0  0  0  0  0  0  0  0  0
  -17.2755  -40.3134   -7.7711 C   0  0  2  0  0  0  0  0  0  0  0  0
  -16.3719  -39.8443   -6.8337 O   0  0  0  0  0  0  0  0  0  0  0  0
  -18.6019  -39.6038   -7.7586 C   0  0  0  0  0  0  0  0  0  0  0  0
  -18.3083  -38.2181   -7.4579 N   0  0  0  0  0  0  0  0  0  0  0  0
  -19.2525  -37.2700   -7.9524 C   0  0  0  0  0  0  0  0  0  0  0  0
  -20.6769  -37.4587   -7.5474 C   0  0  0  0  0  0  0  0  0  0  0  0
  -19.8602  -36.4266   -6.8409 C   0  0  0  0  0  0  0  0  0  0  0  0
  -18.9409  -36.5544   -9.2221 C   0  0  0  0  0  0  0  0  0  0  0  0
  -17.6419  -36.6312   -9.7402 C   0  0  0  0  0  0  0  0  0  0  0  0
  -17.2906  -35.9838  -10.9036 C   0  0  0  0  0  0  0  0  0  0  0  0
  -18.2719  -35.2553  -11.5392 C   0  0  0  0  0  0  0  0  0  0  0  0
  -19.5520  -35.1681  -11.0456 C   0  0  0  0  0  0  0  0  0  0  0  0
  -19.9110  -35.8265   -9.8612 C   0  0  0  0  0  0  0  0  0  0  0  0
  -15.9208  -36.0580  -11.4606 C   0  0  0  0  0  0  0  0  0  0  0  0
  -15.9056  -36.0923  -12.9542 C   0  0  0  0  0  0  0  0  0  0  0  0
  -15.0601  -34.9018  -10.9967 C   0  0  0  0  0  0  0  0  0  0  0  0
  -15.2640  -37.3249  -10.9436 C   0  0  0  0  0  0  0  0  0  0  0  0
  2  1  1  6
  2  3  1  0
  3  4  1  0
  4  5  1  0
  5  6  1  0
  6  7  1  0
  7  8  1  0
  8  9  1  0
  9 10  1  0
 10 11  1  0
 11 12  2  0
 11 13  1  0
 13 14  1  0
 13 15  1  0
 15 16  1  1
 15 17  1  0
 17 18  2  0
 17 19  1  0
 19 20  1  0
 20 21  1  6
 20 22  1  0
 22 23  1  1
 22 24  1  0
 24 25  1  0
 25 26  1  0
 26 27  1  0
 27 28  1  0
 26 29  1  0
 29 30  2  0
 30 31  1  0
 31 32  2  0
 32 33  1  0
 33 34  2  0
 31 35  1  0
 35 36  1  0
 35 37  1  0
 35 38  1  0
 21  2  1  0
 28 26  1  0
 34 29  1  0
M  END
$$$$
