
     RDKit          3D

 38 40  0  0  0  0  0  0  0  0999 V2000
  -19.8098  -37.9792   -7.1799 C   0  0  0  0  0  0  0  0  0  0  0  0
  -19.7626  -39.3457   -6.5286 C   0  0  2  0  0  0  0  0  0  0  0  0
  -20.5686  -39.2514   -5.2417 C   0  0  0  0  0  0  0  0  0  0  0  0
  -21.6590  -40.2980   -5.3337 C   0  0  0  0  0  0  0  0  0  0  0  0
  -22.8244  -40.0618   -4.4396 C   0  0  0  0  0  0  0  0  0  0  0  0
  -23.1088  -41.1211   -3.4369 C   0  0  0  0  0  0  0  0  0  0  0  0
  -22.8587  -42.5266   -3.8718 C   0  0  0  0  0  0  0  0  0  0  0  0
  -23.6952  -43.0029   -5.0166 C   0  0  0  0  0  0  0  0  0  0  0  0
  -23.1986  -42.7475   -6.2677 O   0  0  0  0  0  0  0  0  0  0  0  0
  -22.1398  -43.5732   -6.6423 C   0  0  0  0  0  0  0  0  0  0  0  0
  -21.3482  -42.8272   -7.6516 C   0  0  0  0  0  0  0  0  0  0  0  0
  -22.0027  -42.0869   -8.4632 O   0  0  0  0  0  0  0  0  0  0  0  0
  -19.9598  -42.8506   -7.8070 N   0  0  0  0  0  0  0  0  0  0  0  0
  -19.3909  -42.6357   -9.1479 C   0  0  0  0  0  0  0  0  0  0  0  0
  -18.9826  -43.0723   -6.7593 C   0  0  1  0  0  0  0  0  0  0  0  0
  -18.9371  -44.6012   -6.5871 C   0  0  0  0  0  0  0  0  0  0  0  0
  -17.6408  -42.5504   -7.1122 C   0  0  0  0  0  0  0  0  0  0  0  0
  -16.6652  -43.2871   -6.7019 O   0  0  0  0  0  0  0  0  0  0  0  0
  -17.3014  -41.4027   -7.8089 N   0  0  0  0  0  0  0  0  0  0  0  0
  -17.6341  -40.0142   -7.5593 C   0  0  1  0  0  0  0  0  0  0  0  0
  -18.3207  -39.7545   -6.2751 C   0  0  0  0  0  0  0  0  0  0  0  0
  -16.3195  -39.2539   -7.6291 C   0  0  2  0  0  0  0  0  0  0  0  0
  -16.5000  -37.8828   -7.5771 O   0  0  0  0  0  0  0  0  0  0  0  0
  -15.4094  -39.7150   -8.7346 C   0  0  0  0  0  0  0  0  0  0  0  0
  -14.0710  -39.3372   -8.3310 N   0  0  0  0  0  0  0  0  0  0  0  0
  -13.0254  -39.7571   -9.2057 C   0  0  0  0  0  0  0  0  0  0  0  0
  -11.8242  -40.3799   -8.5750 C   0  0  0  0  0  0  0  0  0  0  0  0
  -12.8454  -41.2684   -9.2067 C   0  0  0  0  0  0  0  0  0  0  0  0
  -12.8908  -39.0805  -10.5268 C   0  0  0  0  0  0  0  0  0  0  0  0
  -13.2365  -37.7272  -10.6317 C   0  0  0  0  0  0  0  0  0  0  0  0
  -13.1432  -37.0502  -11.8270 C   0  0  0  0  0  0  0  0  0  0  0  0
  -12.6946  -37.7601  -12.9190 C   0  0  0  0  0  0  0  0  0  0  0  0
  -12.3511  -39.0886  -12.8353 C   0  0  0  0  0  0  0  0  0  0  0  0
  -12.4457  -39.7792  -11.6191 C   0  0  0  0  0  0  0  0  0  0  0  0
  -13.5057  -35.6198  -11.9496 C   0  0  0  0  0  0  0  0  0  0  0  0
  -12.4273  -34.7069  -11.4638 C   0  0  0  0  0  0  0  0  0  0  0  0
  -13.8474  -35.2450  -13.3763 C   0  0  0  0  0  0  0  0  0  0  0  0
  -14.7543  -35.3720  -11.1230 C   0  0  0  0  0  0  0  0  0  0  0  0
  2  1  1  1
  2  3  1  0
  3  4  1  0
  4  5  1  0
  5  6  1  0
  6  7  1  0
  7  8  1  0
  8  9  1  0
  9 10  1  0
 10 11  1  0
 11 12  2  0
 11 13  1  0
 13 14  1  0
 13 15  1  0
 15 16  1  6
 15 17  1  0
 17 18  2  0
 17 19  1  0
 19 20  1  0
 20 21  1  1
 20 22  1  0
 22 23  1  6
 22 24  1  0
 24 25  1  0
 25 26  1  0
 26 27  1  0
 27 28  1  0
 26 29  1  0
 29 30  2  0
 30 31  1  0
 31 32  2  0
 32 33  1  0
 33 34  2  0
 31 35  1  0
 35 36  1  0
 35 37  1  0
 35 38  1  0
 21  2  1  0
 28 26  1  0
 34 29  1  0
M  END
$$$$
