
     RDKit          3D

 38 40  0  0  0  0  0  0  0  0999 V2000
  -19.5922  -37.7397   -7.6684 C   0  0  0  0  0  0  0  0  0  0  0  0
  -19.6029  -39.0300   -6.8754 C   0  0  2  0  0  0  0  0  0  0  0  0
  -20.5270  -38.8119   -5.6866 C   0  0  0  0  0  0  0  0  0  0  0  0
  -21.6009  -39.8762   -5.7696 C   0  0  0  0  0  0  0  0  0  0  0  0
  -22.8462  -39.5627   -5.0183 C   0  0  0  0  0  0  0  0  0  0  0  0
  -23.2210  -40.5149   -3.9408 C   0  0  0  0  0  0  0  0  0  0  0  0
  -22.9270  -41.9548   -4.2001 C   0  0  0  0  0  0  0  0  0  0  0  0
  -23.6504  -42.5588   -5.3616 C   0  0  0  0  0  0  0  0  0  0  0  0
  -23.0387  -42.4292   -6.5806 O   0  0  0  0  0  0  0  0  0  0  0  0
  -21.9470  -43.2760   -6.7656 C   0  0  0  0  0  0  0  0  0  0  0  0
  -21.0657  -42.6295   -7.7693 C   0  0  0  0  0  0  0  0  0  0  0  0
  -21.6428  -41.9865   -8.7119 O   0  0  0  0  0  0  0  0  0  0  0  0
  -19.6688  -42.6514   -7.7908 N   0  0  0  0  0  0  0  0  0  0  0  0
  -18.9765  -42.5706   -9.0877 C   0  0  0  0  0  0  0  0  0  0  0  0
  -18.7942  -42.7500   -6.6388 C   0  0  1  0  0  0  0  0  0  0  0  0
  -18.7609  -44.2519   -6.3031 C   0  0  0  0  0  0  0  0  0  0  0  0
  -17.4265  -42.2509   -6.9175 C   0  0  0  0  0  0  0  0  0  0  0  0
  -16.4919  -42.9282   -6.3425 O   0  0  0  0  0  0  0  0  0  0  0  0
  -17.0261  -41.1780   -7.6962 N   0  0  0  0  0  0  0  0  0  0  0  0
  -17.3847  -39.7754   -7.6264 C   0  0  1  0  0  0  0  0  0  0  0  0
  -18.1902  -39.3917   -6.4465 C   0  0  0  0  0  0  0  0  0  0  0  0
  -16.0716  -39.0099   -7.6525 C   0  0  2  0  0  0  0  0  0  0  0  0
  -16.1173  -37.9131   -8.4951 O   0  0  0  0  0  0  0  0  0  0  0  0
  -14.8626  -39.8846   -7.8432 C   0  0  0  0  0  0  0  0  0  0  0  0
  -14.7805  -40.1445   -9.2653 N   0  0  0  0  0  0  0  0  0  0  0  0
  -13.4736  -40.0565   -9.8302 C   0  0  0  0  0  0  0  0  0  0  0  0
  -12.4803  -41.0854   -9.4021 C   0  0  0  0  0  0  0  0  0  0  0  0
  -13.1513  -41.2429  -10.7274 C   0  0  0  0  0  0  0  0  0  0  0  0
  -12.9933  -38.7275  -10.3038 C   0  0  0  0  0  0  0  0  0  0  0  0
  -13.7475  -38.0381  -11.2618 C   0  0  0  0  0  0  0  0  0  0  0  0
  -13.3503  -36.8116  -11.7454 C   0  0  0  0  0  0  0  0  0  0  0  0
  -12.1774  -36.2885  -11.2471 C   0  0  0  0  0  0  0  0  0  0  0  0
  -11.4239  -36.9506  -10.3070 C   0  0  0  0  0  0  0  0  0  0  0  0
  -11.8269  -38.1994   -9.8139 C   0  0  0  0  0  0  0  0  0  0  0  0
  -14.1395  -36.0738  -12.7579 C   0  0  0  0  0  0  0  0  0  0  0  0
  -13.6011  -36.2378  -14.1419 C   0  0  0  0  0  0  0  0  0  0  0  0
  -15.5944  -36.4936  -12.7543 C   0  0  0  0  0  0  0  0  0  0  0  0
  -14.1109  -34.5985  -12.4023 C   0  0  0  0  0  0  0  0  0  0  0  0
  2  1  1  1
  2  3  1  0
  3  4  1  0
  4  5  1  0
  5  6  1  0
  6  7  1  0
  7  8  1  0
  8  9  1  0
  9 10  1  0
 10 11  1  0
 11 12  2  0
 11 13  1  0
 13 14  1  0
 13 15  1  0
 15 16  1  6
 15 17  1  0
 17 18  2  0
 17 19  1  0
 19 20  1  0
 20 21  1  1
 20 22  1  0
 22 23  1  6
 22 24  1  0
 24 25  1  0
 25 26  1  0
 26 27  1  0
 27 28  1  0
 26 29  1  0
 29 30  2  0
 30 31  1  0
 31 32  2  0
 32 33  1  0
 33 34  2  0
 31 35  1  0
 35 36  1  0
 35 37  1  0
 35 38  1  0
 21  2  1  0
 28 26  1  0
 34 29  1  0
M  END
$$$$
