
     RDKit          3D

 38 40  0  0  0  0  0  0  0  0999 V2000
  -21.9534  -40.2213   -8.9482 C   0  0  0  0  0  0  0  0  0  0  0  0
  -21.5295  -41.2651   -7.9359 C   0  0  2  0  0  0  0  0  0  0  0  0
  -22.7371  -41.5424   -7.0530 C   0  0  0  0  0  0  0  0  0  0  0  0
  -23.0226  -43.0256   -7.1599 C   0  0  0  0  0  0  0  0  0  0  0  0
  -24.4072  -43.4207   -6.7854 C   0  0  0  0  0  0  0  0  0  0  0  0
  -24.5350  -44.3722   -5.6511 C   0  0  0  0  0  0  0  0  0  0  0  0
  -23.4763  -45.4186   -5.5442 C   0  0  0  0  0  0  0  0  0  0  0  0
  -23.3985  -46.3729   -6.6933 C   0  0  0  0  0  0  0  0  0  0  0  0
  -22.6124  -45.9807   -7.7447 O   0  0  0  0  0  0  0  0  0  0  0  0
  -21.2432  -46.0889   -7.5067 C   0  0  0  0  0  0  0  0  0  0  0  0
  -20.5728  -45.1081   -8.3958 C   0  0  0  0  0  0  0  0  0  0  0  0
  -21.0884  -44.9346   -9.5530 O   0  0  0  0  0  0  0  0  0  0  0  0
  -19.4346  -44.3541   -8.0987 N   0  0  0  0  0  0  0  0  0  0  0  0
  -18.5355  -43.9613   -9.1965 C   0  0  0  0  0  0  0  0  0  0  0  0
  -19.0245  -43.9008   -6.7841 C   0  0  1  0  0  0  0  0  0  0  0  0
  -18.3198  -45.1165   -6.1558 C   0  0  0  0  0  0  0  0  0  0  0  0
  -18.1031  -42.7411   -6.8432 C   0  0  0  0  0  0  0  0  0  0  0  0
  -17.1737  -42.7616   -5.9496 O   0  0  0  0  0  0  0  0  0  0  0  0
  -18.1061  -41.6618   -7.7108 N   0  0  0  0  0  0  0  0  0  0  0  0
  -19.1410  -40.6907   -8.0055 C   0  0  1  0  0  0  0  0  0  0  0  0
  -20.3366  -40.7650   -7.1376 C   0  0  0  0  0  0  0  0  0  0  0  0
  -18.4764  -39.3284   -7.8892 C   0  0  2  0  0  0  0  0  0  0  0  0
  -19.2987  -38.3021   -8.3201 O   0  0  0  0  0  0  0  0  0  0  0  0
  -17.0834  -39.2820   -8.4553 C   0  0  0  0  0  0  0  0  0  0  0  0
  -16.3026  -38.4933   -7.5253 N   0  0  0  0  0  0  0  0  0  0  0  0
  -15.0137  -38.0960   -7.9898 C   0  0  0  0  0  0  0  0  0  0  0  0
  -13.9019  -38.1073   -6.9936 C   0  0  0  0  0  0  0  0  0  0  0  0
  -14.0112  -39.2408   -7.9604 C   0  0  0  0  0  0  0  0  0  0  0  0
  -14.9333  -37.1849   -9.1664 C   0  0  0  0  0  0  0  0  0  0  0  0
  -13.9037  -37.3719  -10.0974 C   0  0  0  0  0  0  0  0  0  0  0  0
  -13.7712  -36.5565  -11.1989 C   0  0  0  0  0  0  0  0  0  0  0  0
  -14.6954  -35.5461  -11.3487 C   0  0  0  0  0  0  0  0  0  0  0  0
  -15.7124  -35.3469  -10.4453 C   0  0  0  0  0  0  0  0  0  0  0  0
  -15.8484  -36.1762   -9.3233 C   0  0  0  0  0  0  0  0  0  0  0  0
  -12.6870  -36.7450  -12.1895 C   0  0  0  0  0  0  0  0  0  0  0  0
  -12.0272  -38.0808  -12.0767 C   0  0  0  0  0  0  0  0  0  0  0  0
  -13.1840  -36.5719  -13.6093 C   0  0  0  0  0  0  0  0  0  0  0  0
  -11.6399  -35.6704  -11.9605 C   0  0  0  0  0  0  0  0  0  0  0  0
  2  1  1  6
  2  3  1  0
  3  4  1  0
  4  5  1  0
  5  6  1  0
  6  7  1  0
  7  8  1  0
  8  9  1  0
  9 10  1  0
 10 11  1  0
 11 12  2  0
 11 13  1  0
 13 14  1  0
 13 15  1  0
 15 16  1  6
 15 17  1  0
 17 18  2  0
 17 19  1  0
 19 20  1  0
 20 21  1  1
 20 22  1  0
 22 23  1  6
 22 24  1  0
 24 25  1  0
 25 26  1  0
 26 27  1  0
 27 28  1  0
 26 29  1  0
 29 30  2  0
 30 31  1  0
 31 32  2  0
 32 33  1  0
 33 34  2  0
 31 35  1  0
 35 36  1  0
 35 37  1  0
 35 38  1  0
 21  2  1  0
 28 26  1  0
 34 29  1  0
M  END
$$$$
