
     RDKit          3D

 38 40  0  0  0  0  0  0  0  0999 V2000
  -20.0092  -38.0779   -8.2309 C   0  0  0  0  0  0  0  0  0  0  0  0
  -19.7997  -39.2672   -7.3168 C   0  0  2  0  0  0  0  0  0  0  0  0
  -20.5284  -38.9610   -6.0169 C   0  0  0  0  0  0  0  0  0  0  0  0
  -21.5248  -40.0808   -5.8027 C   0  0  0  0  0  0  0  0  0  0  0  0
  -22.6482  -39.7466   -4.8863 C   0  0  0  0  0  0  0  0  0  0  0  0
  -22.7736  -40.5862   -3.6666 C   0  0  0  0  0  0  0  0  0  0  0  0
  -22.4270  -42.0297   -3.8199 C   0  0  0  0  0  0  0  0  0  0  0  0
  -23.2879  -42.7992   -4.7705 C   0  0  0  0  0  0  0  0  0  0  0  0
  -22.8956  -42.7800   -6.0831 O   0  0  0  0  0  0  0  0  0  0  0  0
  -21.7930  -43.5859   -6.3624 C   0  0  0  0  0  0  0  0  0  0  0  0
  -21.1360  -43.0154   -7.5644 C   0  0  0  0  0  0  0  0  0  0  0  0
  -21.9035  -42.5152   -8.4564 O   0  0  0  0  0  0  0  0  0  0  0  0
  -19.7636  -42.9686   -7.8223 N   0  0  0  0  0  0  0  0  0  0  0  0
  -19.3014  -43.0026   -9.2198 C   0  0  0  0  0  0  0  0  0  0  0  0
  -18.7066  -42.8894   -6.8331 C   0  0  1  0  0  0  0  0  0  0  0  0
  -18.5144  -44.3390   -6.3525 C   0  0  0  0  0  0  0  0  0  0  0  0
  -17.4415  -42.3568   -7.3928 C   0  0  0  0  0  0  0  0  0  0  0  0
  -16.3803  -42.9152   -6.9185 O   0  0  0  0  0  0  0  0  0  0  0  0
  -17.2501  -41.3618   -8.3367 N   0  0  0  0  0  0  0  0  0  0  0  0
  -17.6889  -39.9805   -8.3541 C   0  0  1  0  0  0  0  0  0  0  0  0
  -18.3140  -39.5050   -7.1006 C   0  0  0  0  0  0  0  0  0  0  0  0
  -16.4544  -39.1575   -8.6848 C   0  0  2  0  0  0  0  0  0  0  0  0
  -15.5042  -39.2050   -7.6798 O   0  0  0  0  0  0  0  0  0  0  0  0
  -16.7637  -37.7697   -9.1764 C   0  0  0  0  0  0  0  0  0  0  0  0
  -15.4983  -37.0662   -9.2026 N   0  0  0  0  0  0  0  0  0  0  0  0
  -15.1656  -36.4489  -10.4448 C   0  0  0  0  0  0  0  0  0  0  0  0
  -13.8465  -35.7545  -10.5238 C   0  0  0  0  0  0  0  0  0  0  0  0
  -13.9775  -37.1171  -11.1217 C   0  0  0  0  0  0  0  0  0  0  0  0
  -16.2745  -36.0188  -11.3428 C   0  0  0  0  0  0  0  0  0  0  0  0
  -16.9075  -36.9785  -12.1430 C   0  0  0  0  0  0  0  0  0  0  0  0
  -17.9310  -36.6407  -12.9999 C   0  0  0  0  0  0  0  0  0  0  0  0
  -18.3084  -35.3164  -13.0382 C   0  0  0  0  0  0  0  0  0  0  0  0
  -17.6987  -34.3606  -12.2607 C   0  0  0  0  0  0  0  0  0  0  0  0
  -16.6564  -34.7029  -11.3881 C   0  0  0  0  0  0  0  0  0  0  0  0
  -18.6074  -37.6466  -13.8501 C   0  0  0  0  0  0  0  0  0  0  0  0
  -18.5657  -39.0204  -13.2641 C   0  0  0  0  0  0  0  0  0  0  0  0
  -20.0524  -37.2803  -14.1159 C   0  0  0  0  0  0  0  0  0  0  0  0
  -17.9107  -37.6774  -15.1982 C   0  0  0  0  0  0  0  0  0  0  0  0
  2  1  1  6
  2  3  1  0
  3  4  1  0
  4  5  1  0
  5  6  1  0
  6  7  1  0
  7  8  1  0
  8  9  1  0
  9 10  1  0
 10 11  1  0
 11 12  2  0
 11 13  1  0
 13 14  1  0
 13 15  1  0
 15 16  1  6
 15 17  1  0
 17 18  2  0
 17 19  1  0
 19 20  1  0
 20 21  1  1
 20 22  1  0
 22 23  1  1
 22 24  1  0
 24 25  1  0
 25 26  1  0
 26 27  1  0
 27 28  1  0
 26 29  1  0
 29 30  2  0
 30 31  1  0
 31 32  2  0
 32 33  1  0
 33 34  2  0
 31 35  1  0
 35 36  1  0
 35 37  1  0
 35 38  1  0
 21  2  1  0
 28 26  1  0
 34 29  1  0
M  END
$$$$
