
     RDKit          3D

 38 40  0  0  0  0  0  0  0  0999 V2000
  -12.6310  -40.9824   -7.2865 C   0  0  0  0  0  0  0  0  0  0  0  0
  -13.1444  -41.2432   -8.6873 C   0  0  2  0  0  0  0  0  0  0  0  0
  -11.9848  -40.9893   -9.6389 C   0  0  0  0  0  0  0  0  0  0  0  0
  -11.7741  -42.2697  -10.4191 C   0  0  0  0  0  0  0  0  0  0  0  0
  -10.4262  -42.4087  -11.0334 C   0  0  0  0  0  0  0  0  0  0  0  0
  -10.3884  -42.5365  -12.5135 C   0  0  0  0  0  0  0  0  0  0  0  0
  -11.5037  -43.3062  -13.1386 C   0  0  0  0  0  0  0  0  0  0  0  0
  -11.5913  -44.7458  -12.7427 C   0  0  0  0  0  0  0  0  0  0  0  0
  -12.3183  -45.0125  -11.6124 O   0  0  0  0  0  0  0  0  0  0  0  0
  -13.6988  -44.9327  -11.7882 C   0  0  0  0  0  0  0  0  0  0  0  0
  -14.2851  -44.6275  -10.4597 C   0  0  0  0  0  0  0  0  0  0  0  0
  -13.7208  -45.1634   -9.4451 O   0  0  0  0  0  0  0  0  0  0  0  0
  -15.3918  -43.8141  -10.2028 N   0  0  0  0  0  0  0  0  0  0  0  0
  -16.2299  -44.1044   -9.0276 C   0  0  0  0  0  0  0  0  0  0  0  0
  -15.8233  -42.6775  -10.9926 C   0  0  1  0  0  0  0  0  0  0  0  0
  -16.6126  -43.2936  -12.1618 C   0  0  0  0  0  0  0  0  0  0  0  0
  -16.6799  -41.7425  -10.2248 C   0  0  0  0  0  0  0  0  0  0  0  0
  -17.6399  -41.2238  -10.9118 O   0  0  0  0  0  0  0  0  0  0  0  0
  -16.5897  -41.3598   -8.8970 N   0  0  0  0  0  0  0  0  0  0  0  0
  -15.4955  -40.7592   -8.1602 C   0  0  1  0  0  0  0  0  0  0  0  0
  -14.3367  -40.3477   -8.9823 C   0  0  0  0  0  0  0  0  0  0  0  0
  -16.0912  -39.5635   -7.4346 C   0  0  2  0  0  0  0  0  0  0  0  0
  -16.7166  -39.9216   -6.2531 O   0  0  0  0  0  0  0  0  0  0  0  0
  -16.9110  -38.6636   -8.3186 C   0  0  0  0  0  0  0  0  0  0  0  0
  -17.9699  -38.1410   -7.4806 N   0  0  0  0  0  0  0  0  0  0  0  0
  -19.2636  -38.1018   -8.0805 C   0  0  0  0  0  0  0  0  0  0  0  0
  -20.4210  -38.4862   -7.2195 C   0  0  0  0  0  0  0  0  0  0  0  0
  -20.1556  -37.0360   -7.4603 C   0  0  0  0  0  0  0  0  0  0  0  0
  -19.3654  -38.2623   -9.5586 C   0  0  0  0  0  0  0  0  0  0  0  0
  -19.7067  -37.1495  -10.3377 C   0  0  0  0  0  0  0  0  0  0  0  0
  -19.8261  -37.2374  -11.7066 C   0  0  0  0  0  0  0  0  0  0  0  0
  -19.5953  -38.4682  -12.2806 C   0  0  0  0  0  0  0  0  0  0  0  0
  -19.2598  -39.5715  -11.5323 C   0  0  0  0  0  0  0  0  0  0  0  0
  -19.1381  -39.4836  -10.1386 C   0  0  0  0  0  0  0  0  0  0  0  0
  -20.1861  -36.0677  -12.5401 C   0  0  0  0  0  0  0  0  0  0  0  0
  -19.0314  -35.5444  -13.3308 C   0  0  0  0  0  0  0  0  0  0  0  0
  -21.3195  -36.3824  -13.4937 C   0  0  0  0  0  0  0  0  0  0  0  0
  -20.6815  -34.9638  -11.6238 C   0  0  0  0  0  0  0  0  0  0  0  0
  2  1  1  1
  2  3  1  0
  3  4  1  0
  4  5  1  0
  5  6  1  0
  6  7  1  0
  7  8  1  0
  8  9  1  0
  9 10  1  0
 10 11  1  0
 11 12  2  0
 11 13  1  0
 13 14  1  0
 13 15  1  0
 15 16  1  6
 15 17  1  0
 17 18  2  0
 17 19  1  0
 19 20  1  0
 20 21  1  6
 20 22  1  0
 22 23  1  1
 22 24  1  0
 24 25  1  0
 25 26  1  0
 26 27  1  0
 27 28  1  0
 26 29  1  0
 29 30  2  0
 30 31  1  0
 31 32  2  0
 32 33  1  0
 33 34  2  0
 31 35  1  0
 35 36  1  0
 35 37  1  0
 35 38  1  0
 21  2  1  0
 28 26  1  0
 34 29  1  0
M  END
$$$$
