
     RDKit          3D

 38 40  0  0  0  0  0  0  0  0999 V2000
  -20.7332  -38.1369   -8.2747 C   0  0  0  0  0  0  0  0  0  0  0  0
  -20.4713  -39.2526   -7.2846 C   0  0  2  0  0  0  0  0  0  0  0  0
  -21.3223  -38.9644   -6.0568 C   0  0  0  0  0  0  0  0  0  0  0  0
  -22.2117  -40.1724   -5.8508 C   0  0  0  0  0  0  0  0  0  0  0  0
  -23.4284  -39.9165   -5.0338 C   0  0  0  0  0  0  0  0  0  0  0  0
  -23.5573  -40.7061   -3.7815 C   0  0  0  0  0  0  0  0  0  0  0  0
  -23.0541  -42.1102   -3.8313 C   0  0  0  0  0  0  0  0  0  0  0  0
  -23.7585  -43.0109   -4.7954 C   0  0  0  0  0  0  0  0  0  0  0  0
  -23.2738  -43.0121   -6.0769 O   0  0  0  0  0  0  0  0  0  0  0  0
  -22.0767  -43.7086   -6.2349 C   0  0  0  0  0  0  0  0  0  0  0  0
  -21.3942  -43.1290   -7.4181 C   0  0  0  0  0  0  0  0  0  0  0  0
  -22.1405  -42.7559   -8.3871 O   0  0  0  0  0  0  0  0  0  0  0  0
  -20.0184  -42.9490   -7.5830 N   0  0  0  0  0  0  0  0  0  0  0  0
  -19.4525  -42.9997   -8.9413 C   0  0  0  0  0  0  0  0  0  0  0  0
  -19.0516  -42.7113   -6.5291 C   0  0  1  0  0  0  0  0  0  0  0  0
  -18.7480  -44.1079   -5.9576 C   0  0  0  0  0  0  0  0  0  0  0  0
  -17.8096  -42.0744   -7.0285 C   0  0  0  0  0  0  0  0  0  0  0  0
  -16.7350  -42.4938   -6.4522 O   0  0  0  0  0  0  0  0  0  0  0  0
  -17.6517  -41.1105   -8.0101 N   0  0  0  0  0  0  0  0  0  0  0  0
  -18.2273  -39.7860   -8.1333 C   0  0  1  0  0  0  0  0  0  0  0  0
  -18.9893  -39.3208   -6.9537 C   0  0  0  0  0  0  0  0  0  0  0  0
  -17.0625  -38.8529   -8.4226 C   0  0  2  0  0  0  0  0  0  0  0  0
  -17.4676  -37.6754   -9.0264 O   0  0  0  0  0  0  0  0  0  0  0  0
  -15.8997  -39.5254   -9.0999 C   0  0  0  0  0  0  0  0  0  0  0  0
  -15.0071  -38.4606   -9.5072 N   0  0  0  0  0  0  0  0  0  0  0  0
  -13.9031  -38.8619  -10.3166 C   0  0  0  0  0  0  0  0  0  0  0  0
  -13.2844  -40.1854  -10.0097 C   0  0  0  0  0  0  0  0  0  0  0  0
  -14.2240  -40.0830  -11.1665 C   0  0  0  0  0  0  0  0  0  0  0  0
  -13.0827  -37.8046  -10.9724 C   0  0  0  0  0  0  0  0  0  0  0  0
  -12.8035  -37.9165  -12.3404 C   0  0  0  0  0  0  0  0  0  0  0  0
  -12.0429  -36.9772  -12.9999 C   0  0  0  0  0  0  0  0  0  0  0  0
  -11.5663  -35.9194  -12.2573 C   0  0  0  0  0  0  0  0  0  0  0  0
  -11.8295  -35.7929  -10.9139 C   0  0  0  0  0  0  0  0  0  0  0  0
  -12.6035  -36.7485  -10.2411 C   0  0  0  0  0  0  0  0  0  0  0  0
  -11.7417  -37.0852  -14.4456 C   0  0  0  0  0  0  0  0  0  0  0  0
  -12.6539  -38.0310  -15.1566 C   0  0  0  0  0  0  0  0  0  0  0  0
  -11.8085  -35.7400  -15.1375 C   0  0  0  0  0  0  0  0  0  0  0  0
  -10.3166  -37.5841  -14.5995 C   0  0  0  0  0  0  0  0  0  0  0  0
  2  1  1  6
  2  3  1  0
  3  4  1  0
  4  5  1  0
  5  6  1  0
  6  7  1  0
  7  8  1  0
  8  9  1  0
  9 10  1  0
 10 11  1  0
 11 12  2  0
 11 13  1  0
 13 14  1  0
 13 15  1  0
 15 16  1  6
 15 17  1  0
 17 18  2  0
 17 19  1  0
 19 20  1  0
 20 21  1  1
 20 22  1  0
 22 23  1  6
 22 24  1  0
 24 25  1  0
 25 26  1  0
 26 27  1  0
 27 28  1  0
 26 29  1  0
 29 30  2  0
 30 31  1  0
 31 32  2  0
 32 33  1  0
 33 34  2  0
 31 35  1  0
 35 36  1  0
 35 37  1  0
 35 38  1  0
 21  2  1  0
 28 26  1  0
 34 29  1  0
M  END
$$$$
