
     RDKit          3D

 38 40  0  0  0  0  0  0  0  0999 V2000
  -20.0385  -38.1659   -7.8766 C   0  0  0  0  0  0  0  0  0  0  0  0
  -19.7973  -39.4184   -7.0600 C   0  0  2  0  0  0  0  0  0  0  0  0
  -20.6808  -39.3195   -5.8253 C   0  0  0  0  0  0  0  0  0  0  0  0
  -21.5699  -40.5452   -5.8275 C   0  0  0  0  0  0  0  0  0  0  0  0
  -22.8083  -40.4162   -5.0132 C   0  0  0  0  0  0  0  0  0  0  0  0
  -22.9659  -41.3861   -3.8984 C   0  0  0  0  0  0  0  0  0  0  0  0
  -22.4555  -42.7663   -4.1466 C   0  0  0  0  0  0  0  0  0  0  0  0
  -23.1310  -43.5112   -5.2539 C   0  0  0  0  0  0  0  0  0  0  0  0
  -22.6135  -43.3185   -6.5077 O   0  0  0  0  0  0  0  0  0  0  0  0
  -21.4097  -43.9826   -6.7379 C   0  0  0  0  0  0  0  0  0  0  0  0
  -20.6995  -43.2304   -7.8018 C   0  0  0  0  0  0  0  0  0  0  0  0
  -21.4223  -42.7155   -8.7223 O   0  0  0  0  0  0  0  0  0  0  0  0
  -19.3208  -43.0270   -7.9016 N   0  0  0  0  0  0  0  0  0  0  0  0
  -18.7200  -42.8715   -9.2368 C   0  0  0  0  0  0  0  0  0  0  0  0
  -18.3824  -42.9509   -6.7991 C   0  0  1  0  0  0  0  0  0  0  0  0
  -18.0875  -44.4178   -6.4376 C   0  0  0  0  0  0  0  0  0  0  0  0
  -17.1308  -42.2454   -7.1640 C   0  0  0  0  0  0  0  0  0  0  0  0
  -16.0695  -42.7467   -6.6299 O   0  0  0  0  0  0  0  0  0  0  0  0
  -16.9520  -41.1440   -7.9842 N   0  0  0  0  0  0  0  0  0  0  0  0
  -17.5300  -39.8164   -7.9207 C   0  0  1  0  0  0  0  0  0  0  0  0
  -18.3240  -39.5352   -6.7047 C   0  0  0  0  0  0  0  0  0  0  0  0
  -16.3622  -38.8498   -8.0353 C   0  0  2  0  0  0  0  0  0  0  0  0
  -16.7719  -37.5282   -8.0573 O   0  0  0  0  0  0  0  0  0  0  0  0
  -15.3802  -39.2096   -9.1167 C   0  0  0  0  0  0  0  0  0  0  0  0
  -14.4215  -38.1253   -9.1595 N   0  0  0  0  0  0  0  0  0  0  0  0
  -13.5363  -38.1334  -10.2781 C   0  0  0  0  0  0  0  0  0  0  0  0
  -12.1027  -37.8151  -10.0093 C   0  0  0  0  0  0  0  0  0  0  0  0
  -12.4999  -39.2442  -10.1862 C   0  0  0  0  0  0  0  0  0  0  0  0
  -14.1020  -37.8758  -11.6326 C   0  0  0  0  0  0  0  0  0  0  0  0
  -15.3745  -37.2995  -11.7355 C   0  0  0  0  0  0  0  0  0  0  0  0
  -15.9543  -37.0467  -12.9585 C   0  0  0  0  0  0  0  0  0  0  0  0
  -15.2298  -37.3845  -14.0803 C   0  0  0  0  0  0  0  0  0  0  0  0
  -13.9798  -37.9511  -13.9990 C   0  0  0  0  0  0  0  0  0  0  0  0
  -13.3883  -38.2092  -12.7546 C   0  0  0  0  0  0  0  0  0  0  0  0
  -17.2986  -36.4379  -13.0792 C   0  0  0  0  0  0  0  0  0  0  0  0
  -18.0302  -36.3900  -11.7774 C   0  0  0  0  0  0  0  0  0  0  0  0
  -17.2336  -35.0356  -13.6468 C   0  0  0  0  0  0  0  0  0  0  0  0
  -18.1111  -37.2665  -14.0574 C   0  0  0  0  0  0  0  0  0  0  0  0
  2  1  1  6
  2  3  1  0
  3  4  1  0
  4  5  1  0
  5  6  1  0
  6  7  1  0
  7  8  1  0
  8  9  1  0
  9 10  1  0
 10 11  1  0
 11 12  2  0
 11 13  1  0
 13 14  1  0
 13 15  1  0
 15 16  1  6
 15 17  1  0
 17 18  2  0
 17 19  1  0
 19 20  1  0
 20 21  1  1
 20 22  1  0
 22 23  1  6
 22 24  1  0
 24 25  1  0
 25 26  1  0
 26 27  1  0
 27 28  1  0
 26 29  1  0
 29 30  2  0
 30 31  1  0
 31 32  2  0
 32 33  1  0
 33 34  2  0
 31 35  1  0
 35 36  1  0
 35 37  1  0
 35 38  1  0
 21  2  1  0
 28 26  1  0
 34 29  1  0
M  END
$$$$
