
     RDKit          3D

 38 40  0  0  0  0  0  0  0  0999 V2000
  -21.5296  -38.3137   -7.6821 C   0  0  0  0  0  0  0  0  0  0  0  0
  -20.7349  -39.4295   -7.0361 C   0  0  2  0  0  0  0  0  0  0  0  0
  -21.3077  -39.6316   -5.6412 C   0  0  0  0  0  0  0  0  0  0  0  0
  -21.7475  -41.0780   -5.5570 C   0  0  0  0  0  0  0  0  0  0  0  0
  -22.7509  -41.3619   -4.4959 C   0  0  0  0  0  0  0  0  0  0  0  0
  -22.3466  -42.3412   -3.4540 C   0  0  0  0  0  0  0  0  0  0  0  0
  -21.4999  -43.4815   -3.9123 C   0  0  0  0  0  0  0  0  0  0  0  0
  -22.1376  -44.3938   -4.9113 C   0  0  0  0  0  0  0  0  0  0  0  0
  -21.9980  -44.0332   -6.2257 O   0  0  0  0  0  0  0  0  0  0  0  0
  -20.7300  -44.2726   -6.7529 C   0  0  0  0  0  0  0  0  0  0  0  0
  -20.5447  -43.3221   -7.8773 C   0  0  0  0  0  0  0  0  0  0  0  0
  -21.5774  -43.0585   -8.5837 O   0  0  0  0  0  0  0  0  0  0  0  0
  -19.3565  -42.6849   -8.2443 N   0  0  0  0  0  0  0  0  0  0  0  0
  -19.1465  -42.3320   -9.6582 C   0  0  0  0  0  0  0  0  0  0  0  0
  -18.2685  -42.3212   -7.3578 C   0  0  1  0  0  0  0  0  0  0  0  0
  -17.4584  -43.6185   -7.1839 C   0  0  0  0  0  0  0  0  0  0  0  0
  -17.4132  -41.2471   -7.9167 C   0  0  0  0  0  0  0  0  0  0  0  0
  -16.1579  -41.3852   -7.6562 O   0  0  0  0  0  0  0  0  0  0  0  0
  -17.7735  -40.1392   -8.6653 N   0  0  0  0  0  0  0  0  0  0  0  0
  -18.7073  -39.0688   -8.3774 C   0  0  1  0  0  0  0  0  0  0  0  0
  -19.2585  -39.0693   -7.0046 C   0  0  0  0  0  0  0  0  0  0  0  0
  -17.9553  -37.7769   -8.6539 C   0  0  2  0  0  0  0  0  0  0  0  0
  -17.8774  -37.4911  -10.0057 O   0  0  0  0  0  0  0  0  0  0  0  0
  -16.6443  -37.6694   -7.9239 C   0  0  0  0  0  0  0  0  0  0  0  0
  -15.6315  -37.5131   -8.9469 N   0  0  0  0  0  0  0  0  0  0  0  0
  -15.7807  -36.3704   -9.7878 C   0  0  0  0  0  0  0  0  0  0  0  0
  -17.1299  -35.7330   -9.8308 C   0  0  0  0  0  0  0  0  0  0  0  0
  -16.0644  -35.1029   -8.9946 C   0  0  0  0  0  0  0  0  0  0  0  0
  -14.8635  -36.2225  -10.9531 C   0  0  0  0  0  0  0  0  0  0  0  0
  -13.9832  -37.2685  -11.2578 C   0  0  0  0  0  0  0  0  0  0  0  0
  -13.1053  -37.1865  -12.3154 C   0  0  0  0  0  0  0  0  0  0  0  0
  -13.1280  -36.0304  -13.0639 C   0  0  0  0  0  0  0  0  0  0  0  0
  -13.9845  -34.9932  -12.7798 C   0  0  0  0  0  0  0  0  0  0  0  0
  -14.8787  -35.0752  -11.7034 C   0  0  0  0  0  0  0  0  0  0  0  0
  -12.1705  -38.2859  -12.6468 C   0  0  0  0  0  0  0  0  0  0  0  0
  -12.8701  -39.5089  -13.1442 C   0  0  0  0  0  0  0  0  0  0  0  0
  -11.1467  -37.8635  -13.6794 C   0  0  0  0  0  0  0  0  0  0  0  0
  -11.3987  -38.6501  -11.3917 C   0  0  0  0  0  0  0  0  0  0  0  0
  2  1  1  1
  2  3  1  0
  3  4  1  0
  4  5  1  0
  5  6  1  0
  6  7  1  0
  7  8  1  0
  8  9  1  0
  9 10  1  0
 10 11  1  0
 11 12  2  0
 11 13  1  0
 13 14  1  0
 13 15  1  0
 15 16  1  6
 15 17  1  0
 17 18  2  0
 17 19  1  0
 19 20  1  0
 20 21  1  1
 20 22  1  0
 22 23  1  6
 22 24  1  0
 24 25  1  0
 25 26  1  0
 26 27  1  0
 27 28  1  0
 26 29  1  0
 29 30  2  0
 30 31  1  0
 31 32  2  0
 32 33  1  0
 33 34  2  0
 31 35  1  0
 35 36  1  0
 35 37  1  0
 35 38  1  0
 21  2  1  0
 28 26  1  0
 34 29  1  0
M  END
$$$$
