
     RDKit          3D

 38 40  0  0  0  0  0  0  0  0999 V2000
  -20.8745  -38.1556   -7.5563 C   0  0  0  0  0  0  0  0  0  0  0  0
  -20.4414  -39.5073   -7.0278 C   0  0  2  0  0  0  0  0  0  0  0  0
  -21.2100  -39.7454   -5.7366 C   0  0  0  0  0  0  0  0  0  0  0  0
  -21.9769  -41.0381   -5.9190 C   0  0  0  0  0  0  0  0  0  0  0  0
  -23.1397  -41.2052   -5.0061 C   0  0  0  0  0  0  0  0  0  0  0  0
  -23.1003  -42.3825   -4.1002 C   0  0  0  0  0  0  0  0  0  0  0  0
  -22.4888  -43.6245   -4.6575 C   0  0  0  0  0  0  0  0  0  0  0  0
  -23.1930  -44.2127   -5.8386 C   0  0  0  0  0  0  0  0  0  0  0  0
  -22.8162  -43.7269   -7.0630 O   0  0  0  0  0  0  0  0  0  0  0  0
  -21.5827  -44.1978   -7.5102 C   0  0  0  0  0  0  0  0  0  0  0  0
  -21.0493  -43.1817   -8.4510 C   0  0  0  0  0  0  0  0  0  0  0  0
  -21.9005  -42.5824   -9.1934 O   0  0  0  0  0  0  0  0  0  0  0  0
  -19.7111  -42.8122   -8.6095 N   0  0  0  0  0  0  0  0  0  0  0  0
  -19.2559  -42.3380   -9.9270 C   0  0  0  0  0  0  0  0  0  0  0  0
  -18.6843  -42.8463   -7.5866 C   0  0  1  0  0  0  0  0  0  0  0  0
  -18.2209  -44.3137   -7.5497 C   0  0  0  0  0  0  0  0  0  0  0  0
  -17.5441  -41.9503   -7.8939 C   0  0  0  0  0  0  0  0  0  0  0  0
  -16.3950  -42.4247   -7.5513 O   0  0  0  0  0  0  0  0  0  0  0  0
  -17.5470  -40.6991   -8.4873 N   0  0  0  0  0  0  0  0  0  0  0  0
  -18.2380  -39.4802   -8.1161 C   0  0  1  0  0  0  0  0  0  0  0  0
  -18.9367  -39.5270   -6.8131 C   0  0  0  0  0  0  0  0  0  0  0  0
  -17.1817  -38.3870   -8.1203 C   0  0  2  0  0  0  0  0  0  0  0  0
  -17.7348  -37.1191   -8.0792 O   0  0  0  0  0  0  0  0  0  0  0  0
  -16.1268  -38.5661   -9.1779 C   0  0  0  0  0  0  0  0  0  0  0  0
  -16.0795  -37.3162   -9.9074 N   0  0  0  0  0  0  0  0  0  0  0  0
  -15.7871  -37.4293  -11.2991 C   0  0  0  0  0  0  0  0  0  0  0  0
  -16.9417  -37.6591  -12.2170 C   0  0  0  0  0  0  0  0  0  0  0  0
  -16.3745  -36.2815  -12.1076 C   0  0  0  0  0  0  0  0  0  0  0  0
  -14.4277  -37.8872  -11.7035 C   0  0  0  0  0  0  0  0  0  0  0  0
  -13.3113  -37.1704  -11.2544 C   0  0  0  0  0  0  0  0  0  0  0  0
  -12.0309  -37.5383  -11.6025 C   0  0  0  0  0  0  0  0  0  0  0  0
  -11.8921  -38.6435  -12.4129 C   0  0  0  0  0  0  0  0  0  0  0  0
  -12.9759  -39.3592  -12.8637 C   0  0  0  0  0  0  0  0  0  0  0  0
  -14.2800  -38.9857  -12.5104 C   0  0  0  0  0  0  0  0  0  0  0  0
  -10.8436  -36.7883  -11.1335 C   0  0  0  0  0  0  0  0  0  0  0  0
   -9.5597  -37.3714  -11.6276 C   0  0  0  0  0  0  0  0  0  0  0  0
  -10.8994  -35.3313  -11.5422 C   0  0  0  0  0  0  0  0  0  0  0  0
  -10.8316  -36.8150   -9.6161 C   0  0  0  0  0  0  0  0  0  0  0  0
  2  1  1  1
  2  3  1  0
  3  4  1  0
  4  5  1  0
  5  6  1  0
  6  7  1  0
  7  8  1  0
  8  9  1  0
  9 10  1  0
 10 11  1  0
 11 12  2  0
 11 13  1  0
 13 14  1  0
 13 15  1  0
 15 16  1  6
 15 17  1  0
 17 18  2  0
 17 19  1  0
 19 20  1  0
 20 21  1  1
 20 22  1  0
 22 23  1  6
 22 24  1  0
 24 25  1  0
 25 26  1  0
 26 27  1  0
 27 28  1  0
 26 29  1  0
 29 30  2  0
 30 31  1  0
 31 32  2  0
 32 33  1  0
 33 34  2  0
 31 35  1  0
 35 36  1  0
 35 37  1  0
 35 38  1  0
 21  2  1  0
 28 26  1  0
 34 29  1  0
M  END
$$$$
