
     RDKit          3D

 38 40  0  0  0  0  0  0  0  0999 V2000
  -13.6474  -41.3854   -7.1536 C   0  0  0  0  0  0  0  0  0  0  0  0
  -14.4459  -41.9337   -8.3180 C   0  0  2  0  0  0  0  0  0  0  0  0
  -13.4428  -42.4148   -9.3558 C   0  0  0  0  0  0  0  0  0  0  0  0
  -13.7361  -43.8805   -9.5972 C   0  0  0  0  0  0  0  0  0  0  0  0
  -12.6073  -44.6519  -10.1839 C   0  0  0  0  0  0  0  0  0  0  0  0
  -12.8615  -45.2889  -11.5022 C   0  0  0  0  0  0  0  0  0  0  0  0
  -14.2377  -45.8218  -11.7239 C   0  0  0  0  0  0  0  0  0  0  0  0
  -14.6553  -46.9242  -10.8033 C   0  0  0  0  0  0  0  0  0  0  0  0
  -15.2226  -46.5325   -9.6193 O   0  0  0  0  0  0  0  0  0  0  0  0
  -16.5344  -46.0761   -9.7369 C   0  0  0  0  0  0  0  0  0  0  0  0
  -16.7748  -45.1577   -8.5964 C   0  0  0  0  0  0  0  0  0  0  0  0
  -16.2175  -45.4613   -7.4863 O   0  0  0  0  0  0  0  0  0  0  0  0
  -17.5484  -43.9942   -8.6105 N   0  0  0  0  0  0  0  0  0  0  0  0
  -18.2196  -43.5719   -7.3699 C   0  0  0  0  0  0  0  0  0  0  0  0
  -17.7735  -43.1270   -9.7502 C   0  0  1  0  0  0  0  0  0  0  0  0
  -18.8922  -43.8185  -10.5501 C   0  0  0  0  0  0  0  0  0  0  0  0
  -18.1891  -41.7606   -9.3530 C   0  0  0  0  0  0  0  0  0  0  0  0
  -19.0687  -41.2307  -10.1329 O   0  0  0  0  0  0  0  0  0  0  0  0
  -17.7689  -40.9933   -8.2795 N   0  0  0  0  0  0  0  0  0  0  0  0
  -16.4408  -40.5638   -7.8891 C   0  0  1  0  0  0  0  0  0  0  0  0
  -15.3721  -40.8611   -8.8677 C   0  0  0  0  0  0  0  0  0  0  0  0
  -16.5442  -39.0669   -7.6448 C   0  0  2  0  0  0  0  0  0  0  0  0
  -15.5880  -38.6106   -6.7545 O   0  0  0  0  0  0  0  0  0  0  0  0
  -17.9411  -38.5958   -7.3450 C   0  0  0  0  0  0  0  0  0  0  0  0
  -18.7205  -38.8832   -8.5310 N   0  0  0  0  0  0  0  0  0  0  0  0
  -19.0529  -37.7527   -9.3351 C   0  0  0  0  0  0  0  0  0  0  0  0
  -18.5965  -36.4175   -8.8477 C   0  0  0  0  0  0  0  0  0  0  0  0
  -17.8217  -37.0885   -9.9344 C   0  0  0  0  0  0  0  0  0  0  0  0
  -20.2476  -37.8393  -10.2217 C   0  0  0  0  0  0  0  0  0  0  0  0
  -21.2882  -38.7089   -9.8713 C   0  0  0  0  0  0  0  0  0  0  0  0
  -22.4126  -38.8401  -10.6550 C   0  0  0  0  0  0  0  0  0  0  0  0
  -22.4728  -38.0787  -11.8015 C   0  0  0  0  0  0  0  0  0  0  0  0
  -21.4614  -37.2202  -12.1619 C   0  0  0  0  0  0  0  0  0  0  0  0
  -20.3159  -37.0858  -11.3650 C   0  0  0  0  0  0  0  0  0  0  0  0
  -23.5187  -39.7559  -10.2943 C   0  0  0  0  0  0  0  0  0  0  0  0
  -23.4058  -40.2764   -8.8984 C   0  0  0  0  0  0  0  0  0  0  0  0
  -24.8721  -39.0959  -10.4541 C   0  0  0  0  0  0  0  0  0  0  0  0
  -23.4930  -40.9343  -11.2506 C   0  0  0  0  0  0  0  0  0  0  0  0
  2  1  1  1
  2  3  1  0
  3  4  1  0
  4  5  1  0
  5  6  1  0
  6  7  1  0
  7  8  1  0
  8  9  1  0
  9 10  1  0
 10 11  1  0
 11 12  2  0
 11 13  1  0
 13 14  1  0
 13 15  1  0
 15 16  1  6
 15 17  1  0
 17 18  2  0
 17 19  1  0
 19 20  1  0
 20 21  1  6
 20 22  1  0
 22 23  1  1
 22 24  1  0
 24 25  1  0
 25 26  1  0
 26 27  1  0
 27 28  1  0
 26 29  1  0
 29 30  2  0
 30 31  1  0
 31 32  2  0
 32 33  1  0
 33 34  2  0
 31 35  1  0
 35 36  1  0
 35 37  1  0
 35 38  1  0
 21  2  1  0
 28 26  1  0
 34 29  1  0
M  END
$$$$
