
     RDKit          3D

 38 40  0  0  0  0  0  0  0  0999 V2000
  -21.0648  -39.0510   -9.5487 C   0  0  0  0  0  0  0  0  0  0  0  0
  -20.7074  -39.7792   -8.2697 C   0  0  2  0  0  0  0  0  0  0  0  0
  -21.4880  -39.1121   -7.1470 C   0  0  0  0  0  0  0  0  0  0  0  0
  -22.3255  -40.1935   -6.4975 C   0  0  0  0  0  0  0  0  0  0  0  0
  -23.4958  -39.6942   -5.7263 C   0  0  0  0  0  0  0  0  0  0  0  0
  -23.5217  -40.0317   -4.2793 C   0  0  0  0  0  0  0  0  0  0  0  0
  -22.9802  -41.3706   -3.9035 C   0  0  0  0  0  0  0  0  0  0  0  0
  -23.7161  -42.5429   -4.4702 C   0  0  0  0  0  0  0  0  0  0  0  0
  -23.3129  -42.9594   -5.7116 O   0  0  0  0  0  0  0  0  0  0  0  0
  -22.1075  -43.6595   -5.7165 C   0  0  0  0  0  0  0  0  0  0  0  0
  -21.5185  -43.4933   -7.0684 C   0  0  0  0  0  0  0  0  0  0  0  0
  -22.3352  -43.4640   -8.0518 O   0  0  0  0  0  0  0  0  0  0  0  0
  -20.1619  -43.3659   -7.3777 N   0  0  0  0  0  0  0  0  0  0  0  0
  -19.6812  -43.8536   -8.6811 C   0  0  0  0  0  0  0  0  0  0  0  0
  -19.1386  -42.7885   -6.5285 C   0  0  1  0  0  0  0  0  0  0  0  0
  -18.7573  -43.9187   -5.5556 C   0  0  0  0  0  0  0  0  0  0  0  0
  -17.9503  -42.3399   -7.2930 C   0  0  0  0  0  0  0  0  0  0  0  0
  -16.8294  -42.5388   -6.6874 O   0  0  0  0  0  0  0  0  0  0  0  0
  -17.8837  -41.7489   -8.5436 N   0  0  0  0  0  0  0  0  0  0  0  0
  -18.5060  -40.5424   -9.0515 C   0  0  1  0  0  0  0  0  0  0  0  0
  -19.2062  -39.7231   -8.0382 C   0  0  0  0  0  0  0  0  0  0  0  0
  -17.3906  -39.7459   -9.7091 C   0  0  2  0  0  0  0  0  0  0  0  0
  -16.7447  -40.4629  -10.7010 O   0  0  0  0  0  0  0  0  0  0  0  0
  -16.4654  -39.0750   -8.7307 C   0  0  0  0  0  0  0  0  0  0  0  0
  -15.1489  -39.6186   -8.9919 N   0  0  0  0  0  0  0  0  0  0  0  0
  -14.2222  -38.7174   -9.5951 C   0  0  0  0  0  0  0  0  0  0  0  0
  -13.0675  -38.2737   -8.7593 C   0  0  0  0  0  0  0  0  0  0  0  0
  -12.8466  -39.3418   -9.7800 C   0  0  0  0  0  0  0  0  0  0  0  0
  -14.7004  -37.8455  -10.7052 C   0  0  0  0  0  0  0  0  0  0  0  0
  -13.9287  -36.7363  -11.0743 C   0  0  0  0  0  0  0  0  0  0  0  0
  -14.3229  -35.8884  -12.0849 C   0  0  0  0  0  0  0  0  0  0  0  0
  -15.5107  -36.1761  -12.7204 C   0  0  0  0  0  0  0  0  0  0  0  0
  -16.2815  -37.2598  -12.3718 C   0  0  0  0  0  0  0  0  0  0  0  0
  -15.8816  -38.1238  -11.3429 C   0  0  0  0  0  0  0  0  0  0  0  0
  -13.5152  -34.7132  -12.4836 C   0  0  0  0  0  0  0  0  0  0  0  0
  -12.4777  -35.0453  -13.5061 C   0  0  0  0  0  0  0  0  0  0  0  0
  -14.3789  -33.5914  -13.0207 C   0  0  0  0  0  0  0  0  0  0  0  0
  -12.8178  -34.1729  -11.2485 C   0  0  0  0  0  0  0  0  0  0  0  0
  2  1  1  6
  2  3  1  0
  3  4  1  0
  4  5  1  0
  5  6  1  0
  6  7  1  0
  7  8  1  0
  8  9  1  0
  9 10  1  0
 10 11  1  0
 11 12  2  0
 11 13  1  0
 13 14  1  0
 13 15  1  0
 15 16  1  1
 15 17  1  0
 17 18  2  0
 17 19  1  0
 19 20  1  0
 20 21  1  1
 20 22  1  0
 22 23  1  1
 22 24  1  0
 24 25  1  0
 25 26  1  0
 26 27  1  0
 27 28  1  0
 26 29  1  0
 29 30  2  0
 30 31  1  0
 31 32  2  0
 32 33  1  0
 33 34  2  0
 31 35  1  0
 35 36  1  0
 35 37  1  0
 35 38  1  0
 21  2  1  0
 28 26  1  0
 34 29  1  0
M  END
$$$$
