
     RDKit          3D

 40 43  0  0  0  0  0  0  0  0999 V2000
  -10.7143  -41.5638   -9.3532 C   0  0  0  0  0  0  0  0  0  0  0  0
  -11.2624  -42.9706   -9.3490 C   0  0  0  0  0  0  0  0  0  0  0  0
  -10.6490  -43.7824   -8.2047 C   0  0  0  0  0  0  0  0  0  0  0  0
  -10.7942  -43.6347  -10.6379 C   0  0  0  0  0  0  0  0  0  0  0  0
  -12.7632  -43.0380   -9.2841 C   0  0  0  0  0  0  0  0  0  0  0  0
  -13.3687  -41.7861   -8.7153 C   0  0  0  0  0  0  0  0  0  0  0  0
  -13.9758  -40.7700   -9.4127 C   0  0  0  0  0  0  0  0  0  0  0  0
  -14.3977  -39.7906   -8.4896 C   0  0  0  0  0  0  0  0  0  0  0  0
  -14.0157  -40.2893   -7.3121 N   0  0  0  0  0  0  0  0  0  0  0  0
  -13.4270  -41.4335   -7.4573 O   0  0  0  0  0  0  0  0  0  0  0  0
  -15.0788  -38.5556   -8.8792 C   0  0  0  0  0  0  0  0  0  0  0  0
  -16.2965  -38.4106   -7.9782 C   0  0  0  0  0  0  0  0  0  0  0  0
  -14.1986  -37.3406   -8.5280 C   0  0  0  0  0  0  0  0  0  0  0  0
  -15.4147  -38.3889  -10.2629 N   0  0  0  0  0  0  0  0  0  0  0  0
  -16.2625  -37.2636  -10.5274 C   0  0  0  0  0  0  0  0  0  0  0  0
  -17.6024  -37.2496   -9.9375 C   0  0  1  0  0  0  0  0  0  0  0  0
  -18.5267  -36.9515  -10.9958 O   0  0  0  0  0  0  0  0  0  0  0  0
  -18.1647  -38.4659   -9.2976 C   0  0  2  0  0  0  0  0  0  0  0  0
  -18.9956  -38.2175   -8.0582 C   0  0  0  0  0  0  0  0  0  0  0  0
  -20.4208  -37.9719   -8.4146 C   0  0  0  0  0  0  0  0  0  0  0  0
  -21.4529  -38.8469   -8.6416 C   0  0  0  0  0  0  0  0  0  0  0  0
  -22.6733  -38.3436   -9.0594 C   0  0  0  0  0  0  0  0  0  0  0  0
  -22.8427  -36.9601   -9.2369 C   0  0  0  0  0  0  0  0  0  0  0  0
  -21.8386  -36.0548   -9.0170 C   0  0  0  0  0  0  0  0  0  0  0  0
  -20.6454  -36.5909   -8.6093 C   0  0  0  0  0  0  0  0  0  0  0  0
  -23.8460  -39.0189   -9.3595 O   0  0  0  0  0  0  0  0  0  0  0  0
  -24.2074  -40.0035  -10.2926 C   0  0  0  0  0  0  0  0  0  0  0  0
  -23.0036  -40.3762  -11.1072 C   0  0  0  0  0  0  0  0  0  0  0  0
  -22.9201  -41.8534  -11.3887 C   0  0  0  0  0  0  0  0  0  0  0  0
  -22.9628  -42.7232  -10.1981 C   0  0  0  0  0  0  0  0  0  0  0  0
  -21.7899  -43.2660   -9.7182 O   0  0  0  0  0  0  0  0  0  0  0  0
  -20.6397  -42.8771   -9.0668 C   0  0  0  0  0  0  0  0  0  0  0  0
  -19.6734  -41.9660   -9.4728 C   0  0  0  0  0  0  0  0  0  0  0  0
  -18.6105  -41.7506   -8.6202 C   0  0  0  0  0  0  0  0  0  0  0  0
  -18.5604  -42.4637   -7.3939 C   0  0  0  0  0  0  0  0  0  0  0  0
  -19.4845  -43.3413   -7.0027 N   0  0  0  0  0  0  0  0  0  0  0  0
  -20.5035  -43.5427   -7.8256 C   0  0  0  0  0  0  0  0  0  0  0  0
  -17.4436  -40.8629   -8.7163 C   0  0  0  0  0  0  0  0  0  0  0  0
  -16.3303  -41.3305   -8.2220 O   0  0  0  0  0  0  0  0  0  0  0  0
  -17.2638  -39.5698   -9.2459 N   0  0  0  0  0  0  0  0  0  0  0  0
  1  2  1  0
  2  3  1  0
  2  4  1  0
  2  5  1  0
  5  6  1  0
  6  7  2  0
  7  8  1  0
  8  9  2  0
  9 10  1  0
  8 11  1  0
 11 12  1  0
 11 13  1  0
 11 14  1  0
 14 15  1  0
 15 16  1  0
 16 17  1  6
 16 18  1  0
 18 19  1  1
 19 20  1  0
 20 21  2  0
 21 22  1  0
 22 23  2  0
 23 24  1  0
 24 25  2  0
 22 26  1  0
 26 27  1  0
 27 28  1  0
 28 29  1  0
 29 30  1  0
 30 31  1  0
 31 32  1  0
 32 33  2  0
 33 34  1  0
 34 35  2  0
 35 36  1  0
 36 37  2  0
 34 38  1  0
 38 39  2  0
 38 40  1  0
 10  6  1  0
 25 20  1  0
 37 32  1  0
 40 18  1  0
M  END
$$$$
