
     RDKit          3D

 40 43  0  0  0  0  0  0  0  0999 V2000
  -11.4202  -36.4898  -12.5161 C   0  0  0  0  0  0  0  0  0  0  0  0
  -10.8706  -37.5372  -11.5778 C   0  0  0  0  0  0  0  0  0  0  0  0
   -9.4011  -37.2516  -11.2557 C   0  0  0  0  0  0  0  0  0  0  0  0
  -10.8898  -38.8623  -12.3293 C   0  0  0  0  0  0  0  0  0  0  0  0
  -11.6589  -37.6875  -10.3061 C   0  0  0  0  0  0  0  0  0  0  0  0
  -13.1113  -37.9732  -10.5628 C   0  0  0  0  0  0  0  0  0  0  0  0
  -14.0986  -37.0582  -10.8375 C   0  0  0  0  0  0  0  0  0  0  0  0
  -15.3130  -37.7552  -11.0071 C   0  0  0  0  0  0  0  0  0  0  0  0
  -14.9664  -39.0310  -10.8238 N   0  0  0  0  0  0  0  0  0  0  0  0
  -13.7014  -39.1404  -10.5698 O   0  0  0  0  0  0  0  0  0  0  0  0
  -16.5857  -37.0973  -11.3040 C   0  0  0  0  0  0  0  0  0  0  0  0
  -16.3662  -35.6003  -11.1416 C   0  0  0  0  0  0  0  0  0  0  0  0
  -16.9283  -37.2722  -12.7961 C   0  0  0  0  0  0  0  0  0  0  0  0
  -17.7484  -37.5470  -10.5963 N   0  0  0  0  0  0  0  0  0  0  0  0
  -18.3452  -36.5489   -9.7579 C   0  0  0  0  0  0  0  0  0  0  0  0
  -19.0339  -36.9846   -8.5417 C   0  0  1  0  0  0  0  0  0  0  0  0
  -20.4436  -36.9277   -8.8112 O   0  0  0  0  0  0  0  0  0  0  0  0
  -18.8244  -38.3498   -7.9963 C   0  0  2  0  0  0  0  0  0  0  0  0
  -18.8973  -38.4608   -6.4894 C   0  0  0  0  0  0  0  0  0  0  0  0
  -20.2978  -38.6978   -6.0414 C   0  0  0  0  0  0  0  0  0  0  0  0
  -21.0180  -39.8597   -5.9236 C   0  0  0  0  0  0  0  0  0  0  0  0
  -22.3546  -39.7820   -5.5702 C   0  0  0  0  0  0  0  0  0  0  0  0
  -22.9499  -38.5319   -5.3314 C   0  0  0  0  0  0  0  0  0  0  0  0
  -22.2639  -37.3508   -5.4349 C   0  0  0  0  0  0  0  0  0  0  0  0
  -20.9461  -37.4680   -5.7908 C   0  0  0  0  0  0  0  0  0  0  0  0
  -23.2794  -40.8005   -5.4015 O   0  0  0  0  0  0  0  0  0  0  0  0
  -23.8079  -41.8019   -6.2313 C   0  0  0  0  0  0  0  0  0  0  0  0
  -23.1761  -41.7016   -7.5886 C   0  0  0  0  0  0  0  0  0  0  0  0
  -22.8699  -43.0463   -8.1940 C   0  0  0  0  0  0  0  0  0  0  0  0
  -22.0403  -43.9364   -7.3600 C   0  0  0  0  0  0  0  0  0  0  0  0
  -20.6984  -44.0704   -7.6466 O   0  0  0  0  0  0  0  0  0  0  0  0
  -19.5289  -43.3458   -7.5710 C   0  0  0  0  0  0  0  0  0  0  0  0
  -19.2085  -42.1412   -8.1833 C   0  0  0  0  0  0  0  0  0  0  0  0
  -17.9562  -41.6192   -7.9337 C   0  0  0  0  0  0  0  0  0  0  0  0
  -17.0743  -42.3324   -7.0801 C   0  0  0  0  0  0  0  0  0  0  0  0
  -17.3775  -43.4905   -6.4934 N   0  0  0  0  0  0  0  0  0  0  0  0
  -18.5823  -43.9857   -6.7363 C   0  0  0  0  0  0  0  0  0  0  0  0
  -17.3031  -40.3836   -8.3873 C   0  0  0  0  0  0  0  0  0  0  0  0
  -16.0214  -40.4680   -8.6160 O   0  0  0  0  0  0  0  0  0  0  0  0
  -17.7817  -39.0820   -8.6360 N   0  0  0  0  0  0  0  0  0  0  0  0
  1  2  1  0
  2  3  1  0
  2  4  1  0
  2  5  1  0
  5  6  1  0
  6  7  2  0
  7  8  1  0
  8  9  2  0
  9 10  1  0
  8 11  1  0
 11 12  1  0
 11 13  1  0
 11 14  1  0
 14 15  1  0
 15 16  1  0
 16 17  1  6
 16 18  1  0
 18 19  1  1
 19 20  1  0
 20 21  2  0
 21 22  1  0
 22 23  2  0
 23 24  1  0
 24 25  2  0
 22 26  1  0
 26 27  1  0
 27 28  1  0
 28 29  1  0
 29 30  1  0
 30 31  1  0
 31 32  1  0
 32 33  2  0
 33 34  1  0
 34 35  2  0
 35 36  1  0
 36 37  2  0
 34 38  1  0
 38 39  2  0
 38 40  1  0
 10  6  1  0
 25 20  1  0
 37 32  1  0
 40 18  1  0
M  END
$$$$
