
     RDKit          3D

 40 43  0  0  0  0  0  0  0  0999 V2000
  -12.2362  -35.0362  -10.6043 C   0  0  0  0  0  0  0  0  0  0  0  0
  -12.4693  -34.8721  -12.0869 C   0  0  0  0  0  0  0  0  0  0  0  0
  -11.2166  -34.3150  -12.7690 C   0  0  0  0  0  0  0  0  0  0  0  0
  -13.5495  -33.8106  -12.2530 C   0  0  0  0  0  0  0  0  0  0  0  0
  -12.9155  -36.1324  -12.7751 C   0  0  0  0  0  0  0  0  0  0  0  0
  -13.7018  -37.0338  -11.8660 C   0  0  0  0  0  0  0  0  0  0  0  0
  -13.2136  -38.0601  -11.0941 C   0  0  0  0  0  0  0  0  0  0  0  0
  -14.2939  -38.6447  -10.4008 C   0  0  0  0  0  0  0  0  0  0  0  0
  -15.3454  -37.9288  -10.8049 N   0  0  0  0  0  0  0  0  0  0  0  0
  -14.9905  -37.0093  -11.6447 O   0  0  0  0  0  0  0  0  0  0  0  0
  -14.1471  -39.7778   -9.4869 C   0  0  0  0  0  0  0  0  0  0  0  0
  -13.8909  -41.0121  -10.3391 C   0  0  0  0  0  0  0  0  0  0  0  0
  -12.8597  -39.6150   -8.6558 C   0  0  0  0  0  0  0  0  0  0  0  0
  -15.1887  -39.9978   -8.5268 N   0  0  0  0  0  0  0  0  0  0  0  0
  -15.8556  -38.8016   -8.1031 C   0  0  0  0  0  0  0  0  0  0  0  0
  -17.2069  -38.9178   -7.5518 C   0  0  1  0  0  0  0  0  0  0  0  0
  -18.0500  -38.0368   -8.3110 O   0  0  0  0  0  0  0  0  0  0  0  0
  -17.9279  -40.2158   -7.5722 C   0  0  2  0  0  0  0  0  0  0  0  0
  -18.6266  -40.5862   -6.2827 C   0  0  0  0  0  0  0  0  0  0  0  0
  -20.0082  -40.0307   -6.2486 C   0  0  0  0  0  0  0  0  0  0  0  0
  -21.1864  -40.5236   -6.7502 C   0  0  0  0  0  0  0  0  0  0  0  0
  -22.3265  -39.7428   -6.6619 C   0  0  0  0  0  0  0  0  0  0  0  0
  -22.2680  -38.4741   -6.0608 C   0  0  0  0  0  0  0  0  0  0  0  0
  -21.1127  -37.9491   -5.5454 C   0  0  0  0  0  0  0  0  0  0  0  0
  -20.0057  -38.7487   -5.6555 C   0  0  0  0  0  0  0  0  0  0  0  0
  -23.6132  -40.0140   -7.0999 O   0  0  0  0  0  0  0  0  0  0  0  0
  -24.1938  -40.2910   -8.3476 C   0  0  0  0  0  0  0  0  0  0  0  0
  -23.1235  -40.2951   -9.3993 C   0  0  0  0  0  0  0  0  0  0  0  0
  -23.3106  -41.3845  -10.4224 C   0  0  0  0  0  0  0  0  0  0  0  0
  -23.4276  -42.7486   -9.8734 C   0  0  0  0  0  0  0  0  0  0  0  0
  -22.3372  -43.5906   -9.9236 O   0  0  0  0  0  0  0  0  0  0  0  0
  -21.0997  -43.7456   -9.3378 C   0  0  0  0  0  0  0  0  0  0  0  0
  -20.0191  -42.8734   -9.3390 C   0  0  0  0  0  0  0  0  0  0  0  0
  -18.8847  -43.2722   -8.6629 C   0  0  0  0  0  0  0  0  0  0  0  0
  -18.8816  -44.5352   -8.0150 C   0  0  0  0  0  0  0  0  0  0  0  0
  -19.9160  -45.3762   -8.0146 N   0  0  0  0  0  0  0  0  0  0  0  0
  -21.0029  -44.9866   -8.6647 C   0  0  0  0  0  0  0  0  0  0  0  0
  -17.5916  -42.6091   -8.4452 C   0  0  0  0  0  0  0  0  0  0  0  0
  -16.5461  -43.3897   -8.4353 O   0  0  0  0  0  0  0  0  0  0  0  0
  -17.2270  -41.2643   -8.2370 N   0  0  0  0  0  0  0  0  0  0  0  0
  1  2  1  0
  2  3  1  0
  2  4  1  0
  2  5  1  0
  5  6  1  0
  6  7  2  0
  7  8  1  0
  8  9  2  0
  9 10  1  0
  8 11  1  0
 11 12  1  0
 11 13  1  0
 11 14  1  0
 14 15  1  0
 15 16  1  0
 16 17  1  6
 16 18  1  0
 18 19  1  1
 19 20  1  0
 20 21  2  0
 21 22  1  0
 22 23  2  0
 23 24  1  0
 24 25  2  0
 22 26  1  0
 26 27  1  0
 27 28  1  0
 28 29  1  0
 29 30  1  0
 30 31  1  0
 31 32  1  0
 32 33  2  0
 33 34  1  0
 34 35  2  0
 35 36  1  0
 36 37  2  0
 34 38  1  0
 38 39  2  0
 38 40  1  0
 10  6  1  0
 25 20  1  0
 37 32  1  0
 40 18  1  0
M  END
$$$$
