
     RDKit          3D

 40 43  0  0  0  0  0  0  0  0999 V2000
  -10.7690  -37.9971  -11.8619 C   0  0  0  0  0  0  0  0  0  0  0  0
  -10.1613  -39.1976  -11.1771 C   0  0  0  0  0  0  0  0  0  0  0  0
   -8.8121  -38.8329  -10.5512 C   0  0  0  0  0  0  0  0  0  0  0  0
   -9.8613  -40.2246  -12.2618 C   0  0  0  0  0  0  0  0  0  0  0  0
  -11.0565  -39.8266  -10.1456 C   0  0  0  0  0  0  0  0  0  0  0  0
  -12.4725  -39.9698  -10.6269 C   0  0  0  0  0  0  0  0  0  0  0  0
  -13.4563  -39.0112  -10.6004 C   0  0  0  0  0  0  0  0  0  0  0  0
  -14.6318  -39.5685  -11.1454 C   0  0  0  0  0  0  0  0  0  0  0  0
  -14.2682  -40.8139  -11.4585 N   0  0  0  0  0  0  0  0  0  0  0  0
  -13.0278  -41.0294  -11.1553 O   0  0  0  0  0  0  0  0  0  0  0  0
  -15.8908  -38.8333  -11.2685 C   0  0  0  0  0  0  0  0  0  0  0  0
  -15.9841  -38.3391  -12.7046 C   0  0  0  0  0  0  0  0  0  0  0  0
  -17.0787  -39.8038  -11.1219 C   0  0  0  0  0  0  0  0  0  0  0  0
  -16.1440  -37.7843  -10.3246 N   0  0  0  0  0  0  0  0  0  0  0  0
  -17.5101  -37.6981   -9.8987 C   0  0  0  0  0  0  0  0  0  0  0  0
  -17.8505  -38.1736   -8.5566 C   0  0  1  0  0  0  0  0  0  0  0  0
  -18.9636  -37.3887   -8.1001 O   0  0  0  0  0  0  0  0  0  0  0  0
  -18.2813  -39.5770   -8.3331 C   0  0  2  0  0  0  0  0  0  0  0  0
  -18.5195  -39.9566   -6.8884 C   0  0  0  0  0  0  0  0  0  0  0  0
  -19.9217  -39.6575   -6.4848 C   0  0  0  0  0  0  0  0  0  0  0  0
  -21.0711  -40.3946   -6.6195 C   0  0  0  0  0  0  0  0  0  0  0  0
  -22.2752  -39.8267   -6.2388 C   0  0  0  0  0  0  0  0  0  0  0  0
  -22.3067  -38.5220   -5.7182 C   0  0  0  0  0  0  0  0  0  0  0  0
  -21.1814  -37.7563   -5.5647 C   0  0  0  0  0  0  0  0  0  0  0  0
  -20.0107  -38.3505   -5.9565 C   0  0  0  0  0  0  0  0  0  0  0  0
  -23.5533  -40.3606   -6.2889 O   0  0  0  0  0  0  0  0  0  0  0  0
  -24.3829  -40.8419   -7.3140 C   0  0  0  0  0  0  0  0  0  0  0  0
  -23.6568  -40.7424   -8.6234 C   0  0  0  0  0  0  0  0  0  0  0  0
  -23.8956  -41.9301   -9.5183 C   0  0  0  0  0  0  0  0  0  0  0  0
  -23.5904  -43.2418   -8.9163 C   0  0  0  0  0  0  0  0  0  0  0  0
  -22.4109  -43.8754   -9.2445 O   0  0  0  0  0  0  0  0  0  0  0  0
  -21.0558  -43.7555   -9.0255 C   0  0  0  0  0  0  0  0  0  0  0  0
  -20.2084  -42.7066   -9.3575 C   0  0  0  0  0  0  0  0  0  0  0  0
  -18.8784  -42.8366   -9.0153 C   0  0  0  0  0  0  0  0  0  0  0  0
  -18.4531  -44.0192   -8.3553 C   0  0  0  0  0  0  0  0  0  0  0  0
  -19.2632  -45.0293   -8.0381 N   0  0  0  0  0  0  0  0  0  0  0  0
  -20.5397  -44.8976   -8.3684 C   0  0  0  0  0  0  0  0  0  0  0  0
  -17.7305  -41.9360   -9.1904 C   0  0  0  0  0  0  0  0  0  0  0  0
  -16.5892  -42.5124   -9.4503 O   0  0  0  0  0  0  0  0  0  0  0  0
  -17.5943  -40.5349   -9.1351 N   0  0  0  0  0  0  0  0  0  0  0  0
  1  2  1  0
  2  3  1  0
  2  4  1  0
  2  5  1  0
  5  6  1  0
  6  7  2  0
  7  8  1  0
  8  9  2  0
  9 10  1  0
  8 11  1  0
 11 12  1  0
 11 13  1  0
 11 14  1  0
 14 15  1  0
 15 16  1  0
 16 17  1  6
 16 18  1  0
 18 19  1  1
 19 20  1  0
 20 21  2  0
 21 22  1  0
 22 23  2  0
 23 24  1  0
 24 25  2  0
 22 26  1  0
 26 27  1  0
 27 28  1  0
 28 29  1  0
 29 30  1  0
 30 31  1  0
 31 32  1  0
 32 33  2  0
 33 34  1  0
 34 35  2  0
 35 36  1  0
 36 37  2  0
 34 38  1  0
 38 39  2  0
 38 40  1  0
 10  6  1  0
 25 20  1  0
 37 32  1  0
 40 18  1  0
M  END
$$$$
