
     RDKit          3D

 40 43  0  0  0  0  0  0  0  0999 V2000
  -12.2606  -35.9800  -13.6531 C   0  0  0  0  0  0  0  0  0  0  0  0
  -11.9580  -35.2659  -12.3578 C   0  0  0  0  0  0  0  0  0  0  0  0
  -11.3981  -33.8676  -12.6336 C   0  0  0  0  0  0  0  0  0  0  0  0
  -10.8406  -36.0420  -11.6720 C   0  0  0  0  0  0  0  0  0  0  0  0
  -13.1332  -35.1773  -11.4238 C   0  0  0  0  0  0  0  0  0  0  0  0
  -13.8320  -36.4966  -11.2557 C   0  0  0  0  0  0  0  0  0  0  0  0
  -13.6188  -37.4255  -10.2663 C   0  0  0  0  0  0  0  0  0  0  0  0
  -14.4848  -38.5163  -10.4896 C   0  0  0  0  0  0  0  0  0  0  0  0
  -15.1514  -38.1625  -11.5904 N   0  0  0  0  0  0  0  0  0  0  0  0
  -14.7664  -37.0026  -12.0182 O   0  0  0  0  0  0  0  0  0  0  0  0
  -14.5267  -39.7013   -9.6324 C   0  0  0  0  0  0  0  0  0  0  0  0
  -13.5809  -40.7279  -10.2385 C   0  0  0  0  0  0  0  0  0  0  0  0
  -13.9061  -39.3754   -8.2602 C   0  0  0  0  0  0  0  0  0  0  0  0
  -15.8115  -40.2656   -9.3393 N   0  0  0  0  0  0  0  0  0  0  0  0
  -16.9078  -39.3679   -9.5568 C   0  0  0  0  0  0  0  0  0  0  0  0
  -17.8720  -39.1734   -8.4724 C   0  0  1  0  0  0  0  0  0  0  0  0
  -18.9522  -38.3893   -9.0032 O   0  0  0  0  0  0  0  0  0  0  0  0
  -18.5456  -40.3338   -7.8360 C   0  0  2  0  0  0  0  0  0  0  0  0
  -19.1530  -40.0620   -6.4776 C   0  0  0  0  0  0  0  0  0  0  0  0
  -20.5494  -39.5610   -6.6107 C   0  0  0  0  0  0  0  0  0  0  0  0
  -21.7365  -40.2362   -6.7422 C   0  0  0  0  0  0  0  0  0  0  0  0
  -22.8969  -39.5096   -6.9491 C   0  0  0  0  0  0  0  0  0  0  0  0
  -22.8489  -38.1068   -7.0138 C   0  0  0  0  0  0  0  0  0  0  0  0
  -21.6849  -37.3967   -6.8835 C   0  0  0  0  0  0  0  0  0  0  0  0
  -20.5581  -38.1503   -6.6847 C   0  0  0  0  0  0  0  0  0  0  0  0
  -24.1966  -39.9596   -7.1202 O   0  0  0  0  0  0  0  0  0  0  0  0
  -24.8395  -40.7900   -8.0518 C   0  0  0  0  0  0  0  0  0  0  0  0
  -23.8338  -41.2802   -9.0517 C   0  0  0  0  0  0  0  0  0  0  0  0
  -24.0415  -42.7221   -9.4340 C   0  0  0  0  0  0  0  0  0  0  0  0
  -24.0765  -43.6723   -8.3062 C   0  0  0  0  0  0  0  0  0  0  0  0
  -22.9612  -44.4355   -8.0336 O   0  0  0  0  0  0  0  0  0  0  0  0
  -21.6864  -44.2934   -7.5302 C   0  0  0  0  0  0  0  0  0  0  0  0
  -20.6400  -43.5181   -8.0123 C   0  0  0  0  0  0  0  0  0  0  0  0
  -19.4540  -43.5499   -7.3085 C   0  0  0  0  0  0  0  0  0  0  0  0
  -19.3670  -44.3639   -6.1489 C   0  0  0  0  0  0  0  0  0  0  0  0
  -20.3685  -45.1119   -5.6853 N   0  0  0  0  0  0  0  0  0  0  0  0
  -21.5053  -45.0758   -6.3652 C   0  0  0  0  0  0  0  0  0  0  0  0
  -18.1751  -42.8563   -7.5147 C   0  0  0  0  0  0  0  0  0  0  0  0
  -17.1034  -43.5372   -7.2146 O   0  0  0  0  0  0  0  0  0  0  0  0
  -17.8477  -41.5684   -7.9826 N   0  0  0  0  0  0  0  0  0  0  0  0
  1  2  1  0
  2  3  1  0
  2  4  1  0
  2  5  1  0
  5  6  1  0
  6  7  2  0
  7  8  1  0
  8  9  2  0
  9 10  1  0
  8 11  1  0
 11 12  1  0
 11 13  1  0
 11 14  1  0
 14 15  1  0
 15 16  1  0
 16 17  1  6
 16 18  1  0
 18 19  1  1
 19 20  1  0
 20 21  2  0
 21 22  1  0
 22 23  2  0
 23 24  1  0
 24 25  2  0
 22 26  1  0
 26 27  1  0
 27 28  1  0
 28 29  1  0
 29 30  1  0
 30 31  1  0
 31 32  1  0
 32 33  2  0
 33 34  1  0
 34 35  2  0
 35 36  1  0
 36 37  2  0
 34 38  1  0
 38 39  2  0
 38 40  1  0
 10  6  1  0
 25 20  1  0
 37 32  1  0
 40 18  1  0
M  END
$$$$
