
     RDKit          3D

 40 43  0  0  0  0  0  0  0  0999 V2000
   -8.6384  -40.7638  -10.5832 C   0  0  0  0  0  0  0  0  0  0  0  0
  -10.0307  -40.6831  -10.0049 C   0  0  0  0  0  0  0  0  0  0  0  0
   -9.9761  -40.2860   -8.5271 C   0  0  0  0  0  0  0  0  0  0  0  0
  -10.6114  -42.0911  -10.0441 C   0  0  0  0  0  0  0  0  0  0  0  0
  -10.9478  -39.7575  -10.7554 C   0  0  0  0  0  0  0  0  0  0  0  0
  -12.3445  -39.7621  -10.2021 C   0  0  0  0  0  0  0  0  0  0  0  0
  -13.4138  -39.0241  -10.6486 C   0  0  0  0  0  0  0  0  0  0  0  0
  -14.5305  -39.3316   -9.8438 C   0  0  0  0  0  0  0  0  0  0  0  0
  -14.0518  -40.2282   -8.9788 N   0  0  0  0  0  0  0  0  0  0  0  0
  -12.7974  -40.4648   -9.1963 O   0  0  0  0  0  0  0  0  0  0  0  0
  -15.8482  -38.7224  -10.0262 C   0  0  0  0  0  0  0  0  0  0  0  0
  -16.7741  -39.3340   -8.9849 C   0  0  0  0  0  0  0  0  0  0  0  0
  -15.7892  -37.2286   -9.6527 C   0  0  0  0  0  0  0  0  0  0  0  0
  -16.4223  -38.7589  -11.3393 N   0  0  0  0  0  0  0  0  0  0  0  0
  -17.8444  -38.9401  -11.3510 C   0  0  0  0  0  0  0  0  0  0  0  0
  -18.6166  -38.4487  -10.2084 C   0  0  1  0  0  0  0  0  0  0  0  0
  -19.9659  -38.2561  -10.6621 O   0  0  0  0  0  0  0  0  0  0  0  0
  -18.7615  -39.2686   -8.9789 C   0  0  2  0  0  0  0  0  0  0  0  0
  -19.0753  -38.4925   -7.7190 C   0  0  0  0  0  0  0  0  0  0  0  0
  -20.5454  -38.3196   -7.5537 C   0  0  0  0  0  0  0  0  0  0  0  0
  -21.4890  -39.1446   -6.9956 C   0  0  0  0  0  0  0  0  0  0  0  0
  -22.8214  -38.7738   -7.0626 C   0  0  0  0  0  0  0  0  0  0  0  0
  -23.1882  -37.5693   -7.6862 C   0  0  0  0  0  0  0  0  0  0  0  0
  -22.2762  -36.7178   -8.2512 C   0  0  0  0  0  0  0  0  0  0  0  0
  -20.9693  -37.1208   -8.1690 C   0  0  0  0  0  0  0  0  0  0  0  0
  -23.9427  -39.4365   -6.5886 O   0  0  0  0  0  0  0  0  0  0  0  0
  -24.5298  -40.6870   -6.8380 C   0  0  0  0  0  0  0  0  0  0  0  0
  -23.6983  -41.4305   -7.8416 C   0  0  0  0  0  0  0  0  0  0  0  0
  -23.5764  -42.8990   -7.5298 C   0  0  0  0  0  0  0  0  0  0  0  0
  -23.0693  -43.2149   -6.1811 C   0  0  0  0  0  0  0  0  0  0  0  0
  -21.7527  -43.5938   -6.0283 O   0  0  0  0  0  0  0  0  0  0  0  0
  -20.4877  -43.0509   -6.0889 C   0  0  0  0  0  0  0  0  0  0  0  0
  -19.8507  -42.4421   -7.1624 C   0  0  0  0  0  0  0  0  0  0  0  0
  -18.5708  -41.9718   -6.9533 C   0  0  0  0  0  0  0  0  0  0  0  0
  -17.9812  -42.1361   -5.6725 C   0  0  0  0  0  0  0  0  0  0  0  0
  -18.5886  -42.7228   -4.6410 N   0  0  0  0  0  0  0  0  0  0  0  0
  -19.8182  -43.1712   -4.8481 C   0  0  0  0  0  0  0  0  0  0  0  0
  -17.6285  -41.2732   -7.8382 C   0  0  0  0  0  0  0  0  0  0  0  0
  -16.3689  -41.5739   -7.6795 O   0  0  0  0  0  0  0  0  0  0  0  0
  -17.8004  -40.3145   -8.8561 N   0  0  0  0  0  0  0  0  0  0  0  0
  1  2  1  0
  2  3  1  0
  2  4  1  0
  2  5  1  0
  5  6  1  0
  6  7  2  0
  7  8  1  0
  8  9  2  0
  9 10  1  0
  8 11  1  0
 11 12  1  0
 11 13  1  0
 11 14  1  0
 14 15  1  0
 15 16  1  0
 16 17  1  6
 16 18  1  0
 18 19  1  1
 19 20  1  0
 20 21  2  0
 21 22  1  0
 22 23  2  0
 23 24  1  0
 24 25  2  0
 22 26  1  0
 26 27  1  0
 27 28  1  0
 28 29  1  0
 29 30  1  0
 30 31  1  0
 31 32  1  0
 32 33  2  0
 33 34  1  0
 34 35  2  0
 35 36  1  0
 36 37  2  0
 34 38  1  0
 38 39  2  0
 38 40  1  0
 10  6  1  0
 25 20  1  0
 37 32  1  0
 40 18  1  0
M  END
$$$$
