
     RDKit          3D

 40 43  0  0  0  0  0  0  0  0999 V2000
  -11.0939  -38.0368  -14.6582 C   0  0  0  0  0  0  0  0  0  0  0  0
  -11.6983  -36.7315  -14.1995 C   0  0  0  0  0  0  0  0  0  0  0  0
  -11.6748  -35.7014  -15.3322 C   0  0  0  0  0  0  0  0  0  0  0  0
  -10.7909  -36.1803  -13.1068 C   0  0  0  0  0  0  0  0  0  0  0  0
  -13.0924  -36.8664  -13.6523 C   0  0  0  0  0  0  0  0  0  0  0  0
  -13.1704  -37.8507  -12.5198 C   0  0  0  0  0  0  0  0  0  0  0  0
  -14.0240  -37.8082  -11.4442 C   0  0  0  0  0  0  0  0  0  0  0  0
  -13.7559  -38.9228  -10.6225 C   0  0  0  0  0  0  0  0  0  0  0  0
  -12.7670  -39.5496  -11.2631 N   0  0  0  0  0  0  0  0  0  0  0  0
  -12.4419  -38.9232  -12.3489 O   0  0  0  0  0  0  0  0  0  0  0  0
  -14.4722  -39.1969   -9.3764 C   0  0  0  0  0  0  0  0  0  0  0  0
  -14.1392  -40.6255   -8.9717 C   0  0  0  0  0  0  0  0  0  0  0  0
  -13.8916  -38.3340   -8.2395 C   0  0  0  0  0  0  0  0  0  0  0  0
  -15.8841  -38.9497   -9.3523 N   0  0  0  0  0  0  0  0  0  0  0  0
  -16.3419  -38.2892   -8.1651 C   0  0  0  0  0  0  0  0  0  0  0  0
  -17.0539  -39.0810   -7.1604 C   0  0  1  0  0  0  0  0  0  0  0  0
  -18.0587  -38.2299   -6.5864 O   0  0  0  0  0  0  0  0  0  0  0  0
  -17.7958  -40.3086   -7.5449 C   0  0  2  0  0  0  0  0  0  0  0  0
  -18.2324  -41.1862   -6.3928 C   0  0  0  0  0  0  0  0  0  0  0  0
  -19.5656  -40.7648   -5.8795 C   0  0  0  0  0  0  0  0  0  0  0  0
  -20.8316  -41.0908   -6.2959 C   0  0  0  0  0  0  0  0  0  0  0  0
  -21.9120  -40.4694   -5.6926 C   0  0  0  0  0  0  0  0  0  0  0  0
  -21.7043  -39.5298   -4.6688 C   0  0  0  0  0  0  0  0  0  0  0  0
  -20.4570  -39.1808   -4.2229 C   0  0  0  0  0  0  0  0  0  0  0  0
  -19.4139  -39.8130   -4.8468 C   0  0  0  0  0  0  0  0  0  0  0  0
  -23.2664  -40.6217   -5.9446 O   0  0  0  0  0  0  0  0  0  0  0  0
  -24.0905  -40.4277   -7.0644 C   0  0  0  0  0  0  0  0  0  0  0  0
  -23.2517  -39.9660   -8.2196 C   0  0  0  0  0  0  0  0  0  0  0  0
  -23.6652  -40.5847   -9.5291 C   0  0  0  0  0  0  0  0  0  0  0  0
  -23.7035  -42.0593   -9.5429 C   0  0  0  0  0  0  0  0  0  0  0  0
  -22.6657  -42.7546  -10.1260 O   0  0  0  0  0  0  0  0  0  0  0  0
  -21.3404  -43.0544   -9.8973 C   0  0  0  0  0  0  0  0  0  0  0  0
  -20.2608  -42.1905   -9.7673 C   0  0  0  0  0  0  0  0  0  0  0  0
  -19.0245  -42.7555   -9.5323 C   0  0  0  0  0  0  0  0  0  0  0  0
  -18.9230  -44.1684   -9.4408 C   0  0  0  0  0  0  0  0  0  0  0  0
  -19.9566  -45.0006   -9.5682 N   0  0  0  0  0  0  0  0  0  0  0  0
  -21.1416  -44.4515   -9.7926 C   0  0  0  0  0  0  0  0  0  0  0  0
  -17.6983  -42.1569   -9.3275 C   0  0  0  0  0  0  0  0  0  0  0  0
  -16.6910  -42.8212   -9.8239 O   0  0  0  0  0  0  0  0  0  0  0  0
  -17.2670  -40.9785   -8.6869 N   0  0  0  0  0  0  0  0  0  0  0  0
  1  2  1  0
  2  3  1  0
  2  4  1  0
  2  5  1  0
  5  6  1  0
  6  7  2  0
  7  8  1  0
  8  9  2  0
  9 10  1  0
  8 11  1  0
 11 12  1  0
 11 13  1  0
 11 14  1  0
 14 15  1  0
 15 16  1  0
 16 17  1  6
 16 18  1  0
 18 19  1  1
 19 20  1  0
 20 21  2  0
 21 22  1  0
 22 23  2  0
 23 24  1  0
 24 25  2  0
 22 26  1  0
 26 27  1  0
 27 28  1  0
 28 29  1  0
 29 30  1  0
 30 31  1  0
 31 32  1  0
 32 33  2  0
 33 34  1  0
 34 35  2  0
 35 36  1  0
 36 37  2  0
 34 38  1  0
 38 39  2  0
 38 40  1  0
 10  6  1  0
 25 20  1  0
 37 32  1  0
 40 18  1  0
M  END
$$$$
