
     RDKit          3D

 40 43  0  0  0  0  0  0  0  0999 V2000
  -14.0681  -35.8976  -12.8977 C   0  0  0  0  0  0  0  0  0  0  0  0
  -12.6375  -36.1834  -12.5087 C   0  0  0  0  0  0  0  0  0  0  0  0
  -12.3856  -35.7785  -11.0535 C   0  0  0  0  0  0  0  0  0  0  0  0
  -11.7554  -35.2779  -13.3591 C   0  0  0  0  0  0  0  0  0  0  0  0
  -12.2222  -37.6120  -12.7270 C   0  0  0  0  0  0  0  0  0  0  0  0
  -13.1312  -38.5854  -12.0318 C   0  0  0  0  0  0  0  0  0  0  0  0
  -12.9959  -39.0777  -10.7564 C   0  0  0  0  0  0  0  0  0  0  0  0
  -14.0648  -39.9640  -10.5085 C   0  0  0  0  0  0  0  0  0  0  0  0
  -14.7600  -39.9373  -11.6475 N   0  0  0  0  0  0  0  0  0  0  0  0
  -14.2127  -39.1430  -12.5113 O   0  0  0  0  0  0  0  0  0  0  0  0
  -14.2389  -40.6846   -9.2471 C   0  0  0  0  0  0  0  0  0  0  0  0
  -14.5472  -42.1333   -9.5961 C   0  0  0  0  0  0  0  0  0  0  0  0
  -12.8960  -40.7518   -8.4944 C   0  0  0  0  0  0  0  0  0  0  0  0
  -15.1742  -40.1521   -8.3001 N   0  0  0  0  0  0  0  0  0  0  0  0
  -16.3240  -39.5374   -8.8960 C   0  0  0  0  0  0  0  0  0  0  0  0
  -17.4218  -39.1224   -8.0209 C   0  0  1  0  0  0  0  0  0  0  0  0
  -18.3540  -38.3891   -8.8313 O   0  0  0  0  0  0  0  0  0  0  0  0
  -18.2618  -40.1295   -7.3242 C   0  0  2  0  0  0  0  0  0  0  0  0
  -18.9009  -39.6573   -6.0370 C   0  0  0  0  0  0  0  0  0  0  0  0
  -20.2182  -39.0148   -6.3024 C   0  0  0  0  0  0  0  0  0  0  0  0
  -21.4696  -39.5589   -6.4453 C   0  0  0  0  0  0  0  0  0  0  0  0
  -22.5220  -38.7277   -6.7900 C   0  0  0  0  0  0  0  0  0  0  0  0
  -22.3024  -37.3529   -6.9799 C   0  0  0  0  0  0  0  0  0  0  0  0
  -21.0697  -36.7718   -6.8427 C   0  0  0  0  0  0  0  0  0  0  0  0
  -20.0534  -37.6267   -6.5057 C   0  0  0  0  0  0  0  0  0  0  0  0
  -23.8560  -39.0400   -7.0001 O   0  0  0  0  0  0  0  0  0  0  0  0
  -24.5455  -39.8787   -7.8900 C   0  0  0  0  0  0  0  0  0  0  0  0
  -23.5562  -40.5771   -8.7760 C   0  0  0  0  0  0  0  0  0  0  0  0
  -23.9160  -42.0162   -9.0368 C   0  0  0  0  0  0  0  0  0  0  0  0
  -24.1228  -42.8405   -7.8311 C   0  0  0  0  0  0  0  0  0  0  0  0
  -23.1228  -43.6962   -7.4206 O   0  0  0  0  0  0  0  0  0  0  0  0
  -21.8677  -43.6527   -6.8537 C   0  0  0  0  0  0  0  0  0  0  0  0
  -20.7123  -43.0539   -7.3384 C   0  0  0  0  0  0  0  0  0  0  0  0
  -19.5763  -43.1524   -6.5620 C   0  0  0  0  0  0  0  0  0  0  0  0
  -19.6474  -43.8529   -5.3295 C   0  0  0  0  0  0  0  0  0  0  0  0
  -20.7540  -44.4317   -4.8628 N   0  0  0  0  0  0  0  0  0  0  0  0
  -21.8419  -44.3323   -5.6128 C   0  0  0  0  0  0  0  0  0  0  0  0
  -18.2144  -42.6339   -6.7505 C   0  0  0  0  0  0  0  0  0  0  0  0
  -17.2492  -43.4005   -6.3230 O   0  0  0  0  0  0  0  0  0  0  0  0
  -17.7109  -41.4444   -7.3131 N   0  0  0  0  0  0  0  0  0  0  0  0
  1  2  1  0
  2  3  1  0
  2  4  1  0
  2  5  1  0
  5  6  1  0
  6  7  2  0
  7  8  1  0
  8  9  2  0
  9 10  1  0
  8 11  1  0
 11 12  1  0
 11 13  1  0
 11 14  1  0
 14 15  1  0
 15 16  1  0
 16 17  1  6
 16 18  1  0
 18 19  1  1
 19 20  1  0
 20 21  2  0
 21 22  1  0
 22 23  2  0
 23 24  1  0
 24 25  2  0
 22 26  1  0
 26 27  1  0
 27 28  1  0
 28 29  1  0
 29 30  1  0
 30 31  1  0
 31 32  1  0
 32 33  2  0
 33 34  1  0
 34 35  2  0
 35 36  1  0
 36 37  2  0
 34 38  1  0
 38 39  2  0
 38 40  1  0
 10  6  1  0
 25 20  1  0
 37 32  1  0
 40 18  1  0
M  END
$$$$
