
     RDKit          3D

 40 43  0  0  0  0  0  0  0  0999 V2000
  -14.5116  -37.1992  -14.6485 C   0  0  0  0  0  0  0  0  0  0  0  0
  -13.2224  -36.8600  -13.9397 C   0  0  0  0  0  0  0  0  0  0  0  0
  -13.4943  -35.9564  -12.7337 C   0  0  0  0  0  0  0  0  0  0  0  0
  -12.3859  -36.0334  -14.9083 C   0  0  0  0  0  0  0  0  0  0  0  0
  -12.4276  -38.0637  -13.5150 C   0  0  0  0  0  0  0  0  0  0  0  0
  -13.1447  -38.8893  -12.4848 C   0  0  0  0  0  0  0  0  0  0  0  0
  -13.1242  -38.7127  -11.1225 C   0  0  0  0  0  0  0  0  0  0  0  0
  -13.9305  -39.7097  -10.5350 C   0  0  0  0  0  0  0  0  0  0  0  0
  -14.3743  -40.4069  -11.5830 N   0  0  0  0  0  0  0  0  0  0  0  0
  -13.9153  -39.9250  -12.6939 O   0  0  0  0  0  0  0  0  0  0  0  0
  -14.1348  -39.8347   -9.0916 C   0  0  0  0  0  0  0  0  0  0  0  0
  -14.4771  -41.2906   -8.8107 C   0  0  0  0  0  0  0  0  0  0  0  0
  -12.8012  -39.6080   -8.3538 C   0  0  0  0  0  0  0  0  0  0  0  0
  -15.0649  -38.9376   -8.4710 N   0  0  0  0  0  0  0  0  0  0  0  0
  -15.3395  -39.2387   -7.0965 C   0  0  0  0  0  0  0  0  0  0  0  0
  -16.7358  -39.3950   -6.6853 C   0  0  1  0  0  0  0  0  0  0  0  0
  -17.3903  -38.1392   -6.9265 O   0  0  0  0  0  0  0  0  0  0  0  0
  -17.6156  -40.3940   -7.3436 C   0  0  2  0  0  0  0  0  0  0  0  0
  -18.7714  -40.8893   -6.5028 C   0  0  0  0  0  0  0  0  0  0  0  0
  -19.9618  -40.0090   -6.6649 C   0  0  0  0  0  0  0  0  0  0  0  0
  -20.9579  -40.0112   -7.6085 C   0  0  0  0  0  0  0  0  0  0  0  0
  -21.9060  -39.0025   -7.5787 C   0  0  0  0  0  0  0  0  0  0  0  0
  -21.8440  -38.0048   -6.5913 C   0  0  0  0  0  0  0  0  0  0  0  0
  -20.8684  -37.9703   -5.6306 C   0  0  0  0  0  0  0  0  0  0  0  0
  -19.9464  -38.9817   -5.6955 C   0  0  0  0  0  0  0  0  0  0  0  0
  -22.9864  -38.7870   -8.4198 O   0  0  0  0  0  0  0  0  0  0  0  0
  -23.1352  -38.5537   -9.7961 C   0  0  0  0  0  0  0  0  0  0  0  0
  -21.7836  -38.5690  -10.4476 C   0  0  0  0  0  0  0  0  0  0  0  0
  -21.7867  -39.2536  -11.7891 C   0  0  0  0  0  0  0  0  0  0  0  0
  -22.3189  -40.6294  -11.7911 C   0  0  0  0  0  0  0  0  0  0  0  0
  -21.4403  -41.6914  -11.8211 O   0  0  0  0  0  0  0  0  0  0  0  0
  -20.5297  -42.3269  -11.0054 C   0  0  0  0  0  0  0  0  0  0  0  0
  -19.3838  -41.8137  -10.4119 C   0  0  0  0  0  0  0  0  0  0  0  0
  -18.6413  -42.6707   -9.6263 C   0  0  0  0  0  0  0  0  0  0  0  0
  -19.0799  -44.0119   -9.4718 C   0  0  0  0  0  0  0  0  0  0  0  0
  -20.1775  -44.5086  -10.0426 N   0  0  0  0  0  0  0  0  0  0  0  0
  -20.8868  -43.6799  -10.7949 C   0  0  0  0  0  0  0  0  0  0  0  0
  -17.4115  -42.4670   -8.8484 C   0  0  0  0  0  0  0  0  0  0  0  0
  -16.5847  -43.4758   -8.8159 O   0  0  0  0  0  0  0  0  0  0  0  0
  -16.9176  -41.3777   -8.1039 N   0  0  0  0  0  0  0  0  0  0  0  0
  1  2  1  0
  2  3  1  0
  2  4  1  0
  2  5  1  0
  5  6  1  0
  6  7  2  0
  7  8  1  0
  8  9  2  0
  9 10  1  0
  8 11  1  0
 11 12  1  0
 11 13  1  0
 11 14  1  0
 14 15  1  0
 15 16  1  0
 16 17  1  6
 16 18  1  0
 18 19  1  1
 19 20  1  0
 20 21  2  0
 21 22  1  0
 22 23  2  0
 23 24  1  0
 24 25  2  0
 22 26  1  0
 26 27  1  0
 27 28  1  0
 28 29  1  0
 29 30  1  0
 30 31  1  0
 31 32  1  0
 32 33  2  0
 33 34  1  0
 34 35  2  0
 35 36  1  0
 36 37  2  0
 34 38  1  0
 38 39  2  0
 38 40  1  0
 10  6  1  0
 25 20  1  0
 37 32  1  0
 40 18  1  0
M  END
$$$$
