
     RDKit          3D

 40 43  0  0  0  0  0  0  0  0999 V2000
  -23.5487  -42.9966   -8.1323 C   0  0  0  0  0  0  0  0  0  0  0  0
  -23.1204  -42.7297   -9.5552 C   0  0  0  0  0  0  0  0  0  0  0  0
  -24.0053  -41.6528  -10.1893 C   0  0  0  0  0  0  0  0  0  0  0  0
  -23.3765  -44.0074  -10.3445 C   0  0  0  0  0  0  0  0  0  0  0  0
  -21.6707  -42.3548   -9.6932 C   0  0  0  0  0  0  0  0  0  0  0  0
  -21.3852  -40.9721   -9.1793 C   0  0  0  0  0  0  0  0  0  0  0  0
  -20.7587  -40.6398   -8.0027 C   0  0  0  0  0  0  0  0  0  0  0  0
  -20.7021  -39.2333   -7.9135 C   0  0  0  0  0  0  0  0  0  0  0  0
  -21.2948  -38.8273   -9.0383 N   0  0  0  0  0  0  0  0  0  0  0  0
  -21.6813  -39.8351   -9.7537 O   0  0  0  0  0  0  0  0  0  0  0  0
  -20.1073  -38.5203   -6.7828 C   0  0  0  0  0  0  0  0  0  0  0  0
  -20.0724  -37.0441   -7.1506 C   0  0  0  0  0  0  0  0  0  0  0  0
  -21.0523  -38.5876   -5.5675 C   0  0  0  0  0  0  0  0  0  0  0  0
  -18.8390  -38.9807   -6.2984 N   0  0  0  0  0  0  0  0  0  0  0  0
  -17.7976  -37.9974   -6.3600 C   0  0  0  0  0  0  0  0  0  0  0  0
  -17.0403  -37.8648   -7.6059 C   0  0  1  0  0  0  0  0  0  0  0  0
  -15.6630  -37.6748   -7.2448 O   0  0  0  0  0  0  0  0  0  0  0  0
  -17.0055  -38.9706   -8.5965 C   0  0  2  0  0  0  0  0  0  0  0  0
  -17.3758  -38.5819  -10.0107 C   0  0  0  0  0  0  0  0  0  0  0  0
  -16.1784  -38.1171  -10.7647 C   0  0  0  0  0  0  0  0  0  0  0  0
  -15.2275  -38.8199  -11.4607 C   0  0  0  0  0  0  0  0  0  0  0  0
  -14.1493  -38.1337  -11.9937 C   0  0  0  0  0  0  0  0  0  0  0  0
  -14.0452  -36.7427  -11.8256 C   0  0  0  0  0  0  0  0  0  0  0  0
  -14.9751  -36.0057  -11.1412 C   0  0  0  0  0  0  0  0  0  0  0  0
  -16.0240  -36.7199  -10.6250 C   0  0  0  0  0  0  0  0  0  0  0  0
  -13.0703  -38.6177  -12.7167 O   0  0  0  0  0  0  0  0  0  0  0  0
  -12.0448  -39.5416  -12.4608 C   0  0  0  0  0  0  0  0  0  0  0  0
  -12.2240  -40.1080  -11.0829 C   0  0  0  0  0  0  0  0  0  0  0  0
  -11.9252  -41.5824  -11.0112 C   0  0  0  0  0  0  0  0  0  0  0  0
  -12.6788  -42.4230  -11.9607 C   0  0  0  0  0  0  0  0  0  0  0  0
  -13.7663  -43.1400  -11.5090 O   0  0  0  0  0  0  0  0  0  0  0  0
  -15.0580  -42.9318  -11.0769 C   0  0  0  0  0  0  0  0  0  0  0  0
  -15.5054  -42.1891   -9.9921 C   0  0  0  0  0  0  0  0  0  0  0  0
  -16.8677  -42.1366   -9.7814 C   0  0  0  0  0  0  0  0  0  0  0  0
  -17.7259  -42.8368  -10.6692 C   0  0  0  0  0  0  0  0  0  0  0  0
  -17.2995  -43.5533  -11.7095 N   0  0  0  0  0  0  0  0  0  0  0  0
  -15.9900  -43.5986  -11.9070 C   0  0  0  0  0  0  0  0  0  0  0  0
  -17.6747  -41.4458   -8.7663 C   0  0  0  0  0  0  0  0  0  0  0  0
  -18.7401  -42.0790   -8.3583 O   0  0  0  0  0  0  0  0  0  0  0  0
  -17.5397  -40.2026   -8.1174 N   0  0  0  0  0  0  0  0  0  0  0  0
  1  2  1  0
  2  3  1  0
  2  4  1  0
  2  5  1  0
  5  6  1  0
  6  7  2  0
  7  8  1  0
  8  9  2  0
  9 10  1  0
  8 11  1  0
 11 12  1  0
 11 13  1  0
 11 14  1  0
 14 15  1  0
 15 16  1  0
 16 17  1  1
 16 18  1  0
 18 19  1  6
 19 20  1  0
 20 21  2  0
 21 22  1  0
 22 23  2  0
 23 24  1  0
 24 25  2  0
 22 26  1  0
 26 27  1  0
 27 28  1  0
 28 29  1  0
 29 30  1  0
 30 31  1  0
 31 32  1  0
 32 33  2  0
 33 34  1  0
 34 35  2  0
 35 36  1  0
 36 37  2  0
 34 38  1  0
 38 39  2  0
 38 40  1  0
 10  6  1  0
 25 20  1  0
 37 32  1  0
 40 18  1  0
M  END
$$$$
