
     RDKit          3D

 40 43  0  0  0  0  0  0  0  0999 V2000
  -13.4163  -41.3847  -13.5151 C   0  0  0  0  0  0  0  0  0  0  0  0
  -13.9662  -42.5616  -12.7456 C   0  0  0  0  0  0  0  0  0  0  0  0
  -12.9296  -43.6862  -12.6714 C   0  0  0  0  0  0  0  0  0  0  0  0
  -15.1343  -43.1146  -13.5524 C   0  0  0  0  0  0  0  0  0  0  0  0
  -14.4500  -42.2126  -11.3653 C   0  0  0  0  0  0  0  0  0  0  0  0
  -15.2280  -40.9276  -11.3388 C   0  0  0  0  0  0  0  0  0  0  0  0
  -14.8187  -39.7232  -10.8199 C   0  0  0  0  0  0  0  0  0  0  0  0
  -15.8580  -38.7871  -11.0016 C   0  0  0  0  0  0  0  0  0  0  0  0
  -16.8092  -39.4950  -11.6144 N   0  0  0  0  0  0  0  0  0  0  0  0
  -16.4338  -40.7202  -11.8008 O   0  0  0  0  0  0  0  0  0  0  0  0
  -15.7754  -37.3946  -10.5602 C   0  0  0  0  0  0  0  0  0  0  0  0
  -14.5723  -37.2873   -9.6347 C   0  0  0  0  0  0  0  0  0  0  0  0
  -15.4191  -36.4884  -11.7544 C   0  0  0  0  0  0  0  0  0  0  0  0
  -16.9491  -36.8092   -9.9813 N   0  0  0  0  0  0  0  0  0  0  0  0
  -18.0353  -37.7282   -9.8060 C   0  0  0  0  0  0  0  0  0  0  0  0
  -18.5174  -37.9827   -8.4473 C   0  0  1  0  0  0  0  0  0  0  0  0
  -19.9107  -37.6342   -8.4214 O   0  0  0  0  0  0  0  0  0  0  0  0
  -18.4753  -39.3497   -7.8687 C   0  0  2  0  0  0  0  0  0  0  0  0
  -18.6407  -39.4200   -6.3667 C   0  0  0  0  0  0  0  0  0  0  0  0
  -20.0802  -39.5075   -5.9943 C   0  0  0  0  0  0  0  0  0  0  0  0
  -20.9183  -40.5896   -5.8982 C   0  0  0  0  0  0  0  0  0  0  0  0
  -22.2576  -40.3725   -5.6219 C   0  0  0  0  0  0  0  0  0  0  0  0
  -22.7371  -39.0647   -5.4375 C   0  0  0  0  0  0  0  0  0  0  0  0
  -21.9320  -37.9597   -5.5216 C   0  0  0  0  0  0  0  0  0  0  0  0
  -20.6151  -38.2144   -5.8008 C   0  0  0  0  0  0  0  0  0  0  0  0
  -23.2874  -41.2906   -5.4888 O   0  0  0  0  0  0  0  0  0  0  0  0
  -23.8674  -42.2528   -6.3305 C   0  0  0  0  0  0  0  0  0  0  0  0
  -23.1559  -42.2452   -7.6516 C   0  0  0  0  0  0  0  0  0  0  0  0
  -22.9531  -43.6265   -8.2167 C   0  0  0  0  0  0  0  0  0  0  0  0
  -22.2632  -44.5758   -7.3229 C   0  0  0  0  0  0  0  0  0  0  0  0
  -20.9278  -44.8480   -7.5313 O   0  0  0  0  0  0  0  0  0  0  0  0
  -19.6976  -44.2410   -7.4019 C   0  0  0  0  0  0  0  0  0  0  0  0
  -19.2257  -43.0877   -8.0149 C   0  0  0  0  0  0  0  0  0  0  0  0
  -17.9429  -42.6868   -7.7038 C   0  0  0  0  0  0  0  0  0  0  0  0
  -17.1844  -43.4648   -6.7904 C   0  0  0  0  0  0  0  0  0  0  0  0
  -17.6332  -44.5740   -6.2027 N   0  0  0  0  0  0  0  0  0  0  0  0
  -18.8665  -44.9530   -6.5049 C   0  0  0  0  0  0  0  0  0  0  0  0
  -17.1459  -41.5320   -8.1401 C   0  0  0  0  0  0  0  0  0  0  0  0
  -15.8685  -41.7477   -8.2949 O   0  0  0  0  0  0  0  0  0  0  0  0
  -17.4778  -40.1953   -8.4367 N   0  0  0  0  0  0  0  0  0  0  0  0
  1  2  1  0
  2  3  1  0
  2  4  1  0
  2  5  1  0
  5  6  1  0
  6  7  2  0
  7  8  1  0
  8  9  2  0
  9 10  1  0
  8 11  1  0
 11 12  1  0
 11 13  1  0
 11 14  1  0
 14 15  1  0
 15 16  1  0
 16 17  1  6
 16 18  1  0
 18 19  1  1
 19 20  1  0
 20 21  2  0
 21 22  1  0
 22 23  2  0
 23 24  1  0
 24 25  2  0
 22 26  1  0
 26 27  1  0
 27 28  1  0
 28 29  1  0
 29 30  1  0
 30 31  1  0
 31 32  1  0
 32 33  2  0
 33 34  1  0
 34 35  2  0
 35 36  1  0
 36 37  2  0
 34 38  1  0
 38 39  2  0
 38 40  1  0
 10  6  1  0
 25 20  1  0
 37 32  1  0
 40 18  1  0
M  END
$$$$
