
     RDKit          3D

 40 43  0  0  0  0  0  0  0  0999 V2000
  -19.3598  -36.0505   -7.0256 C   0  0  0  0  0  0  0  0  0  0  0  0
  -19.1891  -35.9859   -8.5243 C   0  0  0  0  0  0  0  0  0  0  0  0
  -19.8931  -34.7503   -9.0921 C   0  0  0  0  0  0  0  0  0  0  0  0
  -19.9144  -37.1922   -9.1075 C   0  0  0  0  0  0  0  0  0  0  0  0
  -17.7547  -36.0161   -8.9744 C   0  0  0  0  0  0  0  0  0  0  0  0
  -17.2328  -37.4162   -9.1310 C   0  0  0  0  0  0  0  0  0  0  0  0
  -16.2035  -37.8296   -9.9416 C   0  0  0  0  0  0  0  0  0  0  0  0
  -16.0486  -39.2227   -9.7840 C   0  0  0  0  0  0  0  0  0  0  0  0
  -16.9909  -39.5407   -8.8940 N   0  0  0  0  0  0  0  0  0  0  0  0
  -17.6618  -38.4950   -8.5289 O   0  0  0  0  0  0  0  0  0  0  0  0
  -15.0467  -40.0092  -10.5041 C   0  0  0  0  0  0  0  0  0  0  0  0
  -14.5509  -39.1541  -11.6611 C   0  0  0  0  0  0  0  0  0  0  0  0
  -13.8025  -40.2080   -9.6171 C   0  0  0  0  0  0  0  0  0  0  0  0
  -15.4168  -41.3262  -10.9329 N   0  0  0  0  0  0  0  0  0  0  0  0
  -15.5876  -42.2635   -9.8617 C   0  0  0  0  0  0  0  0  0  0  0  0
  -16.8561  -42.9884   -9.7687 C   0  0  1  0  0  0  0  0  0  0  0  0
  -16.6020  -44.1904   -9.0243 O   0  0  0  0  0  0  0  0  0  0  0  0
  -18.0301  -42.3834   -9.0899 C   0  0  2  0  0  0  0  0  0  0  0  0
  -19.2819  -42.2825   -9.9332 C   0  0  0  0  0  0  0  0  0  0  0  0
  -20.0952  -43.5258   -9.8276 C   0  0  0  0  0  0  0  0  0  0  0  0
  -21.0352  -43.9077   -8.9039 C   0  0  0  0  0  0  0  0  0  0  0  0
  -21.5758  -45.1795   -8.9904 C   0  0  0  0  0  0  0  0  0  0  0  0
  -21.1679  -46.0516  -10.0137 C   0  0  0  0  0  0  0  0  0  0  0  0
  -20.2359  -45.7063  -10.9561 C   0  0  0  0  0  0  0  0  0  0  0  0
  -19.7208  -44.4426  -10.8350 C   0  0  0  0  0  0  0  0  0  0  0  0
  -22.5191  -45.7902   -8.1789 O   0  0  0  0  0  0  0  0  0  0  0  0
  -22.5847  -46.1187   -6.8156 C   0  0  0  0  0  0  0  0  0  0  0  0
  -21.3249  -45.6653   -6.1382 C   0  0  0  0  0  0  0  0  0  0  0  0
  -21.5711  -45.0813   -4.7719 C   0  0  0  0  0  0  0  0  0  0  0  0
  -22.5462  -43.9753   -4.7277 C   0  0  0  0  0  0  0  0  0  0  0  0
  -22.0891  -42.6776   -4.6404 O   0  0  0  0  0  0  0  0  0  0  0  0
  -21.4505  -41.7327   -5.4137 C   0  0  0  0  0  0  0  0  0  0  0  0
  -20.1950  -41.7931   -6.0042 C   0  0  0  0  0  0  0  0  0  0  0  0
  -19.7909  -40.6999   -6.7422 C   0  0  0  0  0  0  0  0  0  0  0  0
  -20.6654  -39.5874   -6.8538 C   0  0  0  0  0  0  0  0  0  0  0  0
  -21.8698  -39.5249   -6.2857 N   0  0  0  0  0  0  0  0  0  0  0  0
  -22.2525  -40.5787   -5.5793 C   0  0  0  0  0  0  0  0  0  0  0  0
  -18.5628  -40.4333   -7.5035 C   0  0  0  0  0  0  0  0  0  0  0  0
  -18.1357  -39.2007   -7.4817 O   0  0  0  0  0  0  0  0  0  0  0  0
  -17.7191  -41.2525   -8.2794 N   0  0  0  0  0  0  0  0  0  0  0  0
  1  2  1  0
  2  3  1  0
  2  4  1  0
  2  5  1  0
  5  6  1  0
  6  7  2  0
  7  8  1  0
  8  9  2  0
  9 10  1  0
  8 11  1  0
 11 12  1  0
 11 13  1  0
 11 14  1  0
 14 15  1  0
 15 16  1  0
 16 17  1  1
 16 18  1  0
 18 19  1  6
 19 20  1  0
 20 21  2  0
 21 22  1  0
 22 23  2  0
 23 24  1  0
 24 25  2  0
 22 26  1  0
 26 27  1  0
 27 28  1  0
 28 29  1  0
 29 30  1  0
 30 31  1  0
 31 32  1  0
 32 33  2  0
 33 34  1  0
 34 35  2  0
 35 36  1  0
 36 37  2  0
 34 38  1  0
 38 39  2  0
 38 40  1  0
 10  6  1  0
 25 20  1  0
 37 32  1  0
 40 18  1  0
M  END
$$$$
