
     RDKit          3D

 40 43  0  0  0  0  0  0  0  0999 V2000
  -11.1808  -35.8535  -11.0664 C   0  0  0  0  0  0  0  0  0  0  0  0
  -12.4913  -35.6184  -11.7783 C   0  0  0  0  0  0  0  0  0  0  0  0
  -12.2801  -34.7430  -13.0169 C   0  0  0  0  0  0  0  0  0  0  0  0
  -13.3724  -34.8104  -10.8338 C   0  0  0  0  0  0  0  0  0  0  0  0
  -13.2132  -36.8823  -12.1556 C   0  0  0  0  0  0  0  0  0  0  0  0
  -13.3911  -37.8108  -10.9879 C   0  0  0  0  0  0  0  0  0  0  0  0
  -14.1179  -38.9762  -10.9608 C   0  0  0  0  0  0  0  0  0  0  0  0
  -14.0190  -39.5293   -9.6671 C   0  0  0  0  0  0  0  0  0  0  0  0
  -13.2428  -38.6599   -9.0168 N   0  0  0  0  0  0  0  0  0  0  0  0
  -12.8908  -37.6800   -9.7866 O   0  0  0  0  0  0  0  0  0  0  0  0
  -14.6780  -40.7737   -9.2695 C   0  0  0  0  0  0  0  0  0  0  0  0
  -13.5955  -41.8360   -9.1463 C   0  0  0  0  0  0  0  0  0  0  0  0
  -15.2390  -40.6343   -7.8412 C   0  0  0  0  0  0  0  0  0  0  0  0
  -15.7822  -41.2253  -10.0644 N   0  0  0  0  0  0  0  0  0  0  0  0
  -16.8406  -40.2671  -10.1933 C   0  0  0  0  0  0  0  0  0  0  0  0
  -17.4604  -39.7484   -8.9727 C   0  0  1  0  0  0  0  0  0  0  0  0
  -18.3491  -38.6909   -9.3667 O   0  0  0  0  0  0  0  0  0  0  0  0
  -18.2977  -40.6236   -8.1134 C   0  0  2  0  0  0  0  0  0  0  0  0
  -18.6968  -40.0286   -6.7812 C   0  0  0  0  0  0  0  0  0  0  0  0
  -19.9620  -39.2522   -6.9037 C   0  0  0  0  0  0  0  0  0  0  0  0
  -21.2720  -39.6561   -6.8464 C   0  0  0  0  0  0  0  0  0  0  0  0
  -22.2674  -38.7258   -7.0937 C   0  0  0  0  0  0  0  0  0  0  0  0
  -21.9309  -37.3940   -7.3892 C   0  0  0  0  0  0  0  0  0  0  0  0
  -20.6361  -36.9515   -7.4519 C   0  0  0  0  0  0  0  0  0  0  0  0
  -19.6799  -37.9015   -7.2060 C   0  0  0  0  0  0  0  0  0  0  0  0
  -23.6432  -38.8930   -7.1049 O   0  0  0  0  0  0  0  0  0  0  0  0
  -24.5358  -39.6843   -7.8451 C   0  0  0  0  0  0  0  0  0  0  0  0
  -23.7601  -40.5270   -8.8145 C   0  0  0  0  0  0  0  0  0  0  0  0
  -24.3044  -41.9255   -8.9424 C   0  0  0  0  0  0  0  0  0  0  0  0
  -24.4278  -42.6699   -7.6749 C   0  0  0  0  0  0  0  0  0  0  0  0
  -23.4775  -43.6158   -7.3541 O   0  0  0  0  0  0  0  0  0  0  0  0
  -22.1581  -43.6916   -6.9640 C   0  0  0  0  0  0  0  0  0  0  0  0
  -21.0244  -43.2486   -7.6325 C   0  0  0  0  0  0  0  0  0  0  0  0
  -19.8083  -43.4431   -7.0111 C   0  0  0  0  0  0  0  0  0  0  0  0
  -19.7811  -44.0790   -5.7423 C   0  0  0  0  0  0  0  0  0  0  0  0
  -20.8671  -44.5083   -5.0993 N   0  0  0  0  0  0  0  0  0  0  0  0
  -22.0322  -44.3174   -5.7011 C   0  0  0  0  0  0  0  0  0  0  0  0
  -18.4385  -43.0910   -7.4097 C   0  0  0  0  0  0  0  0  0  0  0  0
  -17.5105  -43.9439   -7.0725 O   0  0  0  0  0  0  0  0  0  0  0  0
  -17.8943  -41.9909   -8.1015 N   0  0  0  0  0  0  0  0  0  0  0  0
  1  2  1  0
  2  3  1  0
  2  4  1  0
  2  5  1  0
  5  6  1  0
  6  7  2  0
  7  8  1  0
  8  9  2  0
  9 10  1  0
  8 11  1  0
 11 12  1  0
 11 13  1  0
 11 14  1  0
 14 15  1  0
 15 16  1  0
 16 17  1  6
 16 18  1  0
 18 19  1  1
 19 20  1  0
 20 21  2  0
 21 22  1  0
 22 23  2  0
 23 24  1  0
 24 25  2  0
 22 26  1  0
 26 27  1  0
 27 28  1  0
 28 29  1  0
 29 30  1  0
 30 31  1  0
 31 32  1  0
 32 33  2  0
 33 34  1  0
 34 35  2  0
 35 36  1  0
 36 37  2  0
 34 38  1  0
 38 39  2  0
 38 40  1  0
 10  6  1  0
 25 20  1  0
 37 32  1  0
 40 18  1  0
M  END
$$$$
