
     RDKit          3D

 40 43  0  0  0  0  0  0  0  0999 V2000
  -12.7547  -41.1779  -15.7371 C   0  0  0  0  0  0  0  0  0  0  0  0
  -12.2835  -41.9655  -14.5383 C   0  0  0  0  0  0  0  0  0  0  0  0
  -11.1708  -41.2119  -13.8043 C   0  0  0  0  0  0  0  0  0  0  0  0
  -11.6501  -43.2460  -15.0677 C   0  0  0  0  0  0  0  0  0  0  0  0
  -13.3831  -42.3272  -13.5784 C   0  0  0  0  0  0  0  0  0  0  0  0
  -13.9879  -41.1203  -12.9191 C   0  0  0  0  0  0  0  0  0  0  0  0
  -13.6389  -40.5782  -11.7060 C   0  0  0  0  0  0  0  0  0  0  0  0
  -14.4611  -39.4567  -11.4696 C   0  0  0  0  0  0  0  0  0  0  0  0
  -15.2381  -39.4080  -12.5537 N   0  0  0  0  0  0  0  0  0  0  0  0
  -14.9555  -40.3679  -13.3755 O   0  0  0  0  0  0  0  0  0  0  0  0
  -14.3753  -38.6341  -10.2627 C   0  0  0  0  0  0  0  0  0  0  0  0
  -13.7484  -39.4949   -9.1758 C   0  0  0  0  0  0  0  0  0  0  0  0
  -13.3607  -37.4946  -10.4784 C   0  0  0  0  0  0  0  0  0  0  0  0
  -15.5733  -37.9898   -9.8099 N   0  0  0  0  0  0  0  0  0  0  0  0
  -16.7263  -38.8415   -9.7973 C   0  0  0  0  0  0  0  0  0  0  0  0
  -17.5864  -38.8287   -8.6127 C   0  0  1  0  0  0  0  0  0  0  0  0
  -18.8053  -38.1647   -8.9829 O   0  0  0  0  0  0  0  0  0  0  0  0
  -18.0404  -40.0972   -7.9883 C   0  0  2  0  0  0  0  0  0  0  0  0
  -18.3686  -40.0095   -6.5143 C   0  0  0  0  0  0  0  0  0  0  0  0
  -19.7904  -39.6161   -6.3090 C   0  0  0  0  0  0  0  0  0  0  0  0
  -20.9349  -40.3720   -6.2754 C   0  0  0  0  0  0  0  0  0  0  0  0
  -22.1556  -39.7280   -6.1639 C   0  0  0  0  0  0  0  0  0  0  0  0
  -22.2089  -38.3264   -6.0798 C   0  0  0  0  0  0  0  0  0  0  0  0
  -21.0893  -37.5378   -6.1061 C   0  0  0  0  0  0  0  0  0  0  0  0
  -19.9015  -38.2106   -6.2217 C   0  0  0  0  0  0  0  0  0  0  0  0
  -23.4323  -40.2660   -6.1213 O   0  0  0  0  0  0  0  0  0  0  0  0
  -24.2018  -41.0531   -6.9925 C   0  0  0  0  0  0  0  0  0  0  0  0
  -23.3970  -41.3588   -8.2214 C   0  0  0  0  0  0  0  0  0  0  0  0
  -23.5899  -42.7692   -8.7132 C   0  0  0  0  0  0  0  0  0  0  0  0
  -23.3315  -43.8236   -7.7145 C   0  0  0  0  0  0  0  0  0  0  0  0
  -22.1390  -44.5140   -7.7571 O   0  0  0  0  0  0  0  0  0  0  0  0
  -20.7988  -44.3156   -7.5057 C   0  0  0  0  0  0  0  0  0  0  0  0
  -19.9250  -43.4128   -8.0974 C   0  0  0  0  0  0  0  0  0  0  0  0
  -18.6192  -43.4137   -7.6526 C   0  0  0  0  0  0  0  0  0  0  0  0
  -18.2435  -44.3259   -6.6321 C   0  0  0  0  0  0  0  0  0  0  0  0
  -19.0789  -45.1960   -6.0644 N   0  0  0  0  0  0  0  0  0  0  0  0
  -20.3320  -45.1892   -6.4951 C   0  0  0  0  0  0  0  0  0  0  0  0
  -17.4563  -42.5992   -8.0312 C   0  0  0  0  0  0  0  0  0  0  0  0
  -16.3056  -43.2143   -8.0292 O   0  0  0  0  0  0  0  0  0  0  0  0
  -17.3132  -41.2493   -8.4083 N   0  0  0  0  0  0  0  0  0  0  0  0
  1  2  1  0
  2  3  1  0
  2  4  1  0
  2  5  1  0
  5  6  1  0
  6  7  2  0
  7  8  1  0
  8  9  2  0
  9 10  1  0
  8 11  1  0
 11 12  1  0
 11 13  1  0
 11 14  1  0
 14 15  1  0
 15 16  1  0
 16 17  1  6
 16 18  1  0
 18 19  1  1
 19 20  1  0
 20 21  2  0
 21 22  1  0
 22 23  2  0
 23 24  1  0
 24 25  2  0
 22 26  1  0
 26 27  1  0
 27 28  1  0
 28 29  1  0
 29 30  1  0
 30 31  1  0
 31 32  1  0
 32 33  2  0
 33 34  1  0
 34 35  2  0
 35 36  1  0
 36 37  2  0
 34 38  1  0
 38 39  2  0
 38 40  1  0
 10  6  1  0
 25 20  1  0
 37 32  1  0
 40 18  1  0
M  END
$$$$
