
     RDKit          3D

 40 43  0  0  0  0  0  0  0  0999 V2000
  -10.3481  -38.1016  -13.0637 C   0  0  0  0  0  0  0  0  0  0  0  0
  -11.3932  -37.1854  -13.6535 C   0  0  0  0  0  0  0  0  0  0  0  0
  -10.9827  -36.7371  -15.0590 C   0  0  0  0  0  0  0  0  0  0  0  0
  -11.4157  -35.9258  -12.7968 C   0  0  0  0  0  0  0  0  0  0  0  0
  -12.7746  -37.7787  -13.6829 C   0  0  0  0  0  0  0  0  0  0  0  0
  -13.2188  -38.2633  -12.3319 C   0  0  0  0  0  0  0  0  0  0  0  0
  -14.0060  -39.3565  -12.0629 C   0  0  0  0  0  0  0  0  0  0  0  0
  -14.1796  -39.4436  -10.6658 C   0  0  0  0  0  0  0  0  0  0  0  0
  -13.4860  -38.4020  -10.2018 N   0  0  0  0  0  0  0  0  0  0  0  0
  -12.9410  -37.7346  -11.1684 O   0  0  0  0  0  0  0  0  0  0  0  0
  -14.9731  -40.4866  -10.0153 C   0  0  0  0  0  0  0  0  0  0  0  0
  -16.2148  -40.7039  -10.8676 C   0  0  0  0  0  0  0  0  0  0  0  0
  -14.2242  -41.8315  -10.0836 C   0  0  0  0  0  0  0  0  0  0  0  0
  -15.2996  -40.3083   -8.6308 N   0  0  0  0  0  0  0  0  0  0  0  0
  -16.0231  -39.1027   -8.3511 C   0  0  0  0  0  0  0  0  0  0  0  0
  -17.2030  -39.1850   -7.4884 C   0  0  1  0  0  0  0  0  0  0  0  0
  -18.0425  -38.0656   -7.8132 O   0  0  0  0  0  0  0  0  0  0  0  0
  -18.1158  -40.3542   -7.5573 C   0  0  2  0  0  0  0  0  0  0  0  0
  -18.7680  -40.7417   -6.2486 C   0  0  0  0  0  0  0  0  0  0  0  0
  -20.0408  -39.9946   -6.0477 C   0  0  0  0  0  0  0  0  0  0  0  0
  -21.3143  -40.2571   -6.4857 C   0  0  0  0  0  0  0  0  0  0  0  0
  -22.3103  -39.3291   -6.2325 C   0  0  0  0  0  0  0  0  0  0  0  0
  -22.0127  -38.1477   -5.5325 C   0  0  0  0  0  0  0  0  0  0  0  0
  -20.7557  -37.8516   -5.0760 C   0  0  0  0  0  0  0  0  0  0  0  0
  -19.7968  -38.7911   -5.3495 C   0  0  0  0  0  0  0  0  0  0  0  0
  -23.6519  -39.3634   -6.5791 O   0  0  0  0  0  0  0  0  0  0  0  0
  -24.3574  -39.4287   -7.7910 C   0  0  0  0  0  0  0  0  0  0  0  0
  -23.3798  -39.4878   -8.9279 C   0  0  0  0  0  0  0  0  0  0  0  0
  -23.8070  -40.4324  -10.0204 C   0  0  0  0  0  0  0  0  0  0  0  0
  -24.0937  -41.8114   -9.5820 C   0  0  0  0  0  0  0  0  0  0  0  0
  -23.1533  -42.7961   -9.7982 O   0  0  0  0  0  0  0  0  0  0  0  0
  -21.9155  -43.1883   -9.3371 C   0  0  0  0  0  0  0  0  0  0  0  0
  -20.7158  -42.4890   -9.3573 C   0  0  0  0  0  0  0  0  0  0  0  0
  -19.6108  -43.1148   -8.8185 C   0  0  0  0  0  0  0  0  0  0  0  0
  -19.7563  -44.4217   -8.2837 C   0  0  0  0  0  0  0  0  0  0  0  0
  -20.9056  -45.0969   -8.2657 N   0  0  0  0  0  0  0  0  0  0  0  0
  -21.9634  -44.4897   -8.7836 C   0  0  0  0  0  0  0  0  0  0  0  0
  -18.2183  -42.6741   -8.6576 C   0  0  0  0  0  0  0  0  0  0  0  0
  -17.3084  -43.5975   -8.8050 O   0  0  0  0  0  0  0  0  0  0  0  0
  -17.6358  -41.4246   -8.3675 N   0  0  0  0  0  0  0  0  0  0  0  0
  1  2  1  0
  2  3  1  0
  2  4  1  0
  2  5  1  0
  5  6  1  0
  6  7  2  0
  7  8  1  0
  8  9  2  0
  9 10  1  0
  8 11  1  0
 11 12  1  0
 11 13  1  0
 11 14  1  0
 14 15  1  0
 15 16  1  0
 16 17  1  6
 16 18  1  0
 18 19  1  1
 19 20  1  0
 20 21  2  0
 21 22  1  0
 22 23  2  0
 23 24  1  0
 24 25  2  0
 22 26  1  0
 26 27  1  0
 27 28  1  0
 28 29  1  0
 29 30  1  0
 30 31  1  0
 31 32  1  0
 32 33  2  0
 33 34  1  0
 34 35  2  0
 35 36  1  0
 36 37  2  0
 34 38  1  0
 38 39  2  0
 38 40  1  0
 10  6  1  0
 25 20  1  0
 37 32  1  0
 40 18  1  0
M  END
$$$$
