
     RDKit          3D

 40 43  0  0  0  0  0  0  0  0999 V2000
  -12.3767  -37.0103  -14.9949 C   0  0  0  0  0  0  0  0  0  0  0  0
  -12.5361  -36.0307  -13.8572 C   0  0  0  0  0  0  0  0  0  0  0  0
  -12.6451  -34.5999  -14.3919 C   0  0  0  0  0  0  0  0  0  0  0  0
  -11.2499  -36.0816  -13.0422 C   0  0  0  0  0  0  0  0  0  0  0  0
  -13.6980  -36.3343  -12.9522 C   0  0  0  0  0  0  0  0  0  0  0  0
  -13.6283  -37.7200  -12.3758 C   0  0  0  0  0  0  0  0  0  0  0  0
  -14.4119  -38.2398  -11.3743 C   0  0  0  0  0  0  0  0  0  0  0  0
  -14.0077  -39.5710  -11.1422 C   0  0  0  0  0  0  0  0  0  0  0  0
  -13.0171  -39.7514  -12.0181 N   0  0  0  0  0  0  0  0  0  0  0  0
  -12.8108  -38.6817  -12.7181 O   0  0  0  0  0  0  0  0  0  0  0  0
  -14.6199  -40.4352  -10.1326 C   0  0  0  0  0  0  0  0  0  0  0  0
  -15.7621  -41.1781  -10.8099 C   0  0  0  0  0  0  0  0  0  0  0  0
  -13.6313  -41.5454   -9.7267 C   0  0  0  0  0  0  0  0  0  0  0  0
  -15.0321  -39.8301   -8.9001 N   0  0  0  0  0  0  0  0  0  0  0  0
  -16.0789  -38.8615   -9.0455 C   0  0  0  0  0  0  0  0  0  0  0  0
  -17.1953  -38.8979   -8.0992 C   0  0  1  0  0  0  0  0  0  0  0  0
  -18.1962  -37.9930   -8.5918 O   0  0  0  0  0  0  0  0  0  0  0  0
  -17.9390  -40.1585   -7.8480 C   0  0  2  0  0  0  0  0  0  0  0  0
  -18.5539  -40.2816   -6.4714 C   0  0  0  0  0  0  0  0  0  0  0  0
  -19.9197  -39.6882   -6.4447 C   0  0  0  0  0  0  0  0  0  0  0  0
  -21.1381  -40.2251   -6.7762 C   0  0  0  0  0  0  0  0  0  0  0  0
  -22.2554  -39.4075   -6.7508 C   0  0  0  0  0  0  0  0  0  0  0  0
  -22.1333  -38.0568   -6.3835 C   0  0  0  0  0  0  0  0  0  0  0  0
  -20.9362  -37.4853   -6.0425 C   0  0  0  0  0  0  0  0  0  0  0  0
  -19.8537  -38.3241   -6.0838 C   0  0  0  0  0  0  0  0  0  0  0  0
  -23.5739  -39.7119   -7.0512 O   0  0  0  0  0  0  0  0  0  0  0  0
  -24.2437  -40.1817   -8.1919 C   0  0  0  0  0  0  0  0  0  0  0  0
  -23.2485  -40.3975   -9.2940 C   0  0  0  0  0  0  0  0  0  0  0  0
  -23.5247  -41.6402  -10.0989 C   0  0  0  0  0  0  0  0  0  0  0  0
  -23.6279  -42.8860   -9.3157 C   0  0  0  0  0  0  0  0  0  0  0  0
  -22.5586  -43.7558   -9.2897 O   0  0  0  0  0  0  0  0  0  0  0  0
  -21.2867  -43.8442   -8.7672 C   0  0  0  0  0  0  0  0  0  0  0  0
  -20.1934  -43.0172   -8.9892 C   0  0  0  0  0  0  0  0  0  0  0  0
  -19.0225  -43.3273   -8.3291 C   0  0  0  0  0  0  0  0  0  0  0  0
  -18.9973  -44.4600   -7.4739 C   0  0  0  0  0  0  0  0  0  0  0  0
  -20.0440  -45.2578   -7.2611 N   0  0  0  0  0  0  0  0  0  0  0  0
  -21.1660  -44.9537   -7.8972 C   0  0  0  0  0  0  0  0  0  0  0  0
  -17.7060  -42.6749   -8.3134 C   0  0  0  0  0  0  0  0  0  0  0  0
  -16.6763  -43.4725   -8.2362 O   0  0  0  0  0  0  0  0  0  0  0  0
  -17.3041  -41.3256   -8.3652 N   0  0  0  0  0  0  0  0  0  0  0  0
  1  2  1  0
  2  3  1  0
  2  4  1  0
  2  5  1  0
  5  6  1  0
  6  7  2  0
  7  8  1  0
  8  9  2  0
  9 10  1  0
  8 11  1  0
 11 12  1  0
 11 13  1  0
 11 14  1  0
 14 15  1  0
 15 16  1  0
 16 17  1  6
 16 18  1  0
 18 19  1  1
 19 20  1  0
 20 21  2  0
 21 22  1  0
 22 23  2  0
 23 24  1  0
 24 25  2  0
 22 26  1  0
 26 27  1  0
 27 28  1  0
 28 29  1  0
 29 30  1  0
 30 31  1  0
 31 32  1  0
 32 33  2  0
 33 34  1  0
 34 35  2  0
 35 36  1  0
 36 37  2  0
 34 38  1  0
 38 39  2  0
 38 40  1  0
 10  6  1  0
 25 20  1  0
 37 32  1  0
 40 18  1  0
M  END
$$$$
