
     RDKit          3D

 40 43  0  0  0  0  0  0  0  0999 V2000
  -11.5194  -34.3773  -11.8855 C   0  0  0  0  0  0  0  0  0  0  0  0
  -11.0078  -35.4937  -12.7637 C   0  0  0  0  0  0  0  0  0  0  0  0
   -9.6499  -35.1234  -13.3667 C   0  0  0  0  0  0  0  0  0  0  0  0
  -11.9729  -35.6157  -13.9363 C   0  0  0  0  0  0  0  0  0  0  0  0
  -10.9187  -36.8231  -12.0665 C   0  0  0  0  0  0  0  0  0  0  0  0
  -12.2536  -37.2991  -11.5680 C   0  0  0  0  0  0  0  0  0  0  0  0
  -12.5172  -38.4691  -10.8980 C   0  0  0  0  0  0  0  0  0  0  0  0
  -13.8995  -38.5187  -10.6215 C   0  0  0  0  0  0  0  0  0  0  0  0
  -14.3609  -37.3798  -11.1423 N   0  0  0  0  0  0  0  0  0  0  0  0
  -13.4060  -36.6912  -11.6816 O   0  0  0  0  0  0  0  0  0  0  0  0
  -14.5426  -39.6320   -9.9230 C   0  0  0  0  0  0  0  0  0  0  0  0
  -14.1639  -40.9061  -10.6638 C   0  0  0  0  0  0  0  0  0  0  0  0
  -13.9163  -39.8035   -8.5257 C   0  0  0  0  0  0  0  0  0  0  0  0
  -15.9552  -39.5467   -9.6937 N   0  0  0  0  0  0  0  0  0  0  0  0
  -16.3119  -39.2983   -8.3276 C   0  0  0  0  0  0  0  0  0  0  0  0
  -17.7302  -39.1525   -7.9955 C   0  0  1  0  0  0  0  0  0  0  0  0
  -18.4485  -39.0717   -9.2368 O   0  0  0  0  0  0  0  0  0  0  0  0
  -18.4450  -40.2065   -7.2316 C   0  0  2  0  0  0  0  0  0  0  0  0
  -19.0498  -39.7552   -5.9206 C   0  0  0  0  0  0  0  0  0  0  0  0
  -20.4281  -39.2289   -6.1246 C   0  0  0  0  0  0  0  0  0  0  0  0
  -21.6363  -39.8763   -6.1853 C   0  0  0  0  0  0  0  0  0  0  0  0
  -22.7709  -39.1424   -6.4875 C   0  0  0  0  0  0  0  0  0  0  0  0
  -22.6763  -37.7597   -6.7181 C   0  0  0  0  0  0  0  0  0  0  0  0
  -21.4901  -37.0770   -6.6629 C   0  0  0  0  0  0  0  0  0  0  0  0
  -20.3898  -37.8376   -6.3659 C   0  0  0  0  0  0  0  0  0  0  0  0
  -24.0840  -39.5674   -6.6154 O   0  0  0  0  0  0  0  0  0  0  0  0
  -24.7494  -40.4817   -7.4472 C   0  0  0  0  0  0  0  0  0  0  0  0
  -23.7556  -41.1198   -8.3728 C   0  0  0  0  0  0  0  0  0  0  0  0
  -24.0090  -42.5895   -8.5827 C   0  0  0  0  0  0  0  0  0  0  0  0
  -24.0810  -43.3969   -7.3503 C   0  0  0  0  0  0  0  0  0  0  0  0
  -22.9929  -44.1578   -6.9791 O   0  0  0  0  0  0  0  0  0  0  0  0
  -21.7166  -43.9980   -6.4849 C   0  0  0  0  0  0  0  0  0  0  0  0
  -20.6428  -43.3198   -7.0464 C   0  0  0  0  0  0  0  0  0  0  0  0
  -19.4620  -43.3058   -6.3334 C   0  0  0  0  0  0  0  0  0  0  0  0
  -19.4076  -43.9782   -5.0845 C   0  0  0  0  0  0  0  0  0  0  0  0
  -20.4356  -44.6329   -4.5441 N   0  0  0  0  0  0  0  0  0  0  0  0
  -21.5672  -44.6414   -5.2335 C   0  0  0  0  0  0  0  0  0  0  0  0
  -18.1598  -42.6833   -6.6093 C   0  0  0  0  0  0  0  0  0  0  0  0
  -17.1127  -43.3579   -6.2210 O   0  0  0  0  0  0  0  0  0  0  0  0
  -17.7876  -41.4716   -7.2242 N   0  0  0  0  0  0  0  0  0  0  0  0
  1  2  1  0
  2  3  1  0
  2  4  1  0
  2  5  1  0
  5  6  1  0
  6  7  2  0
  7  8  1  0
  8  9  2  0
  9 10  1  0
  8 11  1  0
 11 12  1  0
 11 13  1  0
 11 14  1  0
 14 15  1  0
 15 16  1  0
 16 17  1  6
 16 18  1  0
 18 19  1  1
 19 20  1  0
 20 21  2  0
 21 22  1  0
 22 23  2  0
 23 24  1  0
 24 25  2  0
 22 26  1  0
 26 27  1  0
 27 28  1  0
 28 29  1  0
 29 30  1  0
 30 31  1  0
 31 32  1  0
 32 33  2  0
 33 34  1  0
 34 35  2  0
 35 36  1  0
 36 37  2  0
 34 38  1  0
 38 39  2  0
 38 40  1  0
 10  6  1  0
 25 20  1  0
 37 32  1  0
 40 18  1  0
M  END
$$$$
