
     RDKit          3D

 34 35  0  0  0  0  0  0  0  0999 V2000
  -12.0515  -34.5228  -10.7230 C   0  0  0  0  0  0  0  0  0  0  0  0
  -11.9157  -36.0017  -10.9410 C   0  0  0  0  0  0  0  0  0  0  0  0
  -13.2899  -36.5959  -11.2757 C   0  0  0  0  0  0  0  0  0  0  0  0
  -13.0656  -38.0251  -11.7149 C   0  0  0  0  0  0  0  0  0  0  0  0
  -13.3326  -38.9867  -10.6856 N   0  0  0  0  0  0  0  0  0  0  0  0
  -14.3210  -39.9980  -10.8192 C   0  0  0  0  0  0  0  0  0  0  0  0
  -14.5292  -40.4580  -11.9688 O   0  0  0  0  0  0  0  0  0  0  0  0
  -15.0430  -40.4455   -9.5951 C   0  0  2  0  0  0  0  0  0  0  0  0
  -16.2272  -41.2597  -10.0977 C   0  0  0  0  0  0  0  0  0  0  0  0
  -15.6171  -39.2343   -8.8472 C   0  0  0  0  0  0  0  0  0  0  0  0
  -17.0925  -39.1869   -9.0187 C   0  0  2  0  0  0  0  0  0  0  0  0
  -17.4610  -37.8613   -9.1814 O   0  0  0  0  0  0  0  0  0  0  0  0
  -17.9096  -39.9318   -8.0250 C   0  0  2  0  0  0  0  0  0  0  0  0
  -18.4840  -39.1555   -6.9006 C   0  0  0  0  0  0  0  0  0  0  0  0
  -19.4275  -38.0663   -7.1608 C   0  0  2  0  0  0  0  0  0  0  0  0
  -19.3619  -37.1428   -5.9222 C   0  0  0  0  0  0  0  0  0  0  0  0
  -20.8651  -38.3829   -7.3920 C   0  0  0  0  0  0  0  0  0  0  0  0
  -21.2936  -39.7353   -6.9741 C   0  0  0  0  0  0  0  0  0  0  0  0
  -22.7839  -39.9093   -6.8460 C   0  0  0  0  0  0  0  0  0  0  0  0
  -23.1620  -41.3654   -7.1491 C   0  0  0  0  0  0  0  0  0  0  0  0
  -23.0490  -42.2155   -5.9325 C   0  0  0  0  0  0  0  0  0  0  0  0
  -22.8944  -43.7007   -6.2159 C   0  0  0  0  0  0  0  0  0  0  0  0
  -22.1003  -43.9412   -7.3940 N   0  0  0  0  0  0  0  0  0  0  0  0
  -20.6936  -43.8405   -7.6277 C   0  0  0  0  0  0  0  0  0  0  0  0
  -19.7304  -42.9648   -7.1788 C   0  0  0  0  0  0  0  0  0  0  0  0
  -18.4503  -43.1178   -7.6950 C   0  0  0  0  0  0  0  0  0  0  0  0
  -18.1982  -44.1498   -8.6321 C   0  0  0  0  0  0  0  0  0  0  0  0
  -19.1692  -45.0195   -9.0676 C   0  0  0  0  0  0  0  0  0  0  0  0
  -20.3553  -44.8302   -8.5561 N   0  0  0  0  0  0  0  0  0  0  0  0
  -18.8713  -46.0230   -9.9931 O   0  0  0  0  0  0  0  0  0  0  0  0
  -19.8039  -46.9861  -10.3877 C   0  0  0  0  0  0  0  0  0  0  0  0
  -17.2217  -42.3284   -7.5045 C   0  0  0  0  0  0  0  0  0  0  0  0
  -16.1173  -43.0072   -7.4063 O   0  0  0  0  0  0  0  0  0  0  0  0
  -17.0215  -40.9363   -7.4099 N   0  0  0  0  0  0  0  0  0  0  0  0
  1  2  1  0
  2  3  1  0
  3  4  1  0
  4  5  1  0
  5  6  1  0
  6  7  2  0
  6  8  1  0
  8  9  1  6
  8 10  1  0
 10 11  1  0
 11 12  1  1
 11 13  1  0
 13 14  1  1
 14 15  1  0
 15 16  1  1
 15 17  1  0
 17 18  1  0
 18 19  1  0
 19 20  1  0
 20 21  1  0
 21 22  1  0
 22 23  1  0
 23 24  1  0
 24 25  2  0
 25 26  1  0
 26 27  2  0
 27 28  1  0
 28 29  2  0
 28 30  1  0
 30 31  1  0
 26 32  1  0
 32 33  2  0
 32 34  1  0
 29 24  1  0
 34 13  1  0
M  END
$$$$
