
     RDKit          3D

 34 35  0  0  0  0  0  0  0  0999 V2000
  -10.0324  -37.4843  -12.7126 C   0  0  0  0  0  0  0  0  0  0  0  0
  -11.4381  -37.0138  -12.4764 C   0  0  0  0  0  0  0  0  0  0  0  0
  -12.4052  -38.1928  -12.6444 C   0  0  0  0  0  0  0  0  0  0  0  0
  -13.6188  -37.9026  -11.7905 C   0  0  0  0  0  0  0  0  0  0  0  0
  -13.6639  -38.6735  -10.5826 N   0  0  0  0  0  0  0  0  0  0  0  0
  -14.5041  -39.8083  -10.4286 C   0  0  0  0  0  0  0  0  0  0  0  0
  -15.0943  -40.2367  -11.4506 O   0  0  0  0  0  0  0  0  0  0  0  0
  -14.6309  -40.4140   -9.0732 C   0  0  2  0  0  0  0  0  0  0  0  0
  -13.9370  -41.7659   -9.1667 C   0  0  0  0  0  0  0  0  0  0  0  0
  -16.1065  -40.6891   -8.7527 C   0  0  0  0  0  0  0  0  0  0  0  0
  -16.8359  -39.4050   -8.5866 C   0  0  2  0  0  0  0  0  0  0  0  0
  -15.9019  -38.4129   -8.3360 O   0  0  0  0  0  0  0  0  0  0  0  0
  -17.9941  -39.4048   -7.6546 C   0  0  2  0  0  0  0  0  0  0  0  0
  -18.6080  -38.0940   -7.3359 C   0  0  0  0  0  0  0  0  0  0  0  0
  -19.2037  -37.2796   -8.3971 C   0  0  2  0  0  0  0  0  0  0  0  0
  -19.2010  -35.8261   -7.8692 C   0  0  0  0  0  0  0  0  0  0  0  0
  -20.5910  -37.5741   -8.8543 C   0  0  0  0  0  0  0  0  0  0  0  0
  -21.3923  -38.4245   -7.9476 C   0  0  0  0  0  0  0  0  0  0  0  0
  -22.8752  -38.3958   -8.2082 C   0  0  0  0  0  0  0  0  0  0  0  0
  -23.4962  -39.7407   -7.8076 C   0  0  0  0  0  0  0  0  0  0  0  0
  -23.8423  -39.7642   -6.3601 C   0  0  0  0  0  0  0  0  0  0  0  0
  -23.9680  -41.1577   -5.7666 C   0  0  0  0  0  0  0  0  0  0  0  0
  -23.0134  -42.0721   -6.3401 N   0  0  0  0  0  0  0  0  0  0  0  0
  -21.6036  -42.2150   -6.1512 C   0  0  0  0  0  0  0  0  0  0  0  0
  -20.5883  -41.3055   -5.9554 C   0  0  0  0  0  0  0  0  0  0  0  0
  -19.2950  -41.8079   -5.8984 C   0  0  0  0  0  0  0  0  0  0  0  0
  -19.0852  -43.2025   -6.0327 C   0  0  0  0  0  0  0  0  0  0  0  0
  -20.1093  -44.0989   -6.2233 C   0  0  0  0  0  0  0  0  0  0  0  0
  -21.3042  -43.5755   -6.2743 N   0  0  0  0  0  0  0  0  0  0  0  0
  -19.8521  -45.4665   -6.3491 O   0  0  0  0  0  0  0  0  0  0  0  0
  -20.7488  -46.4459   -5.9134 C   0  0  0  0  0  0  0  0  0  0  0  0
  -17.9912  -41.1327   -5.7833 C   0  0  0  0  0  0  0  0  0  0  0  0
  -17.1155  -41.7109   -5.0159 O   0  0  0  0  0  0  0  0  0  0  0  0
  -17.5086  -39.9459   -6.3712 N   0  0  0  0  0  0  0  0  0  0  0  0
  1  2  1  0
  2  3  1  0
  3  4  1  0
  4  5  1  0
  5  6  1  0
  6  7  2  0
  6  8  1  0
  8  9  1  6
  8 10  1  0
 10 11  1  0
 11 12  1  1
 11 13  1  0
 13 14  1  1
 14 15  1  0
 15 16  1  1
 15 17  1  0
 17 18  1  0
 18 19  1  0
 19 20  1  0
 20 21  1  0
 21 22  1  0
 22 23  1  0
 23 24  1  0
 24 25  2  0
 25 26  1  0
 26 27  2  0
 27 28  1  0
 28 29  2  0
 28 30  1  0
 30 31  1  0
 26 32  1  0
 32 33  2  0
 32 34  1  0
 29 24  1  0
 34 13  1  0
M  END
$$$$
