
     RDKit          3D

 34 35  0  0  0  0  0  0  0  0999 V2000
  -20.7489  -39.2576  -10.4496 C   0  0  0  0  0  0  0  0  0  0  0  0
  -20.2289  -39.5107  -11.8348 C   0  0  0  0  0  0  0  0  0  0  0  0
  -18.8020  -40.0676  -11.7497 C   0  0  0  0  0  0  0  0  0  0  0  0
  -17.8581  -38.8866  -11.7618 C   0  0  0  0  0  0  0  0  0  0  0  0
  -16.4770  -39.2610  -11.8496 N   0  0  0  0  0  0  0  0  0  0  0  0
  -15.7804  -39.8778  -10.7763 C   0  0  0  0  0  0  0  0  0  0  0  0
  -15.4752  -41.0892  -10.9023 O   0  0  0  0  0  0  0  0  0  0  0  0
  -15.4584  -39.0537   -9.5775 C   0  0  2  0  0  0  0  0  0  0  0  0
  -13.9507  -38.8465   -9.6210 C   0  0  0  0  0  0  0  0  0  0  0  0
  -15.7656  -39.8411   -8.2964 C   0  0  0  0  0  0  0  0  0  0  0  0
  -17.0406  -39.3622   -7.7019 C   0  0  2  0  0  0  0  0  0  0  0  0
  -16.7508  -38.2833   -6.8824 O   0  0  0  0  0  0  0  0  0  0  0  0
  -17.9185  -40.3866   -7.0774 C   0  0  2  0  0  0  0  0  0  0  0  0
  -18.6741  -39.9857   -5.8671 C   0  0  0  0  0  0  0  0  0  0  0  0
  -19.6511  -38.8969   -5.9329 C   0  0  2  0  0  0  0  0  0  0  0  0
  -19.7962  -38.3686   -4.4869 C   0  0  0  0  0  0  0  0  0  0  0  0
  -21.0261  -39.1767   -6.4343 C   0  0  0  0  0  0  0  0  0  0  0  0
  -21.4093  -40.6045   -6.4764 C   0  0  0  0  0  0  0  0  0  0  0  0
  -22.8891  -40.8532   -6.6032 C   0  0  0  0  0  0  0  0  0  0  0  0
  -23.1292  -42.1706   -7.3527 C   0  0  0  0  0  0  0  0  0  0  0  0
  -23.1053  -43.3318   -6.4218 C   0  0  0  0  0  0  0  0  0  0  0  0
  -22.8182  -44.6666   -7.0896 C   0  0  0  0  0  0  0  0  0  0  0  0
  -21.8747  -44.5327   -8.1704 N   0  0  0  0  0  0  0  0  0  0  0  0
  -20.4601  -44.3262   -8.1758 C   0  0  0  0  0  0  0  0  0  0  0  0
  -19.6186  -43.5885   -7.3733 C   0  0  0  0  0  0  0  0  0  0  0  0
  -18.2787  -43.5471   -7.7357 C   0  0  0  0  0  0  0  0  0  0  0  0
  -17.8474  -44.2566   -8.8835 C   0  0  0  0  0  0  0  0  0  0  0  0
  -18.6986  -44.9925   -9.6726 C   0  0  0  0  0  0  0  0  0  0  0  0
  -19.9474  -44.9950   -9.2919 N   0  0  0  0  0  0  0  0  0  0  0  0
  -18.2253  -45.6768  -10.7951 O   0  0  0  0  0  0  0  0  0  0  0  0
  -18.9759  -45.8156  -11.9658 C   0  0  0  0  0  0  0  0  0  0  0  0
  -17.1377  -42.8094   -7.1675 C   0  0  0  0  0  0  0  0  0  0  0  0
  -16.0097  -43.4539   -7.1181 O   0  0  0  0  0  0  0  0  0  0  0  0
  -17.0446  -41.4984   -6.6579 N   0  0  0  0  0  0  0  0  0  0  0  0
  1  2  1  0
  2  3  1  0
  3  4  1  0
  4  5  1  0
  5  6  1  0
  6  7  2  0
  6  8  1  0
  8  9  1  6
  8 10  1  0
 10 11  1  0
 11 12  1  1
 11 13  1  0
 13 14  1  1
 14 15  1  0
 15 16  1  1
 15 17  1  0
 17 18  1  0
 18 19  1  0
 19 20  1  0
 20 21  1  0
 21 22  1  0
 22 23  1  0
 23 24  1  0
 24 25  2  0
 25 26  1  0
 26 27  2  0
 27 28  1  0
 28 29  2  0
 28 30  1  0
 30 31  1  0
 26 32  1  0
 32 33  2  0
 32 34  1  0
 29 24  1  0
 34 13  1  0
M  END
$$$$
