
     RDKit          3D

 34 35  0  0  0  0  0  0  0  0999 V2000
  -12.0701  -35.7333  -12.0833 C   0  0  0  0  0  0  0  0  0  0  0  0
  -12.6045  -37.0664  -12.5195 C   0  0  0  0  0  0  0  0  0  0  0  0
  -13.4147  -37.6898  -11.3756 C   0  0  0  0  0  0  0  0  0  0  0  0
  -12.8911  -39.0930  -11.1680 C   0  0  0  0  0  0  0  0  0  0  0  0
  -13.4099  -39.7271   -9.9915 N   0  0  0  0  0  0  0  0  0  0  0  0
  -14.7958  -39.7507   -9.6813 C   0  0  0  0  0  0  0  0  0  0  0  0
  -15.6058  -39.7237  -10.6403 O   0  0  0  0  0  0  0  0  0  0  0  0
  -15.1975  -39.8055   -8.2476 C   0  0  2  0  0  0  0  0  0  0  0  0
  -15.8932  -41.1484   -8.0725 C   0  0  0  0  0  0  0  0  0  0  0  0
  -16.2393  -38.7189   -7.9483 C   0  0  0  0  0  0  0  0  0  0  0  0
  -17.5948  -39.2021   -8.3187 C   0  0  2  0  0  0  0  0  0  0  0  0
  -18.3662  -38.0992   -8.6475 O   0  0  0  0  0  0  0  0  0  0  0  0
  -18.2510  -40.1501   -7.3802 C   0  0  2  0  0  0  0  0  0  0  0  0
  -18.9119  -39.5735   -6.1854 C   0  0  0  0  0  0  0  0  0  0  0  0
  -20.0274  -38.6372   -6.3378 C   0  0  2  0  0  0  0  0  0  0  0  0
  -20.0778  -37.8197   -5.0262 C   0  0  0  0  0  0  0  0  0  0  0  0
  -21.4001  -39.1664   -6.5740 C   0  0  0  0  0  0  0  0  0  0  0  0
  -21.5904  -40.6004   -6.2667 C   0  0  0  0  0  0  0  0  0  0  0  0
  -23.0281  -41.0276   -6.1320 C   0  0  0  0  0  0  0  0  0  0  0  0
  -23.1723  -42.4964   -6.5525 C   0  0  0  0  0  0  0  0  0  0  0  0
  -22.8876  -43.4127   -5.4145 C   0  0  0  0  0  0  0  0  0  0  0  0
  -22.5012  -44.8239   -5.8257 C   0  0  0  0  0  0  0  0  0  0  0  0
  -21.7125  -44.8333   -7.0316 N   0  0  0  0  0  0  0  0  0  0  0  0
  -20.3483  -44.4834   -7.2766 C   0  0  0  0  0  0  0  0  0  0  0  0
  -19.5282  -43.5005   -6.7689 C   0  0  0  0  0  0  0  0  0  0  0  0
  -18.2556  -43.3978   -7.3151 C   0  0  0  0  0  0  0  0  0  0  0  0
  -17.8655  -44.2941   -8.3404 C   0  0  0  0  0  0  0  0  0  0  0  0
  -18.6938  -45.2734   -8.8341 C   0  0  0  0  0  0  0  0  0  0  0  0
  -19.8798  -45.3246   -8.2908 N   0  0  0  0  0  0  0  0  0  0  0  0
  -18.2628  -46.1352   -9.8460 O   0  0  0  0  0  0  0  0  0  0  0  0
  -17.9329  -47.4722   -9.6083 C   0  0  0  0  0  0  0  0  0  0  0  0
  -17.1671  -42.4350   -7.0761 C   0  0  0  0  0  0  0  0  0  0  0  0
  -15.9645  -42.9282   -7.0524 O   0  0  0  0  0  0  0  0  0  0  0  0
  -17.1939  -41.0413   -6.8662 N   0  0  0  0  0  0  0  0  0  0  0  0
  1  2  1  0
  2  3  1  0
  3  4  1  0
  4  5  1  0
  5  6  1  0
  6  7  2  0
  6  8  1  0
  8  9  1  6
  8 10  1  0
 10 11  1  0
 11 12  1  1
 11 13  1  0
 13 14  1  1
 14 15  1  0
 15 16  1  1
 15 17  1  0
 17 18  1  0
 18 19  1  0
 19 20  1  0
 20 21  1  0
 21 22  1  0
 22 23  1  0
 23 24  1  0
 24 25  2  0
 25 26  1  0
 26 27  2  0
 27 28  1  0
 28 29  2  0
 28 30  1  0
 30 31  1  0
 26 32  1  0
 32 33  2  0
 32 34  1  0
 29 24  1  0
 34 13  1  0
M  END
$$$$
