
     RDKit          3D

 34 35  0  0  0  0  0  0  0  0999 V2000
  -11.7861  -36.7566  -12.7951 C   0  0  0  0  0  0  0  0  0  0  0  0
  -12.7623  -37.5005  -11.9311 C   0  0  0  0  0  0  0  0  0  0  0  0
  -13.6351  -38.4052  -12.8105 C   0  0  0  0  0  0  0  0  0  0  0  0
  -14.5546  -39.1744  -11.8891 C   0  0  0  0  0  0  0  0  0  0  0  0
  -13.8754  -39.7816  -10.7822 N   0  0  0  0  0  0  0  0  0  0  0  0
  -14.5583  -40.2556   -9.6305 C   0  0  0  0  0  0  0  0  0  0  0  0
  -15.5033  -41.0632   -9.8073 O   0  0  0  0  0  0  0  0  0  0  0  0
  -14.1130  -39.7676   -8.2950 C   0  0  2  0  0  0  0  0  0  0  0  0
  -12.8638  -40.5729   -7.9648 C   0  0  0  0  0  0  0  0  0  0  0  0
  -15.1626  -40.1117   -7.2292 C   0  0  0  0  0  0  0  0  0  0  0  0
  -16.5005  -39.6330   -7.6639 C   0  0  2  0  0  0  0  0  0  0  0  0
  -16.4683  -38.2483   -7.6977 O   0  0  0  0  0  0  0  0  0  0  0  0
  -17.6799  -40.2008   -6.9591 C   0  0  2  0  0  0  0  0  0  0  0  0
  -18.5325  -39.2586   -6.1961 C   0  0  0  0  0  0  0  0  0  0  0  0
  -19.2174  -38.1608   -6.8818 C   0  0  2  0  0  0  0  0  0  0  0  0
  -19.4988  -37.0935   -5.7988 C   0  0  0  0  0  0  0  0  0  0  0  0
  -20.5078  -38.4247   -7.5786 C   0  0  0  0  0  0  0  0  0  0  0  0
  -21.1826  -39.6881   -7.2102 C   0  0  0  0  0  0  0  0  0  0  0  0
  -22.6336  -39.7627   -7.6060 C   0  0  0  0  0  0  0  0  0  0  0  0
  -23.0203  -41.2225   -7.8790 C   0  0  0  0  0  0  0  0  0  0  0  0
  -23.4200  -41.9173   -6.6248 C   0  0  0  0  0  0  0  0  0  0  0  0
  -23.3197  -43.4326   -6.6867 C   0  0  0  0  0  0  0  0  0  0  0  0
  -22.1921  -43.8629   -7.4739 N   0  0  0  0  0  0  0  0  0  0  0  0
  -20.7893  -43.8696   -7.1988 C   0  0  0  0  0  0  0  0  0  0  0  0
  -19.9633  -42.9985   -6.5243 C   0  0  0  0  0  0  0  0  0  0  0  0
  -18.6046  -43.2853   -6.5318 C   0  0  0  0  0  0  0  0  0  0  0  0
  -18.1422  -44.4394   -7.2107 C   0  0  0  0  0  0  0  0  0  0  0  0
  -18.9795  -45.3025   -7.8762 C   0  0  0  0  0  0  0  0  0  0  0  0
  -20.2455  -44.9855   -7.8430 N   0  0  0  0  0  0  0  0  0  0  0  0
  -18.4758  -46.4295   -8.5307 O   0  0  0  0  0  0  0  0  0  0  0  0
  -19.1570  -47.6492   -8.5650 C   0  0  0  0  0  0  0  0  0  0  0  0
  -17.4495  -42.5467   -5.9941 C   0  0  0  0  0  0  0  0  0  0  0  0
  -16.5189  -43.2671   -5.4418 O   0  0  0  0  0  0  0  0  0  0  0  0
  -17.1623  -41.1668   -5.9719 N   0  0  0  0  0  0  0  0  0  0  0  0
  1  2  1  0
  2  3  1  0
  3  4  1  0
  4  5  1  0
  5  6  1  0
  6  7  2  0
  6  8  1  0
  8  9  1  1
  8 10  1  0
 10 11  1  0
 11 12  1  1
 11 13  1  0
 13 14  1  1
 14 15  1  0
 15 16  1  1
 15 17  1  0
 17 18  1  0
 18 19  1  0
 19 20  1  0
 20 21  1  0
 21 22  1  0
 22 23  1  0
 23 24  1  0
 24 25  2  0
 25 26  1  0
 26 27  2  0
 27 28  1  0
 28 29  2  0
 28 30  1  0
 30 31  1  0
 26 32  1  0
 32 33  2  0
 32 34  1  0
 29 24  1  0
 34 13  1  0
M  END
$$$$
