
     RDKit          3D

 34 35  0  0  0  0  0  0  0  0999 V2000
  -14.8413  -34.4519  -11.7106 C   0  0  0  0  0  0  0  0  0  0  0  0
  -14.5047  -35.6136  -12.5995 C   0  0  0  0  0  0  0  0  0  0  0  0
  -15.5269  -36.7364  -12.3800 C   0  0  0  0  0  0  0  0  0  0  0  0
  -14.7760  -37.9237  -11.8211 C   0  0  0  0  0  0  0  0  0  0  0  0
  -14.7781  -37.9770  -10.3885 N   0  0  0  0  0  0  0  0  0  0  0  0
  -14.9459  -39.1889   -9.6668 C   0  0  0  0  0  0  0  0  0  0  0  0
  -15.6967  -40.0626  -10.1662 O   0  0  0  0  0  0  0  0  0  0  0  0
  -14.2253  -39.3451   -8.3721 C   0  0  2  0  0  0  0  0  0  0  0  0
  -12.9825  -40.1627   -8.6959 C   0  0  0  0  0  0  0  0  0  0  0  0
  -15.0673  -40.1775   -7.3953 C   0  0  0  0  0  0  0  0  0  0  0  0
  -16.4455  -39.6268   -7.3194 C   0  0  2  0  0  0  0  0  0  0  0  0
  -16.4005  -38.4664   -6.5638 O   0  0  0  0  0  0  0  0  0  0  0  0
  -17.5262  -40.5699   -6.9288 C   0  0  2  0  0  0  0  0  0  0  0  0
  -18.4846  -40.1126   -5.8947 C   0  0  0  0  0  0  0  0  0  0  0  0
  -19.3217  -38.9349   -6.1325 C   0  0  2  0  0  0  0  0  0  0  0  0
  -19.7255  -38.4118   -4.7344 C   0  0  0  0  0  0  0  0  0  0  0  0
  -20.5765  -39.0764   -6.9235 C   0  0  0  0  0  0  0  0  0  0  0  0
  -21.0697  -40.4605   -7.0913 C   0  0  0  0  0  0  0  0  0  0  0  0
  -22.5040  -40.5654   -7.5379 C   0  0  0  0  0  0  0  0  0  0  0  0
  -22.6961  -41.8452   -8.3626 C   0  0  0  0  0  0  0  0  0  0  0  0
  -22.9782  -43.0140   -7.4852 C   0  0  0  0  0  0  0  0  0  0  0  0
  -22.6767  -44.3624   -8.1186 C   0  0  0  0  0  0  0  0  0  0  0  0
  -21.5149  -44.3067   -8.9691 N   0  0  0  0  0  0  0  0  0  0  0  0
  -20.1194  -44.2360   -8.6669 C   0  0  0  0  0  0  0  0  0  0  0  0
  -19.4066  -43.5913   -7.6808 C   0  0  0  0  0  0  0  0  0  0  0  0
  -18.0220  -43.6738   -7.7483 C   0  0  0  0  0  0  0  0  0  0  0  0
  -17.4205  -44.4080   -8.7999 C   0  0  0  0  0  0  0  0  0  0  0  0
  -18.1455  -45.0503   -9.7750 C   0  0  0  0  0  0  0  0  0  0  0  0
  -19.4418  -44.9379   -9.6689 N   0  0  0  0  0  0  0  0  0  0  0  0
  -17.5062  -45.7636  -10.7922 O   0  0  0  0  0  0  0  0  0  0  0  0
  -18.2071  -46.4422  -11.7928 C   0  0  0  0  0  0  0  0  0  0  0  0
  -16.9675  -43.0550   -6.9273 C   0  0  0  0  0  0  0  0  0  0  0  0
  -15.9397  -43.8046   -6.6594 O   0  0  0  0  0  0  0  0  0  0  0  0
  -16.8674  -41.7648   -6.3683 N   0  0  0  0  0  0  0  0  0  0  0  0
  1  2  1  0
  2  3  1  0
  3  4  1  0
  4  5  1  0
  5  6  1  0
  6  7  2  0
  6  8  1  0
  8  9  1  6
  8 10  1  0
 10 11  1  0
 11 12  1  1
 11 13  1  0
 13 14  1  1
 14 15  1  0
 15 16  1  1
 15 17  1  0
 17 18  1  0
 18 19  1  0
 19 20  1  0
 20 21  1  0
 21 22  1  0
 22 23  1  0
 23 24  1  0
 24 25  2  0
 25 26  1  0
 26 27  2  0
 27 28  1  0
 28 29  2  0
 28 30  1  0
 30 31  1  0
 26 32  1  0
 32 33  2  0
 32 34  1  0
 29 24  1  0
 34 13  1  0
M  END
$$$$
