
     RDKit          3D

 34 35  0  0  0  0  0  0  0  0999 V2000
  -13.5895  -34.0474  -11.2275 C   0  0  0  0  0  0  0  0  0  0  0  0
  -13.8038  -35.3136  -12.0047 C   0  0  0  0  0  0  0  0  0  0  0  0
  -13.4465  -36.5184  -11.1248 C   0  0  0  0  0  0  0  0  0  0  0  0
  -14.2780  -37.6865  -11.6046 C   0  0  0  0  0  0  0  0  0  0  0  0
  -13.9697  -38.9180  -10.9384 N   0  0  0  0  0  0  0  0  0  0  0  0
  -14.9653  -39.7364  -10.3414 C   0  0  0  0  0  0  0  0  0  0  0  0
  -15.9753  -40.0188  -11.0316 O   0  0  0  0  0  0  0  0  0  0  0  0
  -14.7492  -40.2046   -8.9435 C   0  0  2  0  0  0  0  0  0  0  0  0
  -13.7719  -41.3671   -9.0517 C   0  0  0  0  0  0  0  0  0  0  0  0
  -16.0548  -40.7692   -8.3670 C   0  0  0  0  0  0  0  0  0  0  0  0
  -16.9045  -39.6607   -7.8593 C   0  0  2  0  0  0  0  0  0  0  0  0
  -16.1075  -38.8309   -7.0875 O   0  0  0  0  0  0  0  0  0  0  0  0
  -18.1929  -40.0386   -7.2212 C   0  0  2  0  0  0  0  0  0  0  0  0
  -19.0328  -38.9406   -6.6867 C   0  0  0  0  0  0  0  0  0  0  0  0
  -19.5484  -37.9022   -7.5812 C   0  0  2  0  0  0  0  0  0  0  0  0
  -19.8432  -36.6773   -6.6845 C   0  0  0  0  0  0  0  0  0  0  0  0
  -20.7808  -38.1666   -8.3760 C   0  0  0  0  0  0  0  0  0  0  0  0
  -21.5956  -39.3146   -7.9228 C   0  0  0  0  0  0  0  0  0  0  0  0
  -23.0009  -39.3386   -8.4634 C   0  0  0  0  0  0  0  0  0  0  0  0
  -23.4830  -40.7904   -8.5847 C   0  0  0  0  0  0  0  0  0  0  0  0
  -24.0644  -41.2737   -7.3025 C   0  0  0  0  0  0  0  0  0  0  0  0
  -24.0897  -42.7862   -7.1547 C   0  0  0  0  0  0  0  0  0  0  0  0
  -22.9306  -43.4018   -7.7495 N   0  0  0  0  0  0  0  0  0  0  0  0
  -21.5681  -43.4714   -7.3225 C   0  0  0  0  0  0  0  0  0  0  0  0
  -20.7414  -42.5768   -6.6802 C   0  0  0  0  0  0  0  0  0  0  0  0
  -19.4186  -42.9591   -6.5000 C   0  0  0  0  0  0  0  0  0  0  0  0
  -18.9922  -44.2266   -6.9672 C   0  0  0  0  0  0  0  0  0  0  0  0
  -19.8303  -45.1112   -7.6028 C   0  0  0  0  0  0  0  0  0  0  0  0
  -21.0611  -44.7022   -7.7515 N   0  0  0  0  0  0  0  0  0  0  0  0
  -19.3630  -46.3515   -8.0449 O   0  0  0  0  0  0  0  0  0  0  0  0
  -20.1154  -47.5240   -7.9345 C   0  0  0  0  0  0  0  0  0  0  0  0
  -18.2635  -42.2382   -5.9388 C   0  0  0  0  0  0  0  0  0  0  0  0
  -17.4584  -42.9402   -5.1978 O   0  0  0  0  0  0  0  0  0  0  0  0
  -17.8617  -40.8929   -6.0653 N   0  0  0  0  0  0  0  0  0  0  0  0
  1  2  1  0
  2  3  1  0
  3  4  1  0
  4  5  1  0
  5  6  1  0
  6  7  2  0
  6  8  1  0
  8  9  1  6
  8 10  1  0
 10 11  1  0
 11 12  1  1
 11 13  1  0
 13 14  1  1
 14 15  1  0
 15 16  1  1
 15 17  1  0
 17 18  1  0
 18 19  1  0
 19 20  1  0
 20 21  1  0
 21 22  1  0
 22 23  1  0
 23 24  1  0
 24 25  2  0
 25 26  1  0
 26 27  2  0
 27 28  1  0
 28 29  2  0
 28 30  1  0
 30 31  1  0
 26 32  1  0
 32 33  2  0
 32 34  1  0
 29 24  1  0
 34 13  1  0
M  END
$$$$
