
     RDKit          3D

 34 35  0  0  0  0  0  0  0  0999 V2000
  -10.5790  -38.5853  -13.8985 C   0  0  0  0  0  0  0  0  0  0  0  0
  -11.6896  -38.0419  -13.0476 C   0  0  0  0  0  0  0  0  0  0  0  0
  -11.2288  -37.9816  -11.5855 C   0  0  0  0  0  0  0  0  0  0  0  0
  -12.4267  -37.5825  -10.7538 C   0  0  0  0  0  0  0  0  0  0  0  0
  -13.6617  -37.6123  -11.4812 N   0  0  0  0  0  0  0  0  0  0  0  0
  -14.6500  -38.6110  -11.2728 C   0  0  0  0  0  0  0  0  0  0  0  0
  -14.9614  -39.3328  -12.2518 O   0  0  0  0  0  0  0  0  0  0  0  0
  -15.2503  -38.7375   -9.9149 C   0  0  2  0  0  0  0  0  0  0  0  0
  -14.3034  -39.6398   -9.1356 C   0  0  0  0  0  0  0  0  0  0  0  0
  -16.5977  -39.4677   -9.9984 C   0  0  0  0  0  0  0  0  0  0  0  0
  -17.4875  -39.0147   -8.8977 C   0  0  2  0  0  0  0  0  0  0  0  0
  -16.8638  -37.9598   -8.2513 O   0  0  0  0  0  0  0  0  0  0  0  0
  -18.0183  -40.0628   -7.9869 C   0  0  2  0  0  0  0  0  0  0  0  0
  -18.0490  -39.7505   -6.5384 C   0  0  0  0  0  0  0  0  0  0  0  0
  -18.8482  -38.6287   -6.0412 C   0  0  2  0  0  0  0  0  0  0  0  0
  -18.2240  -38.2316   -4.6833 C   0  0  0  0  0  0  0  0  0  0  0  0
  -20.3085  -38.8157   -5.8110 C   0  0  0  0  0  0  0  0  0  0  0  0
  -20.7677  -40.2201   -5.7485 C   0  0  0  0  0  0  0  0  0  0  0  0
  -22.1324  -40.4072   -5.1401 C   0  0  0  0  0  0  0  0  0  0  0  0
  -22.8070  -41.6413   -5.7540 C   0  0  0  0  0  0  0  0  0  0  0  0
  -22.4149  -42.8836   -5.0339 C   0  0  0  0  0  0  0  0  0  0  0  0
  -22.5932  -44.1598   -5.8398 C   0  0  0  0  0  0  0  0  0  0  0  0
  -22.2960  -43.9579   -7.2352 N   0  0  0  0  0  0  0  0  0  0  0  0
  -21.0560  -43.7985   -7.9285 C   0  0  0  0  0  0  0  0  0  0  0  0
  -19.8766  -43.1661   -7.6040 C   0  0  0  0  0  0  0  0  0  0  0  0
  -18.8891  -43.1356   -8.5798 C   0  0  0  0  0  0  0  0  0  0  0  0
  -19.1319  -43.7500   -9.8329 C   0  0  0  0  0  0  0  0  0  0  0  0
  -20.3130  -44.3816  -10.1409 C   0  0  0  0  0  0  0  0  0  0  0  0
  -21.2095  -44.3781   -9.1919 N   0  0  0  0  0  0  0  0  0  0  0  0
  -20.5050  -44.9746  -11.3914 O   0  0  0  0  0  0  0  0  0  0  0  0
  -21.7721  -45.2867  -11.8916 C   0  0  0  0  0  0  0  0  0  0  0  0
  -17.5650  -42.4914   -8.6068 C   0  0  0  0  0  0  0  0  0  0  0  0
  -16.6099  -43.1744   -9.1647 O   0  0  0  0  0  0  0  0  0  0  0  0
  -17.1363  -41.2367   -8.1281 N   0  0  0  0  0  0  0  0  0  0  0  0
  1  2  1  0
  2  3  1  0
  3  4  1  0
  4  5  1  0
  5  6  1  0
  6  7  2  0
  6  8  1  0
  8  9  1  1
  8 10  1  0
 10 11  1  0
 11 12  1  1
 11 13  1  0
 13 14  1  1
 14 15  1  0
 15 16  1  1
 15 17  1  0
 17 18  1  0
 18 19  1  0
 19 20  1  0
 20 21  1  0
 21 22  1  0
 22 23  1  0
 23 24  1  0
 24 25  2  0
 25 26  1  0
 26 27  2  0
 27 28  1  0
 28 29  2  0
 28 30  1  0
 30 31  1  0
 26 32  1  0
 32 33  2  0
 32 34  1  0
 29 24  1  0
 34 13  1  0
M  END
$$$$
