
     RDKit          3D

 34 35  0  0  0  0  0  0  0  0999 V2000
  -11.5412  -37.4657  -14.2056 C   0  0  0  0  0  0  0  0  0  0  0  0
  -12.1499  -36.4287  -13.3072 C   0  0  0  0  0  0  0  0  0  0  0  0
  -12.1383  -36.9377  -11.8600 C   0  0  0  0  0  0  0  0  0  0  0  0
  -13.5438  -36.7922  -11.3220 C   0  0  0  0  0  0  0  0  0  0  0  0
  -13.8210  -37.6537  -10.2102 N   0  0  0  0  0  0  0  0  0  0  0  0
  -13.9744  -39.0589  -10.3490 C   0  0  0  0  0  0  0  0  0  0  0  0
  -13.9365  -39.5351  -11.5101 O   0  0  0  0  0  0  0  0  0  0  0  0
  -14.1692  -39.8730   -9.1163 C   0  0  2  0  0  0  0  0  0  0  0  0
  -13.2229  -41.0572   -9.2588 C   0  0  0  0  0  0  0  0  0  0  0  0
  -15.5946  -40.4407   -9.0773 C   0  0  0  0  0  0  0  0  0  0  0  0
  -16.5054  -39.4754   -8.4088 C   0  0  2  0  0  0  0  0  0  0  0  0
  -15.7314  -38.6175   -7.6442 O   0  0  0  0  0  0  0  0  0  0  0  0
  -17.6791  -40.0421   -7.6939 C   0  0  2  0  0  0  0  0  0  0  0  0
  -18.3967  -39.1489   -6.7536 C   0  0  0  0  0  0  0  0  0  0  0  0
  -19.0305  -37.9212   -7.2389 C   0  0  2  0  0  0  0  0  0  0  0  0
  -19.1484  -36.9899   -6.0101 C   0  0  0  0  0  0  0  0  0  0  0  0
  -20.3819  -37.9923   -7.8625 C   0  0  0  0  0  0  0  0  0  0  0  0
  -21.1350  -39.2394   -7.6078 C   0  0  0  0  0  0  0  0  0  0  0  0
  -22.6101  -39.1515   -7.8973 C   0  0  0  0  0  0  0  0  0  0  0  0
  -23.1358  -40.5286   -8.3241 C   0  0  0  0  0  0  0  0  0  0  0  0
  -23.5088  -41.3527   -7.1420 C   0  0  0  0  0  0  0  0  0  0  0  0
  -23.5409  -42.8494   -7.4044 C   0  0  0  0  0  0  0  0  0  0  0  0
  -22.5084  -43.2541   -8.3243 N   0  0  0  0  0  0  0  0  0  0  0  0
  -21.0960  -43.4026   -8.1609 C   0  0  0  0  0  0  0  0  0  0  0  0
  -20.1566  -42.6937   -7.4460 C   0  0  0  0  0  0  0  0  0  0  0  0
  -18.8304  -43.0779   -7.5943 C   0  0  0  0  0  0  0  0  0  0  0  0
  -18.5131  -44.1625   -8.4486 C   0  0  0  0  0  0  0  0  0  0  0  0
  -19.4624  -44.8639   -9.1526 C   0  0  0  0  0  0  0  0  0  0  0  0
  -20.6921  -44.4601   -8.9821 N   0  0  0  0  0  0  0  0  0  0  0  0
  -19.1001  -45.9280   -9.9824 O   0  0  0  0  0  0  0  0  0  0  0  0
  -19.9029  -47.0592  -10.1524 C   0  0  0  0  0  0  0  0  0  0  0  0
  -17.5840  -42.5064   -7.0569 C   0  0  0  0  0  0  0  0  0  0  0  0
  -16.6830  -43.3619   -6.6742 O   0  0  0  0  0  0  0  0  0  0  0  0
  -17.1805  -41.1673   -6.8808 N   0  0  0  0  0  0  0  0  0  0  0  0
  1  2  1  0
  2  3  1  0
  3  4  1  0
  4  5  1  0
  5  6  1  0
  6  7  2  0
  6  8  1  0
  8  9  1  6
  8 10  1  0
 10 11  1  0
 11 12  1  1
 11 13  1  0
 13 14  1  1
 14 15  1  0
 15 16  1  1
 15 17  1  0
 17 18  1  0
 18 19  1  0
 19 20  1  0
 20 21  1  0
 21 22  1  0
 22 23  1  0
 23 24  1  0
 24 25  2  0
 25 26  1  0
 26 27  2  0
 27 28  1  0
 28 29  2  0
 28 30  1  0
 30 31  1  0
 26 32  1  0
 32 33  2  0
 32 34  1  0
 29 24  1  0
 34 13  1  0
M  END
$$$$
