
     RDKit          3D

 34 35  0  0  0  0  0  0  0  0999 V2000
  -12.8848  -35.3041  -13.9152 C   0  0  0  0  0  0  0  0  0  0  0  0
  -13.4873  -36.6412  -13.5954 C   0  0  0  0  0  0  0  0  0  0  0  0
  -13.0778  -37.0587  -12.1771 C   0  0  0  0  0  0  0  0  0  0  0  0
  -14.3210  -37.0077  -11.3180 C   0  0  0  0  0  0  0  0  0  0  0  0
  -14.2576  -37.8661  -10.1715 N   0  0  0  0  0  0  0  0  0  0  0  0
  -14.3387  -39.2809  -10.2679 C   0  0  0  0  0  0  0  0  0  0  0  0
  -13.9781  -39.8108  -11.3475 O   0  0  0  0  0  0  0  0  0  0  0  0
  -14.8431  -40.0410   -9.0898 C   0  0  2  0  0  0  0  0  0  0  0  0
  -13.9084  -41.2343   -8.9467 C   0  0  0  0  0  0  0  0  0  0  0  0
  -16.2424  -40.6002   -9.3808 C   0  0  0  0  0  0  0  0  0  0  0  0
  -16.9096  -40.9809   -8.1087 C   0  0  2  0  0  0  0  0  0  0  0  0
  -17.1021  -42.3529   -8.1216 O   0  0  0  0  0  0  0  0  0  0  0  0
  -18.1116  -40.1979   -7.7188 C   0  0  2  0  0  0  0  0  0  0  0  0
  -18.6110  -39.1941   -8.6882 C   0  0  0  0  0  0  0  0  0  0  0  0
  -19.0653  -39.6117  -10.0162 C   0  0  2  0  0  0  0  0  0  0  0  0
  -18.9495  -38.3605  -10.9175 C   0  0  0  0  0  0  0  0  0  0  0  0
  -20.4476  -40.1424  -10.1836 C   0  0  0  0  0  0  0  0  0  0  0  0
  -21.3766  -39.8600   -9.0680 C   0  0  0  0  0  0  0  0  0  0  0  0
  -22.8330  -40.0459   -9.4024 C   0  0  0  0  0  0  0  0  0  0  0  0
  -23.6035  -40.4613   -8.1419 C   0  0  0  0  0  0  0  0  0  0  0  0
  -24.0291  -39.2720   -7.3545 C   0  0  0  0  0  0  0  0  0  0  0  0
  -24.3227  -39.5595   -5.8912 C   0  0  0  0  0  0  0  0  0  0  0  0
  -23.4319  -40.5555   -5.3520 N   0  0  0  0  0  0  0  0  0  0  0  0
  -22.0554  -40.4922   -4.9717 C   0  0  0  0  0  0  0  0  0  0  0  0
  -20.9684  -39.8302   -5.4976 C   0  0  0  0  0  0  0  0  0  0  0  0
  -19.7354  -40.0764   -4.9081 C   0  0  0  0  0  0  0  0  0  0  0  0
  -19.6557  -40.9705   -3.8122 C   0  0  0  0  0  0  0  0  0  0  0  0
  -20.7506  -41.6207   -3.2951 C   0  0  0  0  0  0  0  0  0  0  0  0
  -21.8840  -41.3588   -3.8876 N   0  0  0  0  0  0  0  0  0  0  0  0
  -20.6217  -42.4932   -2.2114 O   0  0  0  0  0  0  0  0  0  0  0  0
  -21.4626  -42.4404   -1.0964 C   0  0  0  0  0  0  0  0  0  0  0  0
  -18.3802  -39.6151   -5.2539 C   0  0  0  0  0  0  0  0  0  0  0  0
  -17.6085  -39.3113   -4.2527 O   0  0  0  0  0  0  0  0  0  0  0  0
  -17.7524  -39.4421   -6.5041 N   0  0  0  0  0  0  0  0  0  0  0  0
  1  2  1  0
  2  3  1  0
  3  4  1  0
  4  5  1  0
  5  6  1  0
  6  7  2  0
  6  8  1  0
  8  9  1  6
  8 10  1  0
 10 11  1  0
 11 12  1  6
 11 13  1  0
 13 14  1  6
 14 15  1  0
 15 16  1  6
 15 17  1  0
 17 18  1  0
 18 19  1  0
 19 20  1  0
 20 21  1  0
 21 22  1  0
 22 23  1  0
 23 24  1  0
 24 25  2  0
 25 26  1  0
 26 27  2  0
 27 28  1  0
 28 29  2  0
 28 30  1  0
 30 31  1  0
 26 32  1  0
 32 33  2  0
 32 34  1  0
 29 24  1  0
 34 13  1  0
M  END
$$$$
