
     RDKit          3D

 34 35  0  0  0  0  0  0  0  0999 V2000
  -15.3629  -35.2098  -12.0885 C   0  0  0  0  0  0  0  0  0  0  0  0
  -14.7116  -35.3049  -10.7395 C   0  0  0  0  0  0  0  0  0  0  0  0
  -13.2646  -35.7870  -10.9049 C   0  0  0  0  0  0  0  0  0  0  0  0
  -13.1028  -37.0225  -10.0485 C   0  0  0  0  0  0  0  0  0  0  0  0
  -13.5567  -38.2229  -10.6876 N   0  0  0  0  0  0  0  0  0  0  0  0
  -14.8888  -38.7004  -10.5640 C   0  0  0  0  0  0  0  0  0  0  0  0
  -15.6899  -38.4326  -11.4929 O   0  0  0  0  0  0  0  0  0  0  0  0
  -15.2481  -39.4832   -9.3483 C   0  0  2  0  0  0  0  0  0  0  0  0
  -13.9605  -40.1689   -8.9123 C   0  0  0  0  0  0  0  0  0  0  0  0
  -16.2462  -40.5920   -9.7091 C   0  0  0  0  0  0  0  0  0  0  0  0
  -17.6365  -40.0860   -9.5697 C   0  0  2  0  0  0  0  0  0  0  0  0
  -17.6350  -38.7390   -9.8940 O   0  0  0  0  0  0  0  0  0  0  0  0
  -18.3468  -40.4101   -8.3047 C   0  0  2  0  0  0  0  0  0  0  0  0
  -18.9894  -39.2878   -7.5808 C   0  0  0  0  0  0  0  0  0  0  0  0
  -20.0561  -38.5123   -8.2173 C   0  0  2  0  0  0  0  0  0  0  0  0
  -20.0782  -37.1463   -7.4929 C   0  0  0  0  0  0  0  0  0  0  0  0
  -21.4510  -39.0360   -8.2015 C   0  0  0  0  0  0  0  0  0  0  0  0
  -21.7143  -40.1145   -7.2243 C   0  0  0  0  0  0  0  0  0  0  0  0
  -23.1725  -40.3616   -6.9407 C   0  0  0  0  0  0  0  0  0  0  0  0
  -23.3848  -41.8366   -6.5745 C   0  0  0  0  0  0  0  0  0  0  0  0
  -23.1558  -42.0692   -5.1222 C   0  0  0  0  0  0  0  0  0  0  0  0
  -22.8355  -43.5100   -4.7595 C   0  0  0  0  0  0  0  0  0  0  0  0
  -22.0373  -44.1525   -5.7727 N   0  0  0  0  0  0  0  0  0  0  0  0
  -20.6554  -44.0246   -6.1154 C   0  0  0  0  0  0  0  0  0  0  0  0
  -19.7926  -42.9516   -6.1412 C   0  0  0  0  0  0  0  0  0  0  0  0
  -18.5116  -43.1849   -6.6238 C   0  0  0  0  0  0  0  0  0  0  0  0
  -18.1567  -44.4885   -7.0500 C   0  0  0  0  0  0  0  0  0  0  0  0
  -19.0277  -45.5510   -7.0141 C   0  0  0  0  0  0  0  0  0  0  0  0
  -20.2196  -45.2780   -6.5570 N   0  0  0  0  0  0  0  0  0  0  0  0
  -18.6304  -46.8196   -7.4446 O   0  0  0  0  0  0  0  0  0  0  0  0
  -19.5397  -47.8526   -7.6877 C   0  0  0  0  0  0  0  0  0  0  0  0
  -17.3794  -42.2741   -6.8634 C   0  0  0  0  0  0  0  0  0  0  0  0
  -16.2027  -42.7343   -6.5571 O   0  0  0  0  0  0  0  0  0  0  0  0
  -17.3395  -40.9631   -7.3798 N   0  0  0  0  0  0  0  0  0  0  0  0
  1  2  1  0
  2  3  1  0
  3  4  1  0
  4  5  1  0
  5  6  1  0
  6  7  2  0
  6  8  1  0
  8  9  1  6
  8 10  1  0
 10 11  1  0
 11 12  1  1
 11 13  1  0
 13 14  1  1
 14 15  1  0
 15 16  1  1
 15 17  1  0
 17 18  1  0
 18 19  1  0
 19 20  1  0
 20 21  1  0
 21 22  1  0
 22 23  1  0
 23 24  1  0
 24 25  2  0
 25 26  1  0
 26 27  2  0
 27 28  1  0
 28 29  2  0
 28 30  1  0
 30 31  1  0
 26 32  1  0
 32 33  2  0
 32 34  1  0
 29 24  1  0
 34 13  1  0
M  END
$$$$
