
     RDKit          3D

 36 38  0  0  0  0  0  0  0  0999 V2000
  -21.1453  -38.2856   -5.5495 C   0  0  0  0  0  0  0  0  0  0  0  0
  -22.1679  -38.9832   -6.4248 C   0  0  0  0  0  0  0  0  0  0  0  0
  -22.6893  -40.1712   -5.6069 C   0  0  0  0  0  0  0  0  0  0  0  0
  -21.5484  -39.4651   -7.6906 C   0  0  0  0  0  0  0  0  0  0  0  0
  -22.1828  -39.1613   -8.8734 C   0  0  0  0  0  0  0  0  0  0  0  0
  -21.6710  -39.5629  -10.0695 C   0  0  0  0  0  0  0  0  0  0  0  0
  -20.4800  -40.2951  -10.0713 C   0  0  0  0  0  0  0  0  0  0  0  0
  -19.8167  -40.6193   -8.9201 C   0  0  0  0  0  0  0  0  0  0  0  0
  -18.5585  -41.3850   -8.9763 C   0  0  0  0  0  0  0  0  0  0  0  0
  -17.5801  -41.0453   -8.0045 N   0  0  0  0  0  0  0  0  0  0  0  0
  -17.5927  -39.7312   -7.4815 C   0  0  0  0  0  0  0  0  0  0  0  0
  -16.2940  -39.0145   -7.4055 C   0  0  1  0  0  0  0  0  0  0  0  0
  -15.2307  -39.7493   -6.8980 O   0  0  0  0  0  0  0  0  0  0  0  0
  -15.8241  -38.3986   -8.7209 C   0  0  2  0  0  0  0  0  0  0  0  0
  -16.1517  -36.9423   -8.6924 C   0  0  0  0  0  0  0  0  0  0  0  0
  -15.8491  -36.2001   -9.9752 C   0  0  2  0  0  0  0  0  0  0  0  0
  -16.7129  -36.5829  -11.1224 C   0  0  0  0  0  0  0  0  0  0  0  0
  -14.3711  -36.1918  -10.2399 C   0  0  0  0  0  0  0  0  0  0  0  0
  -13.9806  -35.3562  -11.4091 C   0  0  0  0  0  0  0  0  0  0  0  0
  -12.8517  -36.0273  -12.1812 C   0  0  0  0  0  0  0  0  0  0  0  0
  -13.1967  -36.1797  -13.6408 C   0  0  0  0  0  0  0  0  0  0  0  0
  -11.9369  -36.3424  -14.4317 C   0  0  0  0  0  0  0  0  0  0  0  0
  -11.1250  -37.5353  -13.9940 C   0  0  0  0  0  0  0  0  0  0  0  0
  -11.7665  -38.8614  -14.3314 C   0  0  0  0  0  0  0  0  0  0  0  0
  -11.8275  -39.6347  -13.1369 N   0  0  0  0  0  0  0  0  0  0  0  0
  -12.9296  -40.1636  -12.3823 C   0  0  0  0  0  0  0  0  0  0  0  0
  -14.0870  -39.6024  -11.8985 C   0  0  0  0  0  0  0  0  0  0  0  0
  -14.9275  -40.4195  -11.1752 C   0  0  0  0  0  0  0  0  0  0  0  0
  -14.5554  -41.7773  -10.9777 C   0  0  0  0  0  0  0  0  0  0  0  0
  -13.4008  -42.3317  -11.4638 C   0  0  0  0  0  0  0  0  0  0  0  0
  -13.0644  -43.7666  -11.2217 C   0  0  0  0  0  0  0  0  0  0  0  0
  -12.6363  -41.5021  -12.1451 N   0  0  0  0  0  0  0  0  0  0  0  0
  -16.2062  -40.1716  -10.5068 C   0  0  0  0  0  0  0  0  0  0  0  0
  -17.1585  -41.0855  -10.5812 O   0  0  0  0  0  0  0  0  0  0  0  0
  -16.6668  -39.0703   -9.7350 N   0  0  0  0  0  0  0  0  0  0  0  0
  -20.3718  -40.1912   -7.7236 C   0  0  0  0  0  0  0  0  0  0  0  0
  1  2  1  0
  2  3  1  0
  2  4  1  0
  4  5  2  0
  5  6  1  0
  6  7  2  0
  7  8  1  0
  8  9  1  0
  9 10  1  0
 10 11  1  0
 11 12  1  0
 12 13  1  6
 12 14  1  0
 14 15  1  1
 15 16  1  0
 16 17  1  6
 16 18  1  0
 18 19  1  0
 19 20  1  0
 20 21  1  0
 21 22  1  0
 22 23  1  0
 23 24  1  0
 24 25  1  0
 25 26  1  0
 26 27  2  0
 27 28  1  0
 28 29  2  0
 29 30  1  0
 30 31  1  0
 30 32  2  0
 28 33  1  0
 33 34  2  0
 33 35  1  0
  8 36  2  0
 32 26  1  0
 35 14  1  0
 36  4  1  0
M  END
$$$$
