
     RDKit          3D

 36 38  0  0  0  0  0  0  0  0999 V2000
  -24.1927  -40.1795  -10.0828 C   0  0  0  0  0  0  0  0  0  0  0  0
  -24.0525  -39.1966   -8.9370 C   0  0  0  0  0  0  0  0  0  0  0  0
  -24.2428  -37.8020   -9.5462 C   0  0  0  0  0  0  0  0  0  0  0  0
  -22.7078  -39.3005   -8.3050 C   0  0  0  0  0  0  0  0  0  0  0  0
  -22.5411  -40.2209   -7.2957 C   0  0  0  0  0  0  0  0  0  0  0  0
  -21.3383  -40.3761   -6.6768 C   0  0  0  0  0  0  0  0  0  0  0  0
  -20.2692  -39.5756   -7.0902 C   0  0  0  0  0  0  0  0  0  0  0  0
  -20.3903  -38.6487   -8.0884 C   0  0  0  0  0  0  0  0  0  0  0  0
  -19.2297  -37.8359   -8.4945 C   0  0  0  0  0  0  0  0  0  0  0  0
  -18.1802  -37.7320   -7.5433 N   0  0  0  0  0  0  0  0  0  0  0  0
  -17.5215  -38.9202   -7.1495 C   0  0  0  0  0  0  0  0  0  0  0  0
  -16.0432  -38.9588   -7.2874 C   0  0  1  0  0  0  0  0  0  0  0  0
  -15.3273  -38.9186   -6.0982 O   0  0  0  0  0  0  0  0  0  0  0  0
  -15.5054  -40.1387   -8.0930 C   0  0  2  0  0  0  0  0  0  0  0  0
  -14.1285  -39.7934   -8.5554 C   0  0  0  0  0  0  0  0  0  0  0  0
  -13.4910  -40.8186   -9.4666 C   0  0  2  0  0  0  0  0  0  0  0  0
  -14.1333  -40.9348  -10.8017 C   0  0  0  0  0  0  0  0  0  0  0  0
  -13.2685  -42.1082   -8.7302 C   0  0  0  0  0  0  0  0  0  0  0  0
  -12.5125  -43.1206   -9.5182 C   0  0  0  0  0  0  0  0  0  0  0  0
  -13.0688  -44.5142   -9.2546 C   0  0  0  0  0  0  0  0  0  0  0  0
  -13.4339  -45.2139  -10.5391 C   0  0  0  0  0  0  0  0  0  0  0  0
  -13.4723  -46.6910  -10.3031 C   0  0  0  0  0  0  0  0  0  0  0  0
  -14.4605  -47.0841   -9.2341 C   0  0  0  0  0  0  0  0  0  0  0  0
  -15.9028  -46.8913   -9.6422 C   0  0  0  0  0  0  0  0  0  0  0  0
  -16.5408  -46.1080   -8.6383 N   0  0  0  0  0  0  0  0  0  0  0  0
  -17.1584  -44.8114   -8.6703 C   0  0  0  0  0  0  0  0  0  0  0  0
  -16.7460  -43.5903   -9.1473 C   0  0  0  0  0  0  0  0  0  0  0  0
  -17.6064  -42.5275   -8.9823 C   0  0  0  0  0  0  0  0  0  0  0  0
  -18.8549  -42.7537   -8.3409 C   0  0  0  0  0  0  0  0  0  0  0  0
  -19.2613  -43.9738   -7.8687 C   0  0  0  0  0  0  0  0  0  0  0  0
  -20.5863  -44.1481   -7.2017 C   0  0  0  0  0  0  0  0  0  0  0  0
  -18.3965  -44.9511   -8.0526 N   0  0  0  0  0  0  0  0  0  0  0  0
  -17.5010  -41.1113   -9.3382 C   0  0  0  0  0  0  0  0  0  0  0  0
  -18.5617  -40.4897   -9.8241 O   0  0  0  0  0  0  0  0  0  0  0  0
  -16.4130  -40.1998   -9.2601 N   0  0  0  0  0  0  0  0  0  0  0  0
  -21.6322  -38.5224   -8.6925 C   0  0  0  0  0  0  0  0  0  0  0  0
  1  2  1  0
  2  3  1  0
  2  4  1  0
  4  5  2  0
  5  6  1  0
  6  7  2  0
  7  8  1  0
  8  9  1  0
  9 10  1  0
 10 11  1  0
 11 12  1  0
 12 13  1  1
 12 14  1  0
 14 15  1  6
 15 16  1  0
 16 17  1  6
 16 18  1  0
 18 19  1  0
 19 20  1  0
 20 21  1  0
 21 22  1  0
 22 23  1  0
 23 24  1  0
 24 25  1  0
 25 26  1  0
 26 27  2  0
 27 28  1  0
 28 29  2  0
 29 30  1  0
 30 31  1  0
 30 32  2  0
 28 33  1  0
 33 34  2  0
 33 35  1  0
  8 36  2  0
 32 26  1  0
 35 14  1  0
 36  4  1  0
M  END
$$$$
