
     RDKit          3D

 36 38  0  0  0  0  0  0  0  0999 V2000
  -24.8065  -35.8778   -9.4285 C   0  0  0  0  0  0  0  0  0  0  0  0
  -24.0755  -36.9592   -8.6573 C   0  0  0  0  0  0  0  0  0  0  0  0
  -23.6795  -36.3318   -7.3151 C   0  0  0  0  0  0  0  0  0  0  0  0
  -22.8600  -37.4099   -9.3907 C   0  0  0  0  0  0  0  0  0  0  0  0
  -22.9967  -38.4453  -10.2869 C   0  0  0  0  0  0  0  0  0  0  0  0
  -21.9307  -38.9055  -10.9980 C   0  0  0  0  0  0  0  0  0  0  0  0
  -20.6862  -38.3009  -10.7974 C   0  0  0  0  0  0  0  0  0  0  0  0
  -20.5050  -37.2701   -9.9171 C   0  0  0  0  0  0  0  0  0  0  0  0
  -19.1739  -36.6598   -9.7492 C   0  0  0  0  0  0  0  0  0  0  0  0
  -18.0652  -37.4906  -10.0614 N   0  0  0  0  0  0  0  0  0  0  0  0
  -17.9157  -38.6970   -9.3383 C   0  0  0  0  0  0  0  0  0  0  0  0
  -16.6526  -38.8862   -8.5801 C   0  0  1  0  0  0  0  0  0  0  0  0
  -16.7158  -38.5928   -7.2242 O   0  0  0  0  0  0  0  0  0  0  0  0
  -16.0299  -40.2739   -8.7084 C   0  0  2  0  0  0  0  0  0  0  0  0
  -14.5572  -40.1050   -8.8865 C   0  0  0  0  0  0  0  0  0  0  0  0
  -13.7988  -41.3888   -9.1406 C   0  0  2  0  0  0  0  0  0  0  0  0
  -14.0929  -42.0245  -10.4514 C   0  0  0  0  0  0  0  0  0  0  0  0
  -13.8762  -42.2896   -7.9417 C   0  0  0  0  0  0  0  0  0  0  0  0
  -13.0335  -43.5116   -8.0601 C   0  0  0  0  0  0  0  0  0  0  0  0
  -13.7519  -44.7069   -7.4469 C   0  0  0  0  0  0  0  0  0  0  0  0
  -13.8399  -45.8554   -8.4195 C   0  0  0  0  0  0  0  0  0  0  0  0
  -14.0589  -47.1277   -7.6628 C   0  0  0  0  0  0  0  0  0  0  0  0
  -15.3128  -47.0985   -6.8258 C   0  0  0  0  0  0  0  0  0  0  0  0
  -16.5854  -47.1082   -7.6409 C   0  0  0  0  0  0  0  0  0  0  0  0
  -17.3876  -46.0118   -7.2133 N   0  0  0  0  0  0  0  0  0  0  0  0
  -17.8674  -44.8411   -7.8936 C   0  0  0  0  0  0  0  0  0  0  0  0
  -17.2485  -43.8902   -8.6691 C   0  0  0  0  0  0  0  0  0  0  0  0
  -18.0315  -42.8642   -9.1503 C   0  0  0  0  0  0  0  0  0  0  0  0
  -19.4153  -42.8516   -8.8245 C   0  0  0  0  0  0  0  0  0  0  0  0
  -20.0271  -43.8033   -8.0520 C   0  0  0  0  0  0  0  0  0  0  0  0
  -21.4868  -43.7345   -7.7433 C   0  0  0  0  0  0  0  0  0  0  0  0
  -19.2281  -44.7576   -7.6187 N   0  0  0  0  0  0  0  0  0  0  0  0
  -17.7228  -41.6931   -9.9729 C   0  0  0  0  0  0  0  0  0  0  0  0
  -18.5722  -41.3294  -10.9183 O   0  0  0  0  0  0  0  0  0  0  0  0
  -16.6174  -40.7995   -9.9607 N   0  0  0  0  0  0  0  0  0  0  0  0
  -21.6164  -36.8316   -9.2130 C   0  0  0  0  0  0  0  0  0  0  0  0
  1  2  1  0
  2  3  1  0
  2  4  1  0
  4  5  2  0
  5  6  1  0
  6  7  2  0
  7  8  1  0
  8  9  1  0
  9 10  1  0
 10 11  1  0
 11 12  1  0
 12 13  1  1
 12 14  1  0
 14 15  1  6
 15 16  1  0
 16 17  1  6
 16 18  1  0
 18 19  1  0
 19 20  1  0
 20 21  1  0
 21 22  1  0
 22 23  1  0
 23 24  1  0
 24 25  1  0
 25 26  1  0
 26 27  2  0
 27 28  1  0
 28 29  2  0
 29 30  1  0
 30 31  1  0
 30 32  2  0
 28 33  1  0
 33 34  2  0
 33 35  1  0
  8 36  2  0
 32 26  1  0
 35 14  1  0
 36  4  1  0
M  END
$$$$
