
     RDKit          3D

 36 38  0  0  0  0  0  0  0  0999 V2000
  -10.5759  -43.1629  -11.3947 C   0  0  0  0  0  0  0  0  0  0  0  0
  -11.1243  -42.2717  -10.2976 C   0  0  0  0  0  0  0  0  0  0  0  0
  -11.5442  -43.2081   -9.1579 C   0  0  0  0  0  0  0  0  0  0  0  0
  -12.2985  -41.4921  -10.7791 C   0  0  0  0  0  0  0  0  0  0  0  0
  -13.1021  -42.0659  -11.7376 C   0  0  0  0  0  0  0  0  0  0  0  0
  -14.1965  -41.4150  -12.2198 C   0  0  0  0  0  0  0  0  0  0  0  0
  -14.4888  -40.1432  -11.7180 C   0  0  0  0  0  0  0  0  0  0  0  0
  -13.7178  -39.5355  -10.7659 C   0  0  0  0  0  0  0  0  0  0  0  0
  -14.0744  -38.1970  -10.2622 C   0  0  0  0  0  0  0  0  0  0  0  0
  -14.8060  -38.1653   -9.0453 N   0  0  0  0  0  0  0  0  0  0  0  0
  -16.0817  -38.7755   -9.0219 C   0  0  0  0  0  0  0  0  0  0  0  0
  -17.2505  -37.9031   -8.7414 C   0  0  1  0  0  0  0  0  0  0  0  0
  -17.7235  -37.1668   -9.8196 O   0  0  0  0  0  0  0  0  0  0  0  0
  -18.4513  -38.6182   -8.1275 C   0  0  2  0  0  0  0  0  0  0  0  0
  -19.4529  -37.5840   -7.7325 C   0  0  0  0  0  0  0  0  0  0  0  0
  -20.6639  -38.1216   -7.0029 C   0  0  2  0  0  0  0  0  0  0  0  0
  -20.3745  -38.6561   -5.6468 C   0  0  0  0  0  0  0  0  0  0  0  0
  -21.4647  -39.0163   -7.9045 C   0  0  0  0  0  0  0  0  0  0  0  0
  -22.7500  -39.4695   -7.3043 C   0  0  0  0  0  0  0  0  0  0  0  0
  -23.0296  -40.9162   -7.6914 C   0  0  0  0  0  0  0  0  0  0  0  0
  -23.2845  -41.7723   -6.4769 C   0  0  0  0  0  0  0  0  0  0  0  0
  -24.0399  -42.9975   -6.8862 C   0  0  0  0  0  0  0  0  0  0  0  0
  -23.3052  -43.8171   -7.9168 C   0  0  0  0  0  0  0  0  0  0  0  0
  -22.0656  -44.4949   -7.3802 C   0  0  0  0  0  0  0  0  0  0  0  0
  -20.9760  -44.1515   -8.2307 N   0  0  0  0  0  0  0  0  0  0  0  0
  -19.7544  -43.4333   -7.9955 C   0  0  0  0  0  0  0  0  0  0  0  0
  -19.4798  -42.2220   -7.4071 C   0  0  0  0  0  0  0  0  0  0  0  0
  -18.1622  -41.8220   -7.3766 C   0  0  0  0  0  0  0  0  0  0  0  0
  -17.1769  -42.6755   -7.9441 C   0  0  0  0  0  0  0  0  0  0  0  0
  -17.4564  -43.8828   -8.5281 C   0  0  0  0  0  0  0  0  0  0  0  0
  -16.3761  -44.7351   -9.1088 C   0  0  0  0  0  0  0  0  0  0  0  0
  -18.7328  -44.2109   -8.5298 N   0  0  0  0  0  0  0  0  0  0  0  0
  -17.5113  -40.6162   -6.8612 C   0  0  0  0  0  0  0  0  0  0  0  0
  -16.3582  -40.7299   -6.2246 O   0  0  0  0  0  0  0  0  0  0  0  0
  -17.8912  -39.2473   -6.9108 N   0  0  0  0  0  0  0  0  0  0  0  0
  -12.6124  -40.2326  -10.3019 C   0  0  0  0  0  0  0  0  0  0  0  0
  1  2  1  0
  2  3  1  0
  2  4  1  0
  4  5  2  0
  5  6  1  0
  6  7  2  0
  7  8  1  0
  8  9  1  0
  9 10  1  0
 10 11  1  0
 11 12  1  0
 12 13  1  6
 12 14  1  0
 14 15  1  1
 15 16  1  0
 16 17  1  1
 16 18  1  0
 18 19  1  0
 19 20  1  0
 20 21  1  0
 21 22  1  0
 22 23  1  0
 23 24  1  0
 24 25  1  0
 25 26  1  0
 26 27  2  0
 27 28  1  0
 28 29  2  0
 29 30  1  0
 30 31  1  0
 30 32  2  0
 28 33  1  0
 33 34  2  0
 33 35  1  0
  8 36  2  0
 32 26  1  0
 35 14  1  0
 36  4  1  0
M  END
$$$$
