
     RDKit          3D

 36 38  0  0  0  0  0  0  0  0999 V2000
  -23.0907  -37.5696   -5.0895 C   0  0  0  0  0  0  0  0  0  0  0  0
  -23.3884  -38.8218   -5.8907 C   0  0  0  0  0  0  0  0  0  0  0  0
  -23.9585  -39.8394   -4.8948 C   0  0  0  0  0  0  0  0  0  0  0  0
  -22.1509  -39.3600   -6.5211 C   0  0  0  0  0  0  0  0  0  0  0  0
  -22.2930  -40.2061   -7.5970 C   0  0  0  0  0  0  0  0  0  0  0  0
  -21.2064  -40.7308   -8.2276 C   0  0  0  0  0  0  0  0  0  0  0  0
  -19.9349  -40.3903   -7.7564 C   0  0  0  0  0  0  0  0  0  0  0  0
  -19.7475  -39.5538   -6.6909 C   0  0  0  0  0  0  0  0  0  0  0  0
  -18.3855  -39.2177   -6.2387 C   0  0  0  0  0  0  0  0  0  0  0  0
  -17.4726  -40.3026   -6.1558 N   0  0  0  0  0  0  0  0  0  0  0  0
  -16.5215  -40.4501   -7.1922 C   0  0  0  0  0  0  0  0  0  0  0  0
  -15.5128  -39.3716   -7.3514 C   0  0  1  0  0  0  0  0  0  0  0  0
  -14.2164  -39.7013   -6.9784 O   0  0  0  0  0  0  0  0  0  0  0  0
  -15.4351  -38.7684   -8.7515 C   0  0  2  0  0  0  0  0  0  0  0  0
  -16.1702  -37.4690   -8.7363 C   0  0  0  0  0  0  0  0  0  0  0  0
  -16.2834  -36.7900  -10.0831 C   0  0  2  0  0  0  0  0  0  0  0  0
  -17.1482  -37.5041  -11.0582 C   0  0  0  0  0  0  0  0  0  0  0  0
  -14.9262  -36.3853  -10.5820 C   0  0  0  0  0  0  0  0  0  0  0  0
  -14.9679  -35.5819  -11.8351 C   0  0  0  0  0  0  0  0  0  0  0  0
  -13.8115  -35.9707  -12.7475 C   0  0  0  0  0  0  0  0  0  0  0  0
  -14.2979  -36.3455  -14.1244 C   0  0  0  0  0  0  0  0  0  0  0  0
  -13.1703  -36.2135  -15.0993 C   0  0  0  0  0  0  0  0  0  0  0  0
  -11.9896  -37.0818  -14.7445 C   0  0  0  0  0  0  0  0  0  0  0  0
  -12.2523  -38.5603  -14.9145 C   0  0  0  0  0  0  0  0  0  0  0  0
  -11.9140  -39.2084  -13.6922 N   0  0  0  0  0  0  0  0  0  0  0  0
  -12.6935  -39.9588  -12.7472 C   0  0  0  0  0  0  0  0  0  0  0  0
  -13.8850  -39.7089  -12.1095 C   0  0  0  0  0  0  0  0  0  0  0  0
  -14.3367  -40.6628  -11.2245 C   0  0  0  0  0  0  0  0  0  0  0  0
  -13.5568  -41.8353  -11.0285 C   0  0  0  0  0  0  0  0  0  0  0  0
  -12.3704  -42.0796  -11.6684 C   0  0  0  0  0  0  0  0  0  0  0  0
  -11.5952  -43.3318  -11.4191 C   0  0  0  0  0  0  0  0  0  0  0  0
  -11.9883  -41.1316  -12.5002 N   0  0  0  0  0  0  0  0  0  0  0  0
  -15.5244  -40.7299  -10.3712 C   0  0  0  0  0  0  0  0  0  0  0  0
  -16.1654  -41.8798  -10.2504 O   0  0  0  0  0  0  0  0  0  0  0  0
  -16.1760  -39.7404   -9.5858 N   0  0  0  0  0  0  0  0  0  0  0  0
  -20.8806  -39.0413   -6.0770 C   0  0  0  0  0  0  0  0  0  0  0  0
  1  2  1  0
  2  3  1  0
  2  4  1  0
  4  5  2  0
  5  6  1  0
  6  7  2  0
  7  8  1  0
  8  9  1  0
  9 10  1  0
 10 11  1  0
 11 12  1  0
 12 13  1  6
 12 14  1  0
 14 15  1  1
 15 16  1  0
 16 17  1  6
 16 18  1  0
 18 19  1  0
 19 20  1  0
 20 21  1  0
 21 22  1  0
 22 23  1  0
 23 24  1  0
 24 25  1  0
 25 26  1  0
 26 27  2  0
 27 28  1  0
 28 29  2  0
 29 30  1  0
 30 31  1  0
 30 32  2  0
 28 33  1  0
 33 34  2  0
 33 35  1  0
  8 36  2  0
 32 26  1  0
 35 14  1  0
 36  4  1  0
M  END
$$$$
