
     RDKit          3D

 36 38  0  0  0  0  0  0  0  0999 V2000
  -21.3448  -40.0514   -2.5056 C   0  0  0  0  0  0  0  0  0  0  0  0
  -21.8463  -41.2242   -3.3250 C   0  0  0  0  0  0  0  0  0  0  0  0
  -20.8061  -42.3384   -3.1553 C   0  0  0  0  0  0  0  0  0  0  0  0
  -21.9733  -40.8565   -4.7627 C   0  0  0  0  0  0  0  0  0  0  0  0
  -23.2054  -41.0036   -5.3577 C   0  0  0  0  0  0  0  0  0  0  0  0
  -23.3977  -40.6809   -6.6664 C   0  0  0  0  0  0  0  0  0  0  0  0
  -22.3105  -40.1941   -7.3982 C   0  0  0  0  0  0  0  0  0  0  0  0
  -21.0691  -40.0324   -6.8475 C   0  0  0  0  0  0  0  0  0  0  0  0
  -19.9573  -39.5059   -7.6593 C   0  0  0  0  0  0  0  0  0  0  0  0
  -18.8109  -39.0763   -6.9394 N   0  0  0  0  0  0  0  0  0  0  0  0
  -17.6152  -39.8161   -7.0931 C   0  0  0  0  0  0  0  0  0  0  0  0
  -16.3365  -39.0614   -7.0578 C   0  0  1  0  0  0  0  0  0  0  0  0
  -15.3678  -39.5601   -6.1968 O   0  0  0  0  0  0  0  0  0  0  0  0
  -15.6692  -38.8675   -8.4170 C   0  0  2  0  0  0  0  0  0  0  0  0
  -15.1320  -37.4757   -8.4738 C   0  0  0  0  0  0  0  0  0  0  0  0
  -14.5321  -37.0825   -9.8055 C   0  0  2  0  0  0  0  0  0  0  0  0
  -15.5182  -36.9678  -10.9114 C   0  0  0  0  0  0  0  0  0  0  0  0
  -13.3128  -37.9095  -10.0958 C   0  0  0  0  0  0  0  0  0  0  0  0
  -12.5825  -37.4828  -11.3215 C   0  0  0  0  0  0  0  0  0  0  0  0
  -12.0549  -38.7007  -12.0696 C   0  0  0  0  0  0  0  0  0  0  0  0
  -12.4978  -38.6966  -13.5106 C   0  0  0  0  0  0  0  0  0  0  0  0
  -11.5804  -39.5663  -14.3115 C   0  0  0  0  0  0  0  0  0  0  0  0
  -11.5462  -40.9894  -13.8144 C   0  0  0  0  0  0  0  0  0  0  0  0
  -12.8312  -41.7469  -14.0572 C   0  0  0  0  0  0  0  0  0  0  0  0
  -13.2522  -42.3041  -12.8159 N   0  0  0  0  0  0  0  0  0  0  0  0
  -14.4238  -42.0977  -12.0107 C   0  0  0  0  0  0  0  0  0  0  0  0
  -15.0501  -40.9674  -11.5429 C   0  0  0  0  0  0  0  0  0  0  0  0
  -16.1659  -41.1470  -10.7555 C   0  0  0  0  0  0  0  0  0  0  0  0
  -16.6004  -42.4724  -10.4801 C   0  0  0  0  0  0  0  0  0  0  0  0
  -15.9727  -43.5955  -10.9506 C   0  0  0  0  0  0  0  0  0  0  0  0
  -16.4773  -44.9631  -10.6252 C   0  0  0  0  0  0  0  0  0  0  0  0
  -14.9110  -43.3615  -11.6955 N   0  0  0  0  0  0  0  0  0  0  0  0
  -17.0577  -40.2014  -10.0818 C   0  0  0  0  0  0  0  0  0  0  0  0
  -18.3593  -40.4328  -10.0825 O   0  0  0  0  0  0  0  0  0  0  0  0
  -16.7915  -38.9987   -9.3724 N   0  0  0  0  0  0  0  0  0  0  0  0
  -20.9161  -40.3729   -5.5119 C   0  0  0  0  0  0  0  0  0  0  0  0
  1  2  1  0
  2  3  1  0
  2  4  1  0
  4  5  2  0
  5  6  1  0
  6  7  2  0
  7  8  1  0
  8  9  1  0
  9 10  1  0
 10 11  1  0
 11 12  1  0
 12 13  1  1
 12 14  1  0
 14 15  1  1
 15 16  1  0
 16 17  1  6
 16 18  1  0
 18 19  1  0
 19 20  1  0
 20 21  1  0
 21 22  1  0
 22 23  1  0
 23 24  1  0
 24 25  1  0
 25 26  1  0
 26 27  2  0
 27 28  1  0
 28 29  2  0
 29 30  1  0
 30 31  1  0
 30 32  2  0
 28 33  1  0
 33 34  2  0
 33 35  1  0
  8 36  2  0
 32 26  1  0
 35 14  1  0
 36  4  1  0
M  END
$$$$
