
     RDKit          3D

 36 38  0  0  0  0  0  0  0  0999 V2000
  -23.7100  -40.1188   -3.9716 C   0  0  0  0  0  0  0  0  0  0  0  0
  -23.4327  -41.1177   -5.0779 C   0  0  0  0  0  0  0  0  0  0  0  0
  -22.4656  -42.1508   -4.4867 C   0  0  0  0  0  0  0  0  0  0  0  0
  -22.8127  -40.4513   -6.2568 C   0  0  0  0  0  0  0  0  0  0  0  0
  -23.4689  -40.5380   -7.4633 C   0  0  0  0  0  0  0  0  0  0  0  0
  -22.9651  -39.9478   -8.5821 C   0  0  0  0  0  0  0  0  0  0  0  0
  -21.7593  -39.2476   -8.4794 C   0  0  0  0  0  0  0  0  0  0  0  0
  -21.0740  -39.1364   -7.3012 C   0  0  0  0  0  0  0  0  0  0  0  0
  -19.8113  -38.3783   -7.2431 C   0  0  0  0  0  0  0  0  0  0  0  0
  -18.8258  -38.7376   -8.2006 N   0  0  0  0  0  0  0  0  0  0  0  0
  -17.7254  -39.5106   -7.7622 C   0  0  0  0  0  0  0  0  0  0  0  0
  -16.4248  -38.8131   -7.5955 C   0  0  1  0  0  0  0  0  0  0  0  0
  -15.6568  -39.2238   -6.5138 O   0  0  0  0  0  0  0  0  0  0  0  0
  -15.5190  -38.8439   -8.8239 C   0  0  2  0  0  0  0  0  0  0  0  0
  -15.0771  -37.4463   -9.1075 C   0  0  0  0  0  0  0  0  0  0  0  0
  -14.2562  -37.2853  -10.3677 C   0  0  2  0  0  0  0  0  0  0  0  0
  -15.0122  -37.5211  -11.6252 C   0  0  0  0  0  0  0  0  0  0  0  0
  -12.9503  -38.0154  -10.2395 C   0  0  0  0  0  0  0  0  0  0  0  0
  -12.0249  -37.7847  -11.3832 C   0  0  0  0  0  0  0  0  0  0  0  0
  -11.2795  -39.0690  -11.7235 C   0  0  0  0  0  0  0  0  0  0  0  0
  -11.4309  -39.4245  -13.1807 C   0  0  0  0  0  0  0  0  0  0  0  0
  -10.3175  -40.3393  -13.5841 C   0  0  0  0  0  0  0  0  0  0  0  0
  -10.2845  -41.6093  -12.7718 C   0  0  0  0  0  0  0  0  0  0  0  0
  -11.4426  -42.5386  -13.0534 C   0  0  0  0  0  0  0  0  0  0  0  0
  -12.0596  -42.8584  -11.8102 N   0  0  0  0  0  0  0  0  0  0  0  0
  -13.3774  -42.6143  -11.2932 C   0  0  0  0  0  0  0  0  0  0  0  0
  -14.1586  -41.4861  -11.2181 C   0  0  0  0  0  0  0  0  0  0  0  0
  -15.3921  -41.6141  -10.6187 C   0  0  0  0  0  0  0  0  0  0  0  0
  -15.7809  -42.8888  -10.1235 C   0  0  0  0  0  0  0  0  0  0  0  0
  -14.9983  -44.0105  -10.2026 C   0  0  0  0  0  0  0  0  0  0  0  0
  -15.4627  -45.3231   -9.6620 C   0  0  0  0  0  0  0  0  0  0  0  0
  -13.8298  -43.8264  -10.7835 N   0  0  0  0  0  0  0  0  0  0  0  0
  -16.4608  -40.6501  -10.3502 C   0  0  0  0  0  0  0  0  0  0  0  0
  -17.7182  -41.0187  -10.5253 O   0  0  0  0  0  0  0  0  0  0  0  0
  -16.4210  -39.3010   -9.9043 N   0  0  0  0  0  0  0  0  0  0  0  0
  -21.6215  -39.7522   -6.1857 C   0  0  0  0  0  0  0  0  0  0  0  0
  1  2  1  0
  2  3  1  0
  2  4  1  0
  4  5  2  0
  5  6  1  0
  6  7  2  0
  7  8  1  0
  8  9  1  0
  9 10  1  0
 10 11  1  0
 11 12  1  0
 12 13  1  1
 12 14  1  0
 14 15  1  6
 15 16  1  0
 16 17  1  6
 16 18  1  0
 18 19  1  0
 19 20  1  0
 20 21  1  0
 21 22  1  0
 22 23  1  0
 23 24  1  0
 24 25  1  0
 25 26  1  0
 26 27  2  0
 27 28  1  0
 28 29  2  0
 29 30  1  0
 30 31  1  0
 30 32  2  0
 28 33  1  0
 33 34  2  0
 33 35  1  0
  8 36  2  0
 32 26  1  0
 35 14  1  0
 36  4  1  0
M  END
$$$$
