
     RDKit          3D

 36 38  0  0  0  0  0  0  0  0999 V2000
  -13.0369  -35.3783  -12.7704 C   0  0  0  0  0  0  0  0  0  0  0  0
  -14.4694  -35.8455  -12.6030 C   0  0  0  0  0  0  0  0  0  0  0  0
  -15.0172  -35.1085  -11.3746 C   0  0  0  0  0  0  0  0  0  0  0  0
  -14.5297  -37.3178  -12.3863 C   0  0  0  0  0  0  0  0  0  0  0  0
  -15.1888  -38.0794  -13.3241 C   0  0  0  0  0  0  0  0  0  0  0  0
  -15.2781  -39.4319  -13.1952 C   0  0  0  0  0  0  0  0  0  0  0  0
  -14.6829  -40.0350  -12.0832 C   0  0  0  0  0  0  0  0  0  0  0  0
  -14.0187  -39.3170  -11.1274 C   0  0  0  0  0  0  0  0  0  0  0  0
  -13.3994  -40.0015   -9.9783 C   0  0  0  0  0  0  0  0  0  0  0  0
  -14.0991  -39.9049   -8.7462 N   0  0  0  0  0  0  0  0  0  0  0  0
  -15.5060  -40.0492   -8.7690 C   0  0  0  0  0  0  0  0  0  0  0  0
  -16.2933  -39.2108   -7.8292 C   0  0  1  0  0  0  0  0  0  0  0  0
  -16.5027  -37.8968   -8.2269 O   0  0  0  0  0  0  0  0  0  0  0  0
  -17.6551  -39.7841   -7.4460 C   0  0  2  0  0  0  0  0  0  0  0  0
  -18.4888  -38.6712   -6.9024 C   0  0  0  0  0  0  0  0  0  0  0  0
  -19.8399  -39.0940   -6.3699 C   0  0  2  0  0  0  0  0  0  0  0  0
  -19.7803  -39.9260   -5.1400 C   0  0  0  0  0  0  0  0  0  0  0  0
  -20.6985  -39.6252   -7.4814 C   0  0  0  0  0  0  0  0  0  0  0  0
  -22.0951  -39.9276   -7.0619 C   0  0  0  0  0  0  0  0  0  0  0  0
  -22.5906  -41.1900   -7.7559 C   0  0  0  0  0  0  0  0  0  0  0  0
  -23.1081  -42.1983   -6.7618 C   0  0  0  0  0  0  0  0  0  0  0  0
  -24.0280  -43.1512   -7.4583 C   0  0  0  0  0  0  0  0  0  0  0  0
  -23.3573  -43.8832   -8.5932 C   0  0  0  0  0  0  0  0  0  0  0  0
  -22.3151  -44.8792   -8.1395 C   0  0  0  0  0  0  0  0  0  0  0  0
  -21.1061  -44.5963   -8.8373 N   0  0  0  0  0  0  0  0  0  0  0  0
  -19.8037  -44.1879   -8.3894 C   0  0  0  0  0  0  0  0  0  0  0  0
  -19.3743  -43.1897   -7.5480 C   0  0  0  0  0  0  0  0  0  0  0  0
  -18.0152  -43.0665   -7.3607 C   0  0  0  0  0  0  0  0  0  0  0  0
  -17.1489  -43.9691   -8.0362 C   0  0  0  0  0  0  0  0  0  0  0  0
  -17.5831  -44.9633   -8.8727 C   0  0  0  0  0  0  0  0  0  0  0  0
  -16.6223  -45.8807   -9.5554 C   0  0  0  0  0  0  0  0  0  0  0  0
  -18.8915  -45.0309   -9.0147 N   0  0  0  0  0  0  0  0  0  0  0  0
  -17.2112  -42.1325   -6.5704 C   0  0  0  0  0  0  0  0  0  0  0  0
  -16.1626  -42.5885   -5.9070 O   0  0  0  0  0  0  0  0  0  0  0  0
  -17.3341  -40.7326   -6.3565 N   0  0  0  0  0  0  0  0  0  0  0  0
  -13.9509  -37.9422  -11.2964 C   0  0  0  0  0  0  0  0  0  0  0  0
  1  2  1  0
  2  3  1  0
  2  4  1  0
  4  5  2  0
  5  6  1  0
  6  7  2  0
  7  8  1  0
  8  9  1  0
  9 10  1  0
 10 11  1  0
 11 12  1  0
 12 13  1  6
 12 14  1  0
 14 15  1  1
 15 16  1  0
 16 17  1  1
 16 18  1  0
 18 19  1  0
 19 20  1  0
 20 21  1  0
 21 22  1  0
 22 23  1  0
 23 24  1  0
 24 25  1  0
 25 26  1  0
 26 27  2  0
 27 28  1  0
 28 29  2  0
 29 30  1  0
 30 31  1  0
 30 32  2  0
 28 33  1  0
 33 34  2  0
 33 35  1  0
  8 36  2  0
 32 26  1  0
 35 14  1  0
 36  4  1  0
M  END
$$$$
