
     RDKit          3D

 36 38  0  0  0  0  0  0  0  0999 V2000
  -21.1854  -42.7131   -4.3785 C   0  0  0  0  0  0  0  0  0  0  0  0
  -21.5688  -42.9981   -5.8173 C   0  0  0  0  0  0  0  0  0  0  0  0
  -20.4129  -43.8111   -6.4133 C   0  0  0  0  0  0  0  0  0  0  0  0
  -21.7532  -41.7333   -6.5819 C   0  0  0  0  0  0  0  0  0  0  0  0
  -22.9145  -41.5825   -7.3049 C   0  0  0  0  0  0  0  0  0  0  0  0
  -23.1545  -40.4503   -8.0222 C   0  0  0  0  0  0  0  0  0  0  0  0
  -22.1906  -39.4377   -8.0093 C   0  0  0  0  0  0  0  0  0  0  0  0
  -21.0230  -39.5456   -7.3054 C   0  0  0  0  0  0  0  0  0  0  0  0
  -20.0428  -38.4449   -7.3163 C   0  0  0  0  0  0  0  0  0  0  0  0
  -18.6924  -38.8126   -7.0746 N   0  0  0  0  0  0  0  0  0  0  0  0
  -17.9565  -39.3754   -8.1434 C   0  0  0  0  0  0  0  0  0  0  0  0
  -18.0610  -38.7118   -9.4680 C   0  0  1  0  0  0  0  0  0  0  0  0
  -18.7797  -37.5238   -9.4900 O   0  0  0  0  0  0  0  0  0  0  0  0
  -16.7255  -38.4389  -10.1551 C   0  0  2  0  0  0  0  0  0  0  0  0
  -16.7525  -37.0412  -10.6793 C   0  0  0  0  0  0  0  0  0  0  0  0
  -15.5382  -36.6455  -11.4898 C   0  0  2  0  0  0  0  0  0  0  0  0
  -15.4145  -37.3512  -12.7918 C   0  0  0  0  0  0  0  0  0  0  0  0
  -14.3100  -36.6409  -10.6259 C   0  0  0  0  0  0  0  0  0  0  0  0
  -13.0979  -36.1216  -11.3177 C   0  0  0  0  0  0  0  0  0  0  0  0
  -11.8702  -36.9197  -10.8970 C   0  0  0  0  0  0  0  0  0  0  0  0
  -11.1288  -37.4614  -12.0927 C   0  0  0  0  0  0  0  0  0  0  0  0
   -9.7175  -37.7683  -11.7011 C   0  0  0  0  0  0  0  0  0  0  0  0
   -9.6300  -38.7691  -10.5767 C   0  0  0  0  0  0  0  0  0  0  0  0
  -10.0540  -40.1644  -10.9735 C   0  0  0  0  0  0  0  0  0  0  0  0
  -11.0414  -40.6025  -10.0453 N   0  0  0  0  0  0  0  0  0  0  0  0
  -12.4226  -40.9652  -10.2015 C   0  0  0  0  0  0  0  0  0  0  0  0
  -13.4880  -40.3494  -10.8132 C   0  0  0  0  0  0  0  0  0  0  0  0
  -14.7072  -40.9866  -10.7441 C   0  0  0  0  0  0  0  0  0  0  0  0
  -14.7897  -42.2286  -10.0571 C   0  0  0  0  0  0  0  0  0  0  0  0
  -13.7236  -42.8386   -9.4504 C   0  0  0  0  0  0  0  0  0  0  0  0
  -13.8740  -44.1449   -8.7420 C   0  0  0  0  0  0  0  0  0  0  0  0
  -12.5852  -42.1816   -9.5476 N   0  0  0  0  0  0  0  0  0  0  0  0
  -16.0341  -40.6304  -11.2497 C   0  0  0  0  0  0  0  0  0  0  0  0
  -16.7959  -41.5734  -11.7770 O   0  0  0  0  0  0  0  0  0  0  0  0
  -16.7233  -39.3878  -11.2906 N   0  0  0  0  0  0  0  0  0  0  0  0
  -20.8178  -40.7148   -6.5884 C   0  0  0  0  0  0  0  0  0  0  0  0
  1  2  1  0
  2  3  1  0
  2  4  1  0
  4  5  2  0
  5  6  1  0
  6  7  2  0
  7  8  1  0
  8  9  1  0
  9 10  1  0
 10 11  1  0
 11 12  1  0
 12 13  1  1
 12 14  1  0
 14 15  1  6
 15 16  1  0
 16 17  1  6
 16 18  1  0
 18 19  1  0
 19 20  1  0
 20 21  1  0
 21 22  1  0
 22 23  1  0
 23 24  1  0
 24 25  1  0
 25 26  1  0
 26 27  2  0
 27 28  1  0
 28 29  2  0
 29 30  1  0
 30 31  1  0
 30 32  2  0
 28 33  1  0
 33 34  2  0
 33 35  1  0
  8 36  2  0
 32 26  1  0
 35 14  1  0
 36  4  1  0
M  END
$$$$
