
     RDKit          3D

 36 38  0  0  0  0  0  0  0  0999 V2000
  -14.9779  -34.1608  -12.9522 C   0  0  0  0  0  0  0  0  0  0  0  0
  -15.5076  -35.4417  -12.3380 C   0  0  0  0  0  0  0  0  0  0  0  0
  -16.2704  -35.0249  -11.0745 C   0  0  0  0  0  0  0  0  0  0  0  0
  -14.3939  -36.3648  -11.9830 C   0  0  0  0  0  0  0  0  0  0  0  0
  -13.1056  -35.9007  -12.1203 C   0  0  0  0  0  0  0  0  0  0  0  0
  -12.0380  -36.6861  -11.8083 C   0  0  0  0  0  0  0  0  0  0  0  0
  -12.2790  -37.9821  -11.3426 C   0  0  0  0  0  0  0  0  0  0  0  0
  -13.5422  -38.4839  -11.1912 C   0  0  0  0  0  0  0  0  0  0  0  0
  -13.7435  -39.8542  -10.6870 C   0  0  0  0  0  0  0  0  0  0  0  0
  -14.0877  -39.9669   -9.3137 N   0  0  0  0  0  0  0  0  0  0  0  0
  -15.4550  -39.8775   -8.9628 C   0  0  0  0  0  0  0  0  0  0  0  0
  -15.7771  -39.5491   -7.5506 C   0  0  1  0  0  0  0  0  0  0  0  0
  -15.4913  -38.2488   -7.1556 O   0  0  0  0  0  0  0  0  0  0  0  0
  -17.2192  -39.8343   -7.1393 C   0  0  2  0  0  0  0  0  0  0  0  0
  -17.7892  -38.5840   -6.5555 C   0  0  0  0  0  0  0  0  0  0  0  0
  -19.1859  -38.7274   -5.9929 C   0  0  2  0  0  0  0  0  0  0  0  0
  -19.2724  -39.5796   -4.7784 C   0  0  0  0  0  0  0  0  0  0  0  0
  -20.1624  -39.0445   -7.0887 C   0  0  0  0  0  0  0  0  0  0  0  0
  -21.5810  -39.0582   -6.6360 C   0  0  0  0  0  0  0  0  0  0  0  0
  -22.3453  -40.1748   -7.3361 C   0  0  0  0  0  0  0  0  0  0  0  0
  -23.0384  -41.0741   -6.3442 C   0  0  0  0  0  0  0  0  0  0  0  0
  -24.1530  -41.7995   -7.0303 C   0  0  0  0  0  0  0  0  0  0  0  0
  -23.6767  -42.6308   -8.1947 C   0  0  0  0  0  0  0  0  0  0  0  0
  -22.8549  -43.8314   -7.7856 C   0  0  0  0  0  0  0  0  0  0  0  0
  -21.6303  -43.7917   -8.5117 N   0  0  0  0  0  0  0  0  0  0  0  0
  -20.2612  -43.6730   -8.0933 C   0  0  0  0  0  0  0  0  0  0  0  0
  -19.6132  -42.8043   -7.2483 C   0  0  0  0  0  0  0  0  0  0  0  0
  -18.2543  -42.9708   -7.0964 C   0  0  0  0  0  0  0  0  0  0  0  0
  -17.6116  -44.0194   -7.8096 C   0  0  0  0  0  0  0  0  0  0  0  0
  -18.2633  -44.8835   -8.6496 C   0  0  0  0  0  0  0  0  0  0  0  0
  -17.5314  -45.9661   -9.3729 C   0  0  0  0  0  0  0  0  0  0  0  0
  -19.5600  -44.6741   -8.7567 N   0  0  0  0  0  0  0  0  0  0  0  0
  -17.2548  -42.2417   -6.3136 C   0  0  0  0  0  0  0  0  0  0  0  0
  -16.3091  -42.9201   -5.6866 O   0  0  0  0  0  0  0  0  0  0  0  0
  -17.0777  -40.8518   -6.0742 N   0  0  0  0  0  0  0  0  0  0  0  0
  -14.6015  -37.6514  -11.5204 C   0  0  0  0  0  0  0  0  0  0  0  0
  1  2  1  0
  2  3  1  0
  2  4  1  0
  4  5  2  0
  5  6  1  0
  6  7  2  0
  7  8  1  0
  8  9  1  0
  9 10  1  0
 10 11  1  0
 11 12  1  0
 12 13  1  6
 12 14  1  0
 14 15  1  1
 15 16  1  0
 16 17  1  1
 16 18  1  0
 18 19  1  0
 19 20  1  0
 20 21  1  0
 21 22  1  0
 22 23  1  0
 23 24  1  0
 24 25  1  0
 25 26  1  0
 26 27  2  0
 27 28  1  0
 28 29  2  0
 29 30  1  0
 30 31  1  0
 30 32  2  0
 28 33  1  0
 33 34  2  0
 33 35  1  0
  8 36  2  0
 32 26  1  0
 35 14  1  0
 36  4  1  0
M  END
$$$$
