
     RDKit          3D

 36 38  0  0  0  0  0  0  0  0999 V2000
  -22.6966  -41.1063   -3.2713 C   0  0  0  0  0  0  0  0  0  0  0  0
  -23.2449  -41.4618   -4.6394 C   0  0  0  0  0  0  0  0  0  0  0  0
  -22.7498  -42.8816   -4.9410 C   0  0  0  0  0  0  0  0  0  0  0  0
  -22.7488  -40.5150   -5.6766 C   0  0  0  0  0  0  0  0  0  0  0  0
  -23.4493  -40.4307   -6.8581 C   0  0  0  0  0  0  0  0  0  0  0  0
  -23.0585  -39.5823   -7.8487 C   0  0  0  0  0  0  0  0  0  0  0  0
  -21.9233  -38.7934   -7.6396 C   0  0  0  0  0  0  0  0  0  0  0  0
  -21.1975  -38.8452   -6.4817 C   0  0  0  0  0  0  0  0  0  0  0  0
  -20.0133  -37.9853   -6.3062 C   0  0  0  0  0  0  0  0  0  0  0  0
  -19.0159  -38.0880   -7.3120 N   0  0  0  0  0  0  0  0  0  0  0  0
  -18.0910  -39.1544   -7.2228 C   0  0  0  0  0  0  0  0  0  0  0  0
  -16.6474  -38.8057   -7.2002 C   0  0  1  0  0  0  0  0  0  0  0  0
  -15.9028  -39.3938   -6.1863 O   0  0  0  0  0  0  0  0  0  0  0  0
  -15.9049  -39.0657   -8.5083 C   0  0  2  0  0  0  0  0  0  0  0  0
  -15.1889  -37.8125   -8.8904 C   0  0  0  0  0  0  0  0  0  0  0  0
  -14.4882  -37.8670  -10.2298 C   0  0  2  0  0  0  0  0  0  0  0  0
  -15.4043  -37.9446  -11.3974 C   0  0  0  0  0  0  0  0  0  0  0  0
  -13.3762  -38.8756  -10.1991 C   0  0  0  0  0  0  0  0  0  0  0  0
  -12.5464  -38.8842  -11.4356 C   0  0  0  0  0  0  0  0  0  0  0  0
  -12.1517  -40.3114  -11.7937 C   0  0  0  0  0  0  0  0  0  0  0  0
  -12.5302  -40.6480  -13.2137 C   0  0  0  0  0  0  0  0  0  0  0  0
  -11.7018  -41.8015  -13.6853 C   0  0  0  0  0  0  0  0  0  0  0  0
  -11.8740  -43.0305  -12.8288 C   0  0  0  0  0  0  0  0  0  0  0  0
  -13.2357  -43.6731  -12.9585 C   0  0  0  0  0  0  0  0  0  0  0  0
  -13.7768  -43.8205  -11.6493 N   0  0  0  0  0  0  0  0  0  0  0  0
  -14.9438  -43.2706  -11.0174 C   0  0  0  0  0  0  0  0  0  0  0  0
  -15.4361  -41.9918  -10.9131 C   0  0  0  0  0  0  0  0  0  0  0  0
  -16.5975  -41.8219  -10.1921 C   0  0  0  0  0  0  0  0  0  0  0  0
  -17.2121  -42.9640   -9.6098 C   0  0  0  0  0  0  0  0  0  0  0  0
  -16.7173  -44.2369   -9.7185 C   0  0  0  0  0  0  0  0  0  0  0  0
  -17.4090  -45.3977   -9.0822 C   0  0  0  0  0  0  0  0  0  0  0  0
  -15.6042  -44.3369  -10.4170 N   0  0  0  0  0  0  0  0  0  0  0  0
  -17.3854  -40.6333   -9.8609 C   0  0  0  0  0  0  0  0  0  0  0  0
  -18.7049  -40.7056   -9.8980 O   0  0  0  0  0  0  0  0  0  0  0  0
  -16.9942  -39.3219   -9.4766 N   0  0  0  0  0  0  0  0  0  0  0  0
  -21.6294  -39.7226   -5.4984 C   0  0  0  0  0  0  0  0  0  0  0  0
  1  2  1  0
  2  3  1  0
  2  4  1  0
  4  5  2  0
  5  6  1  0
  6  7  2  0
  7  8  1  0
  8  9  1  0
  9 10  1  0
 10 11  1  0
 11 12  1  0
 12 13  1  1
 12 14  1  0
 14 15  1  6
 15 16  1  0
 16 17  1  6
 16 18  1  0
 18 19  1  0
 19 20  1  0
 20 21  1  0
 21 22  1  0
 22 23  1  0
 23 24  1  0
 24 25  1  0
 25 26  1  0
 26 27  2  0
 27 28  1  0
 28 29  2  0
 29 30  1  0
 30 31  1  0
 30 32  2  0
 28 33  1  0
 33 34  2  0
 33 35  1  0
  8 36  2  0
 32 26  1  0
 35 14  1  0
 36  4  1  0
M  END
$$$$
