
     RDKit          3D

 36 38  0  0  0  0  0  0  0  0999 V2000
  -14.2783  -35.1797  -13.1307 C   0  0  0  0  0  0  0  0  0  0  0  0
  -13.7790  -35.8958  -11.8911 C   0  0  0  0  0  0  0  0  0  0  0  0
  -12.4410  -35.2392  -11.5296 C   0  0  0  0  0  0  0  0  0  0  0  0
  -13.5821  -37.3482  -12.1557 C   0  0  0  0  0  0  0  0  0  0  0  0
  -13.2689  -37.7313  -13.4398 C   0  0  0  0  0  0  0  0  0  0  0  0
  -13.0680  -39.0408  -13.7541 C   0  0  0  0  0  0  0  0  0  0  0  0
  -13.1875  -39.9945  -12.7388 C   0  0  0  0  0  0  0  0  0  0  0  0
  -13.4971  -39.6585  -11.4498 C   0  0  0  0  0  0  0  0  0  0  0  0
  -13.6017  -40.7012  -10.4133 C   0  0  0  0  0  0  0  0  0  0  0  0
  -14.1851  -40.2981   -9.1827 N   0  0  0  0  0  0  0  0  0  0  0  0
  -15.5860  -40.4291   -9.0381 C   0  0  0  0  0  0  0  0  0  0  0  0
  -16.2967  -39.3652   -8.2839 C   0  0  1  0  0  0  0  0  0  0  0  0
  -16.4604  -38.1602   -8.9543 O   0  0  0  0  0  0  0  0  0  0  0  0
  -17.6677  -39.7675   -7.7465 C   0  0  2  0  0  0  0  0  0  0  0  0
  -18.3643  -38.5304   -7.2848 C   0  0  0  0  0  0  0  0  0  0  0  0
  -19.7011  -38.7679   -6.6181 C   0  0  2  0  0  0  0  0  0  0  0  0
  -19.6164  -39.4585   -5.3049 C   0  0  0  0  0  0  0  0  0  0  0  0
  -20.6820  -39.3414   -7.5998 C   0  0  0  0  0  0  0  0  0  0  0  0
  -22.0626  -39.4683   -7.0564 C   0  0  0  0  0  0  0  0  0  0  0  0
  -22.7105  -40.7512   -7.5619 C   0  0  0  0  0  0  0  0  0  0  0  0
  -23.2316  -41.5910   -6.4235 C   0  0  0  0  0  0  0  0  0  0  0  0
  -24.2762  -42.5297   -6.9402 C   0  0  0  0  0  0  0  0  0  0  0  0
  -23.7552  -43.4416   -8.0221 C   0  0  0  0  0  0  0  0  0  0  0  0
  -22.7662  -44.4698   -7.5235 C   0  0  0  0  0  0  0  0  0  0  0  0
  -21.5946  -44.3765   -8.3279 N   0  0  0  0  0  0  0  0  0  0  0  0
  -20.2331  -44.0389   -8.0184 C   0  0  0  0  0  0  0  0  0  0  0  0
  -19.6612  -42.9951   -7.3312 C   0  0  0  0  0  0  0  0  0  0  0  0
  -18.2864  -42.9740   -7.2498 C   0  0  0  0  0  0  0  0  0  0  0  0
  -17.5502  -44.0207   -7.8692 C   0  0  0  0  0  0  0  0  0  0  0  0
  -18.1260  -45.0597   -8.5518 C   0  0  0  0  0  0  0  0  0  0  0  0
  -17.2977  -46.1303   -9.1829 C   0  0  0  0  0  0  0  0  0  0  0  0
  -19.4426  -45.0252   -8.5982 N   0  0  0  0  0  0  0  0  0  0  0  0
  -17.3514  -42.0331   -6.6302 C   0  0  0  0  0  0  0  0  0  0  0  0
  -16.2961  -42.5039   -5.9882 O   0  0  0  0  0  0  0  0  0  0  0  0
  -17.3433  -40.6126   -6.5759 N   0  0  0  0  0  0  0  0  0  0  0  0
  -13.6939  -38.3141  -11.1722 C   0  0  0  0  0  0  0  0  0  0  0  0
  1  2  1  0
  2  3  1  0
  2  4  1  0
  4  5  2  0
  5  6  1  0
  6  7  2  0
  7  8  1  0
  8  9  1  0
  9 10  1  0
 10 11  1  0
 11 12  1  0
 12 13  1  6
 12 14  1  0
 14 15  1  1
 15 16  1  0
 16 17  1  1
 16 18  1  0
 18 19  1  0
 19 20  1  0
 20 21  1  0
 21 22  1  0
 22 23  1  0
 23 24  1  0
 24 25  1  0
 25 26  1  0
 26 27  2  0
 27 28  1  0
 28 29  2  0
 29 30  1  0
 30 31  1  0
 30 32  2  0
 28 33  1  0
 33 34  2  0
 33 35  1  0
  8 36  2  0
 32 26  1  0
 35 14  1  0
 36  4  1  0
M  END
$$$$
