
     RDKit          3D

 36 38  0  0  0  0  0  0  0  0999 V2000
  -19.1332  -34.3698   -6.7231 C   0  0  0  0  0  0  0  0  0  0  0  0
  -19.6407  -35.6975   -7.2503 C   0  0  0  0  0  0  0  0  0  0  0  0
  -19.8280  -36.5994   -6.0240 C   0  0  0  0  0  0  0  0  0  0  0  0
  -18.6611  -36.3088   -8.1911 C   0  0  0  0  0  0  0  0  0  0  0  0
  -18.8269  -36.0709   -9.5363 C   0  0  0  0  0  0  0  0  0  0  0  0
  -17.9663  -36.5914  -10.4541 C   0  0  0  0  0  0  0  0  0  0  0  0
  -16.9038  -37.3778   -9.9987 C   0  0  0  0  0  0  0  0  0  0  0  0
  -16.7015  -37.6399   -8.6718 C   0  0  0  0  0  0  0  0  0  0  0  0
  -15.5600  -38.4672   -8.2419 C   0  0  0  0  0  0  0  0  0  0  0  0
  -15.7164  -39.8705   -8.3954 N   0  0  0  0  0  0  0  0  0  0  0  0
  -16.8943  -40.4662   -7.8871 C   0  0  0  0  0  0  0  0  0  0  0  0
  -17.2725  -41.7978   -8.4254 C   0  0  1  0  0  0  0  0  0  0  0  0
  -16.6033  -42.8818   -7.8727 O   0  0  0  0  0  0  0  0  0  0  0  0
  -18.7645  -42.1143   -8.3622 C   0  0  2  0  0  0  0  0  0  0  0  0
  -19.5141  -40.8949   -8.7868 C   0  0  0  0  0  0  0  0  0  0  0  0
  -21.0184  -41.0054   -8.6745 C   0  0  2  0  0  0  0  0  0  0  0  0
  -21.5242  -41.0823   -7.2792 C   0  0  0  0  0  0  0  0  0  0  0  0
  -21.5396  -42.0485   -9.6206 C   0  0  0  0  0  0  0  0  0  0  0  0
  -23.0263  -42.1148   -9.6729 C   0  0  0  0  0  0  0  0  0  0  0  0
  -23.4837  -43.5626   -9.7986 C   0  0  0  0  0  0  0  0  0  0  0  0
  -24.4771  -43.9220   -8.7231 C   0  0  0  0  0  0  0  0  0  0  0  0
  -25.2699  -45.1132   -9.1613 C   0  0  0  0  0  0  0  0  0  0  0  0
  -24.4048  -46.3142   -9.4491 C   0  0  0  0  0  0  0  0  0  0  0  0
  -23.7730  -46.9153   -8.2148 C   0  0  0  0  0  0  0  0  0  0  0  0
  -22.3706  -47.0124   -8.4439 N   0  0  0  0  0  0  0  0  0  0  0  0
  -21.2403  -46.4093   -7.7940 C   0  0  0  0  0  0  0  0  0  0  0  0
  -20.9413  -45.1130   -7.4493 C   0  0  0  0  0  0  0  0  0  0  0  0
  -19.7239  -44.8877   -6.8458 C   0  0  0  0  0  0  0  0  0  0  0  0
  -18.8619  -45.9944   -6.6145 C   0  0  0  0  0  0  0  0  0  0  0  0
  -19.1661  -47.2849   -6.9590 C   0  0  0  0  0  0  0  0  0  0  0  0
  -18.2170  -48.4065   -6.6905 C   0  0  0  0  0  0  0  0  0  0  0  0
  -20.3418  -47.4384   -7.5344 N   0  0  0  0  0  0  0  0  0  0  0  0
  -19.0730  -43.6662   -6.3684 C   0  0  0  0  0  0  0  0  0  0  0  0
  -18.4067  -43.6966   -5.2270 O   0  0  0  0  0  0  0  0  0  0  0  0
  -19.0030  -42.3590   -6.9224 N   0  0  0  0  0  0  0  0  0  0  0  0
  -17.6010  -37.0909   -7.7702 C   0  0  0  0  0  0  0  0  0  0  0  0
  1  2  1  0
  2  3  1  0
  2  4  1  0
  4  5  2  0
  5  6  1  0
  6  7  2  0
  7  8  1  0
  8  9  1  0
  9 10  1  0
 10 11  1  0
 11 12  1  0
 12 13  1  1
 12 14  1  0
 14 15  1  1
 15 16  1  0
 16 17  1  1
 16 18  1  0
 18 19  1  0
 19 20  1  0
 20 21  1  0
 21 22  1  0
 22 23  1  0
 23 24  1  0
 24 25  1  0
 25 26  1  0
 26 27  2  0
 27 28  1  0
 28 29  2  0
 29 30  1  0
 30 31  1  0
 30 32  2  0
 28 33  1  0
 33 34  2  0
 33 35  1  0
  8 36  2  0
 32 26  1  0
 35 14  1  0
 36  4  1  0
M  END
$$$$
