
     RDKit          3D

 36 38  0  0  0  0  0  0  0  0999 V2000
  -11.4088  -38.1322  -13.8978 C   0  0  0  0  0  0  0  0  0  0  0  0
  -12.9221  -38.2229  -13.8851 C   0  0  0  0  0  0  0  0  0  0  0  0
  -13.3810  -37.8888  -15.3099 C   0  0  0  0  0  0  0  0  0  0  0  0
  -13.5077  -37.2536  -12.9177 C   0  0  0  0  0  0  0  0  0  0  0  0
  -14.0970  -36.1173  -13.4230 C   0  0  0  0  0  0  0  0  0  0  0  0
  -14.6588  -35.1903  -12.5991 C   0  0  0  0  0  0  0  0  0  0  0  0
  -14.6242  -35.4179  -11.2200 C   0  0  0  0  0  0  0  0  0  0  0  0
  -14.0490  -36.5325  -10.6750 C   0  0  0  0  0  0  0  0  0  0  0  0
  -14.0472  -36.7308   -9.2145 C   0  0  0  0  0  0  0  0  0  0  0  0
  -15.0352  -37.6154   -8.7060 N   0  0  0  0  0  0  0  0  0  0  0  0
  -15.5548  -38.6011   -9.5771 C   0  0  0  0  0  0  0  0  0  0  0  0
  -15.9495  -39.9017   -8.9781 C   0  0  1  0  0  0  0  0  0  0  0  0
  -15.0345  -40.4588   -8.0945 O   0  0  0  0  0  0  0  0  0  0  0  0
  -17.3045  -39.8985   -8.2752 C   0  0  2  0  0  0  0  0  0  0  0  0
  -17.7089  -38.4780   -8.0572 C   0  0  0  0  0  0  0  0  0  0  0  0
  -18.9863  -38.2974   -7.2676 C   0  0  2  0  0  0  0  0  0  0  0  0
  -18.8876  -38.7043   -5.8418 C   0  0  0  0  0  0  0  0  0  0  0  0
  -20.1560  -38.8509   -8.0293 C   0  0  0  0  0  0  0  0  0  0  0  0
  -21.4695  -38.5810   -7.3815 C   0  0  0  0  0  0  0  0  0  0  0  0
  -22.3920  -39.7825   -7.5433 C   0  0  0  0  0  0  0  0  0  0  0  0
  -22.9315  -40.2459   -6.2140 C   0  0  0  0  0  0  0  0  0  0  0  0
  -24.1800  -41.0401   -6.4375 C   0  0  0  0  0  0  0  0  0  0  0  0
  -23.9550  -42.2420   -7.3199 C   0  0  0  0  0  0  0  0  0  0  0  0
  -23.1227  -43.3232   -6.6700 C   0  0  0  0  0  0  0  0  0  0  0  0
  -22.0480  -43.6370   -7.5504 N   0  0  0  0  0  0  0  0  0  0  0  0
  -20.6223  -43.5251   -7.4147 C   0  0  0  0  0  0  0  0  0  0  0  0
  -19.7981  -42.4995   -7.0177 C   0  0  0  0  0  0  0  0  0  0  0  0
  -18.4420  -42.7404   -7.0338 C   0  0  0  0  0  0  0  0  0  0  0  0
  -17.9813  -44.0193   -7.4505 C   0  0  0  0  0  0  0  0  0  0  0  0
  -18.8080  -45.0385   -7.8437 C   0  0  0  0  0  0  0  0  0  0  0  0
  -18.2628  -46.3613   -8.2724 C   0  0  0  0  0  0  0  0  0  0  0  0
  -20.0932  -44.7489   -7.8098 N   0  0  0  0  0  0  0  0  0  0  0  0
  -17.2891  -41.9007   -6.7036 C   0  0  0  0  0  0  0  0  0  0  0  0
  -16.2746  -42.4321   -6.0434 O   0  0  0  0  0  0  0  0  0  0  0  0
  -17.0154  -40.5313   -6.9692 N   0  0  0  0  0  0  0  0  0  0  0  0
  -13.4881  -37.4515  -11.5491 C   0  0  0  0  0  0  0  0  0  0  0  0
  1  2  1  0
  2  3  1  0
  2  4  1  0
  4  5  2  0
  5  6  1  0
  6  7  2  0
  7  8  1  0
  8  9  1  0
  9 10  1  0
 10 11  1  0
 11 12  1  0
 12 13  1  1
 12 14  1  0
 14 15  1  1
 15 16  1  0
 16 17  1  1
 16 18  1  0
 18 19  1  0
 19 20  1  0
 20 21  1  0
 21 22  1  0
 22 23  1  0
 23 24  1  0
 24 25  1  0
 25 26  1  0
 26 27  2  0
 27 28  1  0
 28 29  2  0
 29 30  1  0
 30 31  1  0
 30 32  2  0
 28 33  1  0
 33 34  2  0
 33 35  1  0
  8 36  2  0
 32 26  1  0
 35 14  1  0
 36  4  1  0
M  END
$$$$
