
     RDKit          3D

 36 38  0  0  0  0  0  0  0  0999 V2000
  -11.4909  -43.9012  -10.4814 C   0  0  0  0  0  0  0  0  0  0  0  0
  -11.0342  -43.0572  -11.6551 C   0  0  0  0  0  0  0  0  0  0  0  0
   -9.7277  -42.3856  -11.2142 C   0  0  0  0  0  0  0  0  0  0  0  0
  -12.0508  -42.0241  -11.9983 C   0  0  0  0  0  0  0  0  0  0  0  0
  -12.6576  -42.1036  -13.2309 C   0  0  0  0  0  0  0  0  0  0  0  0
  -13.6010  -41.1982  -13.6102 C   0  0  0  0  0  0  0  0  0  0  0  0
  -13.9427  -40.1791  -12.7161 C   0  0  0  0  0  0  0  0  0  0  0  0
  -13.3650  -40.0622  -11.4820 C   0  0  0  0  0  0  0  0  0  0  0  0
  -13.7673  -38.9750  -10.5717 C   0  0  0  0  0  0  0  0  0  0  0  0
  -14.5232  -39.3645   -9.4341 N   0  0  0  0  0  0  0  0  0  0  0  0
  -15.9315  -39.4100   -9.5570 C   0  0  0  0  0  0  0  0  0  0  0  0
  -16.7242  -38.5413   -8.6499 C   0  0  1  0  0  0  0  0  0  0  0  0
  -17.0328  -37.2803   -9.1429 O   0  0  0  0  0  0  0  0  0  0  0  0
  -18.0286  -39.1573   -8.1506 C   0  0  2  0  0  0  0  0  0  0  0  0
  -18.9180  -38.0489   -7.6933 C   0  0  0  0  0  0  0  0  0  0  0  0
  -20.2170  -38.4988   -7.0622 C   0  0  2  0  0  0  0  0  0  0  0  0
  -20.0565  -39.1865   -5.7547 C   0  0  0  0  0  0  0  0  0  0  0  0
  -21.0751  -39.2026   -8.0737 C   0  0  0  0  0  0  0  0  0  0  0  0
  -22.4316  -39.5482   -7.5658 C   0  0  0  0  0  0  0  0  0  0  0  0
  -22.8622  -40.9083   -8.1004 C   0  0  0  0  0  0  0  0  0  0  0  0
  -23.2731  -41.8343   -6.9839 C   0  0  0  0  0  0  0  0  0  0  0  0
  -24.1484  -42.9152   -7.5358 C   0  0  0  0  0  0  0  0  0  0  0  0
  -23.4686  -43.7208   -8.6141 C   0  0  0  0  0  0  0  0  0  0  0  0
  -22.3444  -44.5913   -8.1019 C   0  0  0  0  0  0  0  0  0  0  0  0
  -21.1833  -44.3075   -8.8763 N   0  0  0  0  0  0  0  0  0  0  0  0
  -19.8975  -43.7686   -8.5299 C   0  0  0  0  0  0  0  0  0  0  0  0
  -19.5093  -42.6590   -7.8180 C   0  0  0  0  0  0  0  0  0  0  0  0
  -18.1563  -42.4276   -7.7026 C   0  0  0  0  0  0  0  0  0  0  0  0
  -17.2536  -43.3396   -8.3146 C   0  0  0  0  0  0  0  0  0  0  0  0
  -17.6466  -44.4451   -9.0218 C   0  0  0  0  0  0  0  0  0  0  0  0
  -16.6489  -45.3665   -9.6435 C   0  0  0  0  0  0  0  0  0  0  0  0
  -18.9514  -44.6132   -9.1003 N   0  0  0  0  0  0  0  0  0  0  0  0
  -17.3920  -41.3627   -7.0505 C   0  0  0  0  0  0  0  0  0  0  0  0
  -16.2916  -41.6744   -6.3876 O   0  0  0  0  0  0  0  0  0  0  0  0
  -17.6044  -39.9589   -6.9813 N   0  0  0  0  0  0  0  0  0  0  0  0
  -12.4089  -41.0048  -11.1349 C   0  0  0  0  0  0  0  0  0  0  0  0
  1  2  1  0
  2  3  1  0
  2  4  1  0
  4  5  2  0
  5  6  1  0
  6  7  2  0
  7  8  1  0
  8  9  1  0
  9 10  1  0
 10 11  1  0
 11 12  1  0
 12 13  1  6
 12 14  1  0
 14 15  1  1
 15 16  1  0
 16 17  1  1
 16 18  1  0
 18 19  1  0
 19 20  1  0
 20 21  1  0
 21 22  1  0
 22 23  1  0
 23 24  1  0
 24 25  1  0
 25 26  1  0
 26 27  2  0
 27 28  1  0
 28 29  2  0
 29 30  1  0
 30 31  1  0
 30 32  2  0
 28 33  1  0
 33 34  2  0
 33 35  1  0
  8 36  2  0
 32 26  1  0
 35 14  1  0
 36  4  1  0
M  END
$$$$
