
     RDKit          3D

 36 38  0  0  0  0  0  0  0  0999 V2000
  -12.8324  -40.2855  -14.1437 C   0  0  0  0  0  0  0  0  0  0  0  0
  -12.3767  -38.8489  -14.3082 C   0  0  0  0  0  0  0  0  0  0  0  0
  -10.8467  -38.8952  -14.4023 C   0  0  0  0  0  0  0  0  0  0  0  0
  -12.7936  -38.0191  -13.1437 C   0  0  0  0  0  0  0  0  0  0  0  0
  -11.8349  -37.2473  -12.5281 C   0  0  0  0  0  0  0  0  0  0  0  0
  -12.1445  -36.4586  -11.4623 C   0  0  0  0  0  0  0  0  0  0  0  0
  -13.4649  -36.4491  -11.0030 C   0  0  0  0  0  0  0  0  0  0  0  0
  -14.4489  -37.2002  -11.5842 C   0  0  0  0  0  0  0  0  0  0  0  0
  -15.8286  -37.1475  -11.0683 C   0  0  0  0  0  0  0  0  0  0  0  0
  -16.1506  -38.0913  -10.0570 N   0  0  0  0  0  0  0  0  0  0  0  0
  -16.1879  -37.6409   -8.7167 C   0  0  0  0  0  0  0  0  0  0  0  0
  -15.8988  -38.6371   -7.6537 C   0  0  1  0  0  0  0  0  0  0  0  0
  -15.2067  -38.1551   -6.5505 O   0  0  0  0  0  0  0  0  0  0  0  0
  -17.1214  -39.3818   -7.1238 C   0  0  2  0  0  0  0  0  0  0  0  0
  -16.7181  -40.1091   -5.8839 C   0  0  0  0  0  0  0  0  0  0  0  0
  -17.7931  -40.9920   -5.2899 C   0  0  2  0  0  0  0  0  0  0  0  0
  -18.1406  -42.1755   -6.1187 C   0  0  0  0  0  0  0  0  0  0  0  0
  -18.9496  -40.1613   -4.8132 C   0  0  0  0  0  0  0  0  0  0  0  0
  -19.9851  -40.9453   -4.0848 C   0  0  0  0  0  0  0  0  0  0  0  0
  -21.3761  -40.4324   -4.4357 C   0  0  0  0  0  0  0  0  0  0  0  0
  -22.2683  -41.5468   -4.9204 C   0  0  0  0  0  0  0  0  0  0  0  0
  -23.6991  -41.1397   -4.7583 C   0  0  0  0  0  0  0  0  0  0  0  0
  -24.0351  -39.8798   -5.5155 C   0  0  0  0  0  0  0  0  0  0  0  0
  -24.0273  -40.0549   -7.0166 C   0  0  0  0  0  0  0  0  0  0  0  0
  -23.1791  -39.0535   -7.5699 N   0  0  0  0  0  0  0  0  0  0  0  0
  -21.9584  -39.1282   -8.3235 C   0  0  0  0  0  0  0  0  0  0  0  0
  -20.7787  -39.8055   -8.1285 C   0  0  0  0  0  0  0  0  0  0  0  0
  -19.7846  -39.6192   -9.0636 C   0  0  0  0  0  0  0  0  0  0  0  0
  -20.0353  -38.7524  -10.1622 C   0  0  0  0  0  0  0  0  0  0  0  0
  -21.2142  -38.0808  -10.3521 C   0  0  0  0  0  0  0  0  0  0  0  0
  -21.4172  -37.1819  -11.5276 C   0  0  0  0  0  0  0  0  0  0  0  0
  -22.1259  -38.2963   -9.4252 N   0  0  0  0  0  0  0  0  0  0  0  0
  -18.4237  -40.1481   -9.1722 C   0  0  0  0  0  0  0  0  0  0  0  0
  -17.9687  -40.5138  -10.3583 O   0  0  0  0  0  0  0  0  0  0  0  0
  -17.4163  -40.3620   -8.1925 N   0  0  0  0  0  0  0  0  0  0  0  0
  -14.0914  -37.9896  -12.6669 C   0  0  0  0  0  0  0  0  0  0  0  0
  1  2  1  0
  2  3  1  0
  2  4  1  0
  4  5  2  0
  5  6  1  0
  6  7  2  0
  7  8  1  0
  8  9  1  0
  9 10  1  0
 10 11  1  0
 11 12  1  0
 12 13  1  1
 12 14  1  0
 14 15  1  1
 15 16  1  0
 16 17  1  6
 16 18  1  0
 18 19  1  0
 19 20  1  0
 20 21  1  0
 21 22  1  0
 22 23  1  0
 23 24  1  0
 24 25  1  0
 25 26  1  0
 26 27  2  0
 27 28  1  0
 28 29  2  0
 29 30  1  0
 30 31  1  0
 30 32  2  0
 28 33  1  0
 33 34  2  0
 33 35  1  0
  8 36  2  0
 32 26  1  0
 35 14  1  0
 36  4  1  0
M  END
$$$$
