
     RDKit          3D

 36 37  0  0  0  0  0  0  0  0999 V2000
  -11.4535  -36.4376  -13.3848 C   0  0  0  0  0  0  0  0  0  0  0  0
  -12.6683  -35.5502  -13.2594 C   0  0  0  0  0  0  0  0  0  0  0  0
  -12.3206  -34.2845  -12.4918 C   0  0  0  0  0  0  0  0  0  0  0  0
  -13.7939  -36.2343  -12.5931 C   0  0  0  0  0  0  0  0  0  0  0  0
  -13.6818  -36.6236  -11.2612 C   0  0  0  0  0  0  0  0  0  0  0  0
  -14.7370  -37.2625  -10.6494 C   0  0  0  0  0  0  0  0  0  0  0  0
  -14.6165  -37.6855   -9.2110 C   0  0  0  0  0  0  0  0  0  0  0  0
  -15.9320  -37.9066   -8.7324 N   0  0  0  0  0  0  0  0  0  0  0  0
  -16.1082  -38.3435   -7.4091 C   0  0  0  0  0  0  0  0  0  0  0  0
  -16.1502  -39.8430   -7.2764 C   0  0  1  0  0  0  0  0  0  0  0  0
  -15.7426  -40.1933   -5.9986 O   0  0  0  0  0  0  0  0  0  0  0  0
  -17.5852  -40.3553   -7.5048 C   0  0  2  0  0  0  0  0  0  0  0  0
  -18.4335  -39.2637   -7.9830 C   0  0  0  0  0  0  0  0  0  0  0  0
  -18.9223  -38.1890   -7.1383 C   0  0  2  0  0  0  0  0  0  0  0  0
  -18.9419  -38.3305   -5.6554 C   0  0  0  0  0  0  0  0  0  0  0  0
  -20.2435  -37.5874   -7.5401 C   0  0  0  0  0  0  0  0  0  0  0  0
  -21.3671  -38.4780   -7.8302 C   0  0  0  0  0  0  0  0  0  0  0  0
  -22.1694  -38.9548   -6.6220 C   0  0  0  0  0  0  0  0  0  0  0  0
  -21.9029  -40.4296   -6.3318 C   0  0  0  0  0  0  0  0  0  0  0  0
  -23.0557  -41.3254   -6.6004 C   0  0  0  0  0  0  0  0  0  0  0  0
  -22.6999  -42.5275   -7.4449 C   0  0  2  0  0  0  0  0  0  0  0  0
  -23.9867  -42.8823   -8.2082 C   0  0  0  0  0  0  0  0  0  0  0  0
  -22.3073  -43.7395   -6.6808 C   0  0  0  0  0  0  0  0  0  0  0  0
  -20.9229  -43.7809   -6.1438 C   0  0  0  0  0  0  0  0  0  0  0  0
  -20.0953  -44.8998   -6.6997 C   0  0  0  0  0  0  0  0  0  0  0  0
  -20.6758  -46.0098   -6.8114 O   0  0  0  0  0  0  0  0  0  0  0  0
  -18.7556  -44.7885   -7.0904 N   0  0  0  0  0  0  0  0  0  0  0  0
  -17.8768  -45.9424   -7.0090 C   0  0  0  0  0  0  0  0  0  0  0  0
  -18.1679  -43.5352   -7.5921 C   0  0  1  0  0  0  0  0  0  0  0  0
  -19.1104  -43.0028   -8.6176 C   0  0  0  0  0  0  0  0  0  0  0  0
  -17.9085  -42.6483   -6.4490 C   0  0  0  0  0  0  0  0  0  0  0  0
  -17.5425  -43.2049   -5.3497 O   0  0  0  0  0  0  0  0  0  0  0  0
  -18.0389  -41.2319   -6.4932 N   0  0  0  0  0  0  0  0  0  0  0  0
  -15.9048  -37.5280  -11.3215 C   0  0  0  0  0  0  0  0  0  0  0  0
  -16.0183  -37.1371  -12.6595 C   0  0  0  0  0  0  0  0  0  0  0  0
  -14.9611  -36.5033  -13.2535 C   0  0  0  0  0  0  0  0  0  0  0  0
  1  2  1  0
  2  3  1  0
  2  4  1  0
  4  5  2  0
  5  6  1  0
  6  7  1  0
  7  8  1  0
  8  9  1  0
  9 10  1  0
 10 11  1  1
 10 12  1  0
 12 13  1  1
 13 14  1  0
 14 15  1  1
 14 16  1  0
 16 17  1  0
 17 18  1  0
 18 19  1  0
 19 20  1  0
 20 21  1  0
 21 22  1  1
 21 23  1  0
 23 24  1  0
 24 25  1  0
 25 26  2  0
 25 27  1  0
 27 28  1  0
 27 29  1  0
 29 30  1  6
 29 31  1  0
 31 32  2  0
 31 33  1  0
  6 34  2  0
 34 35  1  0
 35 36  2  0
 33 12  1  0
 36  4  1  0
M  END
$$$$
