
     RDKit          3D

 36 37  0  0  0  0  0  0  0  0999 V2000
  -13.3687  -34.5220  -10.5291 C   0  0  0  0  0  0  0  0  0  0  0  0
  -12.4374  -35.3007  -11.4264 C   0  0  0  0  0  0  0  0  0  0  0  0
  -12.2340  -34.5655  -12.7417 C   0  0  0  0  0  0  0  0  0  0  0  0
  -12.9332  -36.6643  -11.6982 C   0  0  0  0  0  0  0  0  0  0  0  0
  -13.1220  -37.5585  -10.6480 C   0  0  0  0  0  0  0  0  0  0  0  0
  -13.5835  -38.8286  -10.9124 C   0  0  0  0  0  0  0  0  0  0  0  0
  -13.7860  -39.7965   -9.7790 C   0  0  0  0  0  0  0  0  0  0  0  0
  -14.9392  -39.3725   -9.0729 N   0  0  0  0  0  0  0  0  0  0  0  0
  -16.0292  -40.2517   -8.9632 C   0  0  0  0  0  0  0  0  0  0  0  0
  -17.2407  -39.7995   -9.7350 C   0  0  1  0  0  0  0  0  0  0  0  0
  -17.1176  -40.2170  -11.0511 O   0  0  0  0  0  0  0  0  0  0  0  0
  -18.5159  -40.4161   -9.1288 C   0  0  2  0  0  0  0  0  0  0  0  0
  -19.6932  -39.6826   -9.5935 C   0  0  0  0  0  0  0  0  0  0  0  0
  -20.0682  -38.3654   -9.1120 C   0  0  2  0  0  0  0  0  0  0  0  0
  -19.5265  -37.8376   -7.8285 C   0  0  0  0  0  0  0  0  0  0  0  0
  -21.5422  -38.0559   -9.1276 C   0  0  0  0  0  0  0  0  0  0  0  0
  -22.4748  -39.0265   -8.5548 C   0  0  0  0  0  0  0  0  0  0  0  0
  -22.6702  -38.9515   -7.0425 C   0  0  0  0  0  0  0  0  0  0  0  0
  -22.0061  -40.1344   -6.3425 C   0  0  0  0  0  0  0  0  0  0  0  0
  -22.9563  -41.1013   -5.7378 C   0  0  0  0  0  0  0  0  0  0  0  0
  -22.6747  -42.5378   -6.1146 C   0  0  2  0  0  0  0  0  0  0  0  0
  -24.0400  -43.2438   -6.0712 C   0  0  0  0  0  0  0  0  0  0  0  0
  -21.7836  -43.2708   -5.1788 C   0  0  0  0  0  0  0  0  0  0  0  0
  -20.3247  -43.0160   -5.2953 C   0  0  0  0  0  0  0  0  0  0  0  0
  -19.5293  -44.2318   -5.6626 C   0  0  0  0  0  0  0  0  0  0  0  0
  -19.8572  -45.2987   -5.0833 O   0  0  0  0  0  0  0  0  0  0  0  0
  -18.4749  -44.2520   -6.5834 N   0  0  0  0  0  0  0  0  0  0  0  0
  -17.3980  -45.2154   -6.4338 C   0  0  0  0  0  0  0  0  0  0  0  0
  -18.3902  -43.3274   -7.7261 C   0  0  1  0  0  0  0  0  0  0  0  0
  -19.7277  -43.3406   -8.3854 C   0  0  0  0  0  0  0  0  0  0  0  0
  -17.9383  -42.0171   -7.2367 C   0  0  0  0  0  0  0  0  0  0  0  0
  -17.0933  -42.0156   -6.2680 O   0  0  0  0  0  0  0  0  0  0  0  0
  -18.3783  -40.7724   -7.7681 N   0  0  0  0  0  0  0  0  0  0  0  0
  -13.8645  -39.2402  -12.1921 C   0  0  0  0  0  0  0  0  0  0  0  0
  -13.6752  -38.3424  -13.2476 C   0  0  0  0  0  0  0  0  0  0  0  0
  -13.2161  -37.0839  -12.9689 C   0  0  0  0  0  0  0  0  0  0  0  0
  1  2  1  0
  2  3  1  0
  2  4  1  0
  4  5  2  0
  5  6  1  0
  6  7  1  0
  7  8  1  0
  8  9  1  0
  9 10  1  0
 10 11  1  6
 10 12  1  0
 12 13  1  1
 13 14  1  0
 14 15  1  1
 14 16  1  0
 16 17  1  0
 17 18  1  0
 18 19  1  0
 19 20  1  0
 20 21  1  0
 21 22  1  1
 21 23  1  0
 23 24  1  0
 24 25  1  0
 25 26  2  0
 25 27  1  0
 27 28  1  0
 27 29  1  0
 29 30  1  1
 29 31  1  0
 31 32  2  0
 31 33  1  0
  6 34  2  0
 34 35  1  0
 35 36  2  0
 33 12  1  0
 36  4  1  0
M  END
$$$$
