
     RDKit          3D

 36 37  0  0  0  0  0  0  0  0999 V2000
  -14.5934  -34.9397  -13.6345 C   0  0  0  0  0  0  0  0  0  0  0  0
  -15.0932  -35.9474  -12.6277 C   0  0  0  0  0  0  0  0  0  0  0  0
  -16.2805  -35.3847  -11.8623 C   0  0  0  0  0  0  0  0  0  0  0  0
  -14.0423  -36.3530  -11.6737 C   0  0  0  0  0  0  0  0  0  0  0  0
  -13.9560  -37.6779  -11.2550 C   0  0  0  0  0  0  0  0  0  0  0  0
  -12.9730  -38.0457  -10.3636 C   0  0  0  0  0  0  0  0  0  0  0  0
  -12.8799  -39.4763   -9.9087 C   0  0  0  0  0  0  0  0  0  0  0  0
  -13.7713  -39.6228   -8.8168 N   0  0  0  0  0  0  0  0  0  0  0  0
  -15.1542  -39.5750   -9.0585 C   0  0  0  0  0  0  0  0  0  0  0  0
  -15.9397  -38.9866   -7.9162 C   0  0  1  0  0  0  0  0  0  0  0  0
  -16.0324  -37.6149   -8.0932 O   0  0  0  0  0  0  0  0  0  0  0  0
  -17.3583  -39.5868   -7.8839 C   0  0  2  0  0  0  0  0  0  0  0  0
  -18.3533  -38.5179   -7.9699 C   0  0  0  0  0  0  0  0  0  0  0  0
  -18.6771  -37.6234   -6.8733 C   0  0  2  0  0  0  0  0  0  0  0  0
  -18.3274  -37.9774   -5.4690 C   0  0  0  0  0  0  0  0  0  0  0  0
  -20.0858  -37.0906   -6.8547 C   0  0  0  0  0  0  0  0  0  0  0  0
  -21.1982  -38.0269   -7.0148 C   0  0  0  0  0  0  0  0  0  0  0  0
  -21.6561  -38.7417   -5.7458 C   0  0  0  0  0  0  0  0  0  0  0  0
  -21.2504  -40.2132   -5.7664 C   0  0  0  0  0  0  0  0  0  0  0  0
  -22.3855  -41.1604   -5.8998 C   0  0  0  0  0  0  0  0  0  0  0  0
  -22.1840  -42.1923   -6.9859 C   0  0  2  0  0  0  0  0  0  0  0  0
  -23.5977  -42.5472   -7.4757 C   0  0  0  0  0  0  0  0  0  0  0  0
  -21.5544  -43.4615   -6.5390 C   0  0  0  0  0  0  0  0  0  0  0  0
  -20.0806  -43.4560   -6.3525 C   0  0  0  0  0  0  0  0  0  0  0  0
  -19.3562  -44.4053   -7.2580 C   0  0  0  0  0  0  0  0  0  0  0  0
  -19.8878  -45.5350   -7.4084 O   0  0  0  0  0  0  0  0  0  0  0  0
  -18.1597  -44.1200   -7.9265 N   0  0  0  0  0  0  0  0  0  0  0  0
  -17.2286  -45.1907   -8.2382 C   0  0  0  0  0  0  0  0  0  0  0  0
  -17.7781  -42.7604   -8.3431 C   0  0  1  0  0  0  0  0  0  0  0  0
  -18.9685  -42.1725   -9.0220 C   0  0  0  0  0  0  0  0  0  0  0  0
  -17.2947  -42.0271   -7.1644 C   0  0  0  0  0  0  0  0  0  0  0  0
  -16.6435  -42.7008   -6.2845 O   0  0  0  0  0  0  0  0  0  0  0  0
  -17.5057  -40.6363   -6.9489 N   0  0  0  0  0  0  0  0  0  0  0  0
  -12.0693  -37.1354   -9.8733 C   0  0  0  0  0  0  0  0  0  0  0  0
  -12.1551  -35.8042  -10.2936 C   0  0  0  0  0  0  0  0  0  0  0  0
  -13.1374  -35.4542  -11.1796 C   0  0  0  0  0  0  0  0  0  0  0  0
  1  2  1  0
  2  3  1  0
  2  4  1  0
  4  5  2  0
  5  6  1  0
  6  7  1  0
  7  8  1  0
  8  9  1  0
  9 10  1  0
 10 11  1  6
 10 12  1  0
 12 13  1  1
 13 14  1  0
 14 15  1  1
 14 16  1  0
 16 17  1  0
 17 18  1  0
 18 19  1  0
 19 20  1  0
 20 21  1  0
 21 22  1  1
 21 23  1  0
 23 24  1  0
 24 25  1  0
 25 26  2  0
 25 27  1  0
 27 28  1  0
 27 29  1  0
 29 30  1  1
 29 31  1  0
 31 32  2  0
 31 33  1  0
  6 34  2  0
 34 35  1  0
 35 36  2  0
 33 12  1  0
 36  4  1  0
M  END
$$$$
