
     RDKit          3D

 36 37  0  0  0  0  0  0  0  0999 V2000
  -18.2385  -35.5308  -11.2120 C   0  0  0  0  0  0  0  0  0  0  0  0
  -17.5770  -36.1967  -12.3943 C   0  0  0  0  0  0  0  0  0  0  0  0
  -18.6238  -36.6428  -13.4029 C   0  0  0  0  0  0  0  0  0  0  0  0
  -16.7550  -37.3561  -11.9952 C   0  0  0  0  0  0  0  0  0  0  0  0
  -16.1367  -37.3747  -10.7480 C   0  0  0  0  0  0  0  0  0  0  0  0
  -15.3708  -38.4602  -10.3859 C   0  0  0  0  0  0  0  0  0  0  0  0
  -14.7005  -38.4807   -9.0396 C   0  0  0  0  0  0  0  0  0  0  0  0
  -14.4246  -39.8369   -8.7346 N   0  0  0  0  0  0  0  0  0  0  0  0
  -15.4118  -40.6025   -8.0926 C   0  0  0  0  0  0  0  0  0  0  0  0
  -16.4715  -39.7687   -7.4221 C   0  0  1  0  0  0  0  0  0  0  0  0
  -16.5310  -38.5312   -8.0441 O   0  0  0  0  0  0  0  0  0  0  0  0
  -17.8438  -40.4587   -7.5423 C   0  0  2  0  0  0  0  0  0  0  0  0
  -18.8861  -39.4580   -7.7710 C   0  0  0  0  0  0  0  0  0  0  0  0
  -19.3931  -38.5679   -6.7423 C   0  0  2  0  0  0  0  0  0  0  0  0
  -19.1918  -38.8748   -5.2984 C   0  0  0  0  0  0  0  0  0  0  0  0
  -20.8244  -38.1271   -6.9028 C   0  0  0  0  0  0  0  0  0  0  0  0
  -21.8494  -39.1360   -7.1698 C   0  0  0  0  0  0  0  0  0  0  0  0
  -22.4098  -39.8574   -5.9465 C   0  0  0  0  0  0  0  0  0  0  0  0
  -21.9138  -41.2997   -5.8832 C   0  0  0  0  0  0  0  0  0  0  0  0
  -22.9638  -42.3205   -6.1261 C   0  0  0  0  0  0  0  0  0  0  0  0
  -22.5706  -43.3554   -7.1553 C   0  0  2  0  0  0  0  0  0  0  0  0
  -23.8910  -43.8092   -7.7994 C   0  0  0  0  0  0  0  0  0  0  0  0
  -21.9209  -44.5735   -6.6065 C   0  0  0  0  0  0  0  0  0  0  0  0
  -20.4830  -44.4695   -6.2480 C   0  0  0  0  0  0  0  0  0  0  0  0
  -19.5983  -45.3851   -7.0384 C   0  0  0  0  0  0  0  0  0  0  0  0
  -20.0368  -46.5492   -7.2227 O   0  0  0  0  0  0  0  0  0  0  0  0
  -18.3508  -45.0344   -7.5682 N   0  0  0  0  0  0  0  0  0  0  0  0
  -17.3244  -46.0477   -7.7418 C   0  0  0  0  0  0  0  0  0  0  0  0
  -18.0076  -43.6601   -7.9700 C   0  0  1  0  0  0  0  0  0  0  0  0
  -19.1430  -43.1620   -8.7985 C   0  0  0  0  0  0  0  0  0  0  0  0
  -17.7146  -42.8772   -6.7609 C   0  0  0  0  0  0  0  0  0  0  0  0
  -17.1321  -43.4924   -5.7942 O   0  0  0  0  0  0  0  0  0  0  0  0
  -18.0359  -41.4996   -6.6058 N   0  0  0  0  0  0  0  0  0  0  0  0
  -15.1992  -39.5322  -11.2269 C   0  0  0  0  0  0  0  0  0  0  0  0
  -15.8201  -39.5144  -12.4800 C   0  0  0  0  0  0  0  0  0  0  0  0
  -16.5778  -38.4286  -12.8253 C   0  0  0  0  0  0  0  0  0  0  0  0
  1  2  1  0
  2  3  1  0
  2  4  1  0
  4  5  2  0
  5  6  1  0
  6  7  1  0
  7  8  1  0
  8  9  1  0
  9 10  1  0
 10 11  1  6
 10 12  1  0
 12 13  1  1
 13 14  1  0
 14 15  1  1
 14 16  1  0
 16 17  1  0
 17 18  1  0
 18 19  1  0
 19 20  1  0
 20 21  1  0
 21 22  1  1
 21 23  1  0
 23 24  1  0
 24 25  1  0
 25 26  2  0
 25 27  1  0
 27 28  1  0
 27 29  1  0
 29 30  1  1
 29 31  1  0
 31 32  2  0
 31 33  1  0
  6 34  2  0
 34 35  1  0
 35 36  2  0
 33 12  1  0
 36  4  1  0
M  END
$$$$
