
     RDKit          3D

 36 37  0  0  0  0  0  0  0  0999 V2000
  -16.7532  -34.0506  -11.2719 C   0  0  0  0  0  0  0  0  0  0  0  0
  -16.4187  -35.0593  -12.3440 C   0  0  0  0  0  0  0  0  0  0  0  0
  -17.6153  -35.9571  -12.6161 C   0  0  0  0  0  0  0  0  0  0  0  0
  -15.2530  -35.8908  -11.9852 C   0  0  0  0  0  0  0  0  0  0  0  0
  -15.4379  -37.2074  -11.5723 C   0  0  0  0  0  0  0  0  0  0  0  0
  -14.3441  -37.9743  -11.2383 C   0  0  0  0  0  0  0  0  0  0  0  0
  -14.5424  -39.3963  -10.7900 C   0  0  0  0  0  0  0  0  0  0  0  0
  -14.1900  -39.4515   -9.4185 N   0  0  0  0  0  0  0  0  0  0  0  0
  -14.9930  -38.7776   -8.4838 C   0  0  0  0  0  0  0  0  0  0  0  0
  -15.5358  -39.6770   -7.4048 C   0  0  1  0  0  0  0  0  0  0  0  0
  -15.5433  -38.9851   -6.2036 O   0  0  0  0  0  0  0  0  0  0  0  0
  -16.9754  -40.1063   -7.7470 C   0  0  2  0  0  0  0  0  0  0  0  0
  -17.7873  -38.9282   -8.0518 C   0  0  0  0  0  0  0  0  0  0  0  0
  -18.2737  -37.9989   -7.0481 C   0  0  2  0  0  0  0  0  0  0  0  0
  -18.3339  -38.3877   -5.6112 C   0  0  0  0  0  0  0  0  0  0  0  0
  -19.5708  -37.3043   -7.3704 C   0  0  0  0  0  0  0  0  0  0  0  0
  -20.7059  -38.1039   -7.8308 C   0  0  0  0  0  0  0  0  0  0  0  0
  -21.5488  -38.7566   -6.7379 C   0  0  0  0  0  0  0  0  0  0  0  0
  -21.3221  -40.2656   -6.6956 C   0  0  0  0  0  0  0  0  0  0  0  0
  -22.4870  -41.0732   -7.1362 C   0  0  0  0  0  0  0  0  0  0  0  0
  -22.1363  -42.1246   -8.1641 C   0  0  2  0  0  0  0  0  0  0  0  0
  -23.4108  -42.3123   -9.0036 C   0  0  0  0  0  0  0  0  0  0  0  0
  -21.7898  -43.4578   -7.6077 C   0  0  0  0  0  0  0  0  0  0  0  0
  -20.4206  -43.6249   -7.0561 C   0  0  0  0  0  0  0  0  0  0  0  0
  -19.6039  -44.6551   -7.7754 C   0  0  0  0  0  0  0  0  0  0  0  0
  -20.2056  -45.7150   -8.0855 O   0  0  0  0  0  0  0  0  0  0  0  0
  -18.2526  -44.5142   -8.1131 N   0  0  0  0  0  0  0  0  0  0  0  0
  -17.4016  -45.6876   -8.2092 C   0  0  0  0  0  0  0  0  0  0  0  0
  -17.6251  -43.2099   -8.3831 C   0  0  1  0  0  0  0  0  0  0  0  0
  -18.5295  -42.4880   -9.3236 C   0  0  0  0  0  0  0  0  0  0  0  0
  -17.3755  -42.5352   -7.1012 C   0  0  0  0  0  0  0  0  0  0  0  0
  -17.0497  -43.2784   -6.1043 O   0  0  0  0  0  0  0  0  0  0  0  0
  -17.4737  -41.1287   -6.9081 N   0  0  0  0  0  0  0  0  0  0  0  0
  -13.0673  -37.4725  -11.3017 C   0  0  0  0  0  0  0  0  0  0  0  0
  -12.8807  -36.1500  -11.7165 C   0  0  0  0  0  0  0  0  0  0  0  0
  -13.9775  -35.4007  -12.0450 C   0  0  0  0  0  0  0  0  0  0  0  0
  1  2  1  0
  2  3  1  0
  2  4  1  0
  4  5  2  0
  5  6  1  0
  6  7  1  0
  7  8  1  0
  8  9  1  0
  9 10  1  0
 10 11  1  1
 10 12  1  0
 12 13  1  1
 13 14  1  0
 14 15  1  1
 14 16  1  0
 16 17  1  0
 17 18  1  0
 18 19  1  0
 19 20  1  0
 20 21  1  0
 21 22  1  6
 21 23  1  0
 23 24  1  0
 24 25  1  0
 25 26  2  0
 25 27  1  0
 27 28  1  0
 27 29  1  0
 29 30  1  6
 29 31  1  0
 31 32  2  0
 31 33  1  0
  6 34  2  0
 34 35  1  0
 35 36  2  0
 33 12  1  0
 36  4  1  0
M  END
$$$$
