
     RDKit          3D

 36 37  0  0  0  0  0  0  0  0999 V2000
  -23.1863  -40.7398   -4.7920 C   0  0  0  0  0  0  0  0  0  0  0  0
  -22.1567  -39.6694   -5.0623 C   0  0  0  0  0  0  0  0  0  0  0  0
  -22.5883  -38.3519   -4.4381 C   0  0  0  0  0  0  0  0  0  0  0  0
  -21.9195  -39.4738   -6.5061 C   0  0  0  0  0  0  0  0  0  0  0  0
  -20.7689  -38.8215   -6.9405 C   0  0  0  0  0  0  0  0  0  0  0  0
  -20.5579  -38.6427   -8.2894 C   0  0  0  0  0  0  0  0  0  0  0  0
  -19.3162  -37.9363   -8.7600 C   0  0  0  0  0  0  0  0  0  0  0  0
  -18.2686  -38.8906   -8.7532 N   0  0  0  0  0  0  0  0  0  0  0  0
  -17.3245  -38.8545   -7.7138 C   0  0  0  0  0  0  0  0  0  0  0  0
  -15.9744  -38.3507   -8.1512 C   0  0  1  0  0  0  0  0  0  0  0  0
  -15.3951  -37.6494   -7.1050 O   0  0  0  0  0  0  0  0  0  0  0  0
  -15.0635  -39.5346   -8.5285 C   0  0  2  0  0  0  0  0  0  0  0  0
  -13.6723  -39.2142   -8.2092 C   0  0  0  0  0  0  0  0  0  0  0  0
  -12.8533  -38.3011   -8.9857 C   0  0  2  0  0  0  0  0  0  0  0  0
  -13.2247  -37.9404  -10.3827 C   0  0  0  0  0  0  0  0  0  0  0  0
  -11.3736  -38.5821   -8.9826 C   0  0  0  0  0  0  0  0  0  0  0  0
  -10.9115  -39.9430   -9.2548 C   0  0  0  0  0  0  0  0  0  0  0  0
  -10.7861  -40.3226  -10.7283 C   0  0  0  0  0  0  0  0  0  0  0  0
  -11.8865  -41.2968  -11.1411 C   0  0  0  0  0  0  0  0  0  0  0  0
  -11.4084  -42.6691  -11.4443 C   0  0  0  0  0  0  0  0  0  0  0  0
  -12.1921  -43.7498  -10.7353 C   0  0  2  0  0  0  0  0  0  0  0  0
  -11.2008  -44.9092  -10.5419 C   0  0  0  0  0  0  0  0  0  0  0  0
  -13.3447  -44.2946  -11.4980 C   0  0  0  0  0  0  0  0  0  0  0  0
  -14.5894  -43.4839  -11.5128 C   0  0  0  0  0  0  0  0  0  0  0  0
  -15.7647  -44.1747  -10.8905 C   0  0  0  0  0  0  0  0  0  0  0  0
  -15.8980  -45.3932  -11.1717 O   0  0  0  0  0  0  0  0  0  0  0  0
  -16.6954  -43.5650  -10.0408 N   0  0  0  0  0  0  0  0  0  0  0  0
  -18.0636  -44.0511   -9.9938 C   0  0  0  0  0  0  0  0  0  0  0  0
  -16.3602  -42.4274   -9.1684 C   0  0  1  0  0  0  0  0  0  0  0  0
  -15.0933  -42.7856   -8.4683 C   0  0  0  0  0  0  0  0  0  0  0  0
  -16.3083  -41.2077   -9.9873 C   0  0  0  0  0  0  0  0  0  0  0  0
  -17.1417  -41.1234  -10.9622 O   0  0  0  0  0  0  0  0  0  0  0  0
  -15.4008  -40.1348   -9.7628 N   0  0  0  0  0  0  0  0  0  0  0  0
  -21.4573  -39.0934   -9.2242 C   0  0  0  0  0  0  0  0  0  0  0  0
  -22.6134  -39.7490   -8.7887 C   0  0  0  0  0  0  0  0  0  0  0  0
  -22.8089  -39.9189   -7.4452 C   0  0  0  0  0  0  0  0  0  0  0  0
  1  2  1  0
  2  3  1  0
  2  4  1  0
  4  5  2  0
  5  6  1  0
  6  7  1  0
  7  8  1  0
  8  9  1  0
  9 10  1  0
 10 11  1  1
 10 12  1  0
 12 13  1  6
 13 14  1  0
 14 15  1  6
 14 16  1  0
 16 17  1  0
 17 18  1  0
 18 19  1  0
 19 20  1  0
 20 21  1  0
 21 22  1  6
 21 23  1  0
 23 24  1  0
 24 25  1  0
 25 26  2  0
 25 27  1  0
 27 28  1  0
 27 29  1  0
 29 30  1  6
 29 31  1  0
 31 32  2  0
 31 33  1  0
  6 34  2  0
 34 35  1  0
 35 36  2  0
 33 12  1  0
 36  4  1  0
M  END
$$$$
