
     RDKit          3D

 36 37  0  0  0  0  0  0  0  0999 V2000
  -10.2361  -41.6465  -10.3236 C   0  0  0  0  0  0  0  0  0  0  0  0
  -11.3611  -42.3455  -11.0480 C   0  0  0  0  0  0  0  0  0  0  0  0
  -10.9319  -42.7138  -12.4594 C   0  0  0  0  0  0  0  0  0  0  0  0
  -12.5849  -41.5223  -11.1065 C   0  0  0  0  0  0  0  0  0  0  0  0
  -12.8711  -40.6266  -10.0799 C   0  0  0  0  0  0  0  0  0  0  0  0
  -14.0162  -39.8644  -10.1433 C   0  0  0  0  0  0  0  0  0  0  0  0
  -14.3278  -38.8978   -9.0339 C   0  0  0  0  0  0  0  0  0  0  0  0
  -15.6510  -38.4366   -9.2454 N   0  0  0  0  0  0  0  0  0  0  0  0
  -16.3864  -37.9583   -8.1484 C   0  0  0  0  0  0  0  0  0  0  0  0
  -16.6528  -39.0103   -7.1042 C   0  0  1  0  0  0  0  0  0  0  0  0
  -16.7490  -38.3988   -5.8638 O   0  0  0  0  0  0  0  0  0  0  0  0
  -17.9758  -39.7381   -7.4103 C   0  0  2  0  0  0  0  0  0  0  0  0
  -19.0490  -38.7620   -7.5990 C   0  0  0  0  0  0  0  0  0  0  0  0
  -19.6731  -38.0257   -6.5146 C   0  0  2  0  0  0  0  0  0  0  0  0
  -19.5599  -38.4968   -5.1058 C   0  0  0  0  0  0  0  0  0  0  0  0
  -21.1100  -37.6296   -6.7318 C   0  0  0  0  0  0  0  0  0  0  0  0
  -22.0603  -38.6411   -7.1940 C   0  0  0  0  0  0  0  0  0  0  0  0
  -22.6688  -39.5288   -6.1111 C   0  0  0  0  0  0  0  0  0  0  0  0
  -22.1053  -40.9458   -6.1803 C   0  0  0  0  0  0  0  0  0  0  0  0
  -23.0816  -41.9730   -6.6221 C   0  0  0  0  0  0  0  0  0  0  0  0
  -22.5634  -42.8578   -7.7327 C   0  0  2  0  0  0  0  0  0  0  0  0
  -23.8094  -43.2856   -8.5256 C   0  0  0  0  0  0  0  0  0  0  0  0
  -21.8930  -44.1049   -7.2830 C   0  0  0  0  0  0  0  0  0  0  0  0
  -20.4916  -43.9844   -6.8050 C   0  0  0  0  0  0  0  0  0  0  0  0
  -19.5069  -44.7590   -7.6274 C   0  0  0  0  0  0  0  0  0  0  0  0
  -19.8709  -45.9096   -7.9809 O   0  0  0  0  0  0  0  0  0  0  0  0
  -18.2444  -44.2941   -8.0145 N   0  0  0  0  0  0  0  0  0  0  0  0
  -17.1576  -45.2344   -8.2268 C   0  0  0  0  0  0  0  0  0  0  0  0
  -17.9443  -42.8679   -8.2238 C   0  0  1  0  0  0  0  0  0  0  0  0
  -19.0416  -42.3214   -9.0728 C   0  0  0  0  0  0  0  0  0  0  0  0
  -17.7789  -42.2259   -6.9119 C   0  0  0  0  0  0  0  0  0  0  0  0
  -17.2361  -42.9287   -5.9825 O   0  0  0  0  0  0  0  0  0  0  0  0
  -18.1806  -40.8922   -6.6206 N   0  0  0  0  0  0  0  0  0  0  0  0
  -14.8894  -39.9642  -11.1986 C   0  0  0  0  0  0  0  0  0  0  0  0
  -14.6025  -40.8637  -12.2304 C   0  0  0  0  0  0  0  0  0  0  0  0
  -13.4609  -41.6141  -12.1530 C   0  0  0  0  0  0  0  0  0  0  0  0
  1  2  1  0
  2  3  1  0
  2  4  1  0
  4  5  2  0
  5  6  1  0
  6  7  1  0
  7  8  1  0
  8  9  1  0
  9 10  1  0
 10 11  1  1
 10 12  1  0
 12 13  1  1
 13 14  1  0
 14 15  1  1
 14 16  1  0
 16 17  1  0
 17 18  1  0
 18 19  1  0
 19 20  1  0
 20 21  1  0
 21 22  1  6
 21 23  1  0
 23 24  1  0
 24 25  1  0
 25 26  2  0
 25 27  1  0
 27 28  1  0
 27 29  1  0
 29 30  1  1
 29 31  1  0
 31 32  2  0
 31 33  1  0
  6 34  2  0
 34 35  1  0
 35 36  2  0
 33 12  1  0
 36  4  1  0
M  END
$$$$
