
     RDKit          3D

 36 37  0  0  0  0  0  0  0  0999 V2000
  -17.1470  -34.2522  -11.9556 C   0  0  0  0  0  0  0  0  0  0  0  0
  -17.0551  -35.7291  -12.2544 C   0  0  0  0  0  0  0  0  0  0  0  0
  -18.1411  -36.4874  -11.5077 C   0  0  0  0  0  0  0  0  0  0  0  0
  -15.7355  -36.2895  -11.9031 C   0  0  0  0  0  0  0  0  0  0  0  0
  -15.6325  -37.6080  -11.4684 C   0  0  0  0  0  0  0  0  0  0  0  0
  -14.3970  -38.1207  -11.1416 C   0  0  0  0  0  0  0  0  0  0  0  0
  -14.2845  -39.5445  -10.6698 C   0  0  0  0  0  0  0  0  0  0  0  0
  -14.1655  -39.5051   -9.2582 N   0  0  0  0  0  0  0  0  0  0  0  0
  -15.0923  -40.2169   -8.4789 C   0  0  0  0  0  0  0  0  0  0  0  0
  -16.1344  -39.3377   -7.8395 C   0  0  1  0  0  0  0  0  0  0  0  0
  -16.2400  -38.1626   -8.5674 O   0  0  0  0  0  0  0  0  0  0  0  0
  -17.4999  -40.0512   -7.8352 C   0  0  2  0  0  0  0  0  0  0  0  0
  -18.5762  -39.0677   -7.9552 C   0  0  0  0  0  0  0  0  0  0  0  0
  -18.9984  -38.1942   -6.8753 C   0  0  2  0  0  0  0  0  0  0  0  0
  -18.6557  -38.5078   -5.4597 C   0  0  0  0  0  0  0  0  0  0  0  0
  -20.4458  -37.7779   -6.8954 C   0  0  0  0  0  0  0  0  0  0  0  0
  -21.4741  -38.8031   -7.0730 C   0  0  0  0  0  0  0  0  0  0  0  0
  -21.9034  -39.5431   -5.8085 C   0  0  0  0  0  0  0  0  0  0  0  0
  -21.3790  -40.9768   -5.8052 C   0  0  0  0  0  0  0  0  0  0  0  0
  -22.4297  -42.0144   -5.9566 C   0  0  0  0  0  0  0  0  0  0  0  0
  -22.1183  -43.0347   -7.0275 C   0  0  2  0  0  0  0  0  0  0  0  0
  -23.4859  -43.5074   -7.5475 C   0  0  0  0  0  0  0  0  0  0  0  0
  -21.3987  -44.2449   -6.5535 C   0  0  0  0  0  0  0  0  0  0  0  0
  -19.9353  -44.1178   -6.3320 C   0  0  0  0  0  0  0  0  0  0  0  0
  -19.1140  -45.0117   -7.2107 C   0  0  0  0  0  0  0  0  0  0  0  0
  -19.5481  -46.1821   -7.3629 O   0  0  0  0  0  0  0  0  0  0  0  0
  -17.9286  -44.6349   -7.8533 N   0  0  0  0  0  0  0  0  0  0  0  0
  -16.9061  -45.6284   -8.1323 C   0  0  0  0  0  0  0  0  0  0  0  0
  -17.6487  -43.2519   -8.2737 C   0  0  1  0  0  0  0  0  0  0  0  0
  -18.8659  -42.7682   -8.9864 C   0  0  0  0  0  0  0  0  0  0  0  0
  -17.2557  -42.4726   -7.0909 C   0  0  0  0  0  0  0  0  0  0  0  0
  -16.5737  -43.0842   -6.1892 O   0  0  0  0  0  0  0  0  0  0  0  0
  -17.5843  -41.1021   -6.8939 N   0  0  0  0  0  0  0  0  0  0  0  0
  -13.2560  -37.3620  -11.2334 C   0  0  0  0  0  0  0  0  0  0  0  0
  -13.3586  -36.0373  -11.6702 C   0  0  0  0  0  0  0  0  0  0  0  0
  -14.5932  -35.5423  -11.9912 C   0  0  0  0  0  0  0  0  0  0  0  0
  1  2  1  0
  2  3  1  0
  2  4  1  0
  4  5  2  0
  5  6  1  0
  6  7  1  0
  7  8  1  0
  8  9  1  0
  9 10  1  0
 10 11  1  6
 10 12  1  0
 12 13  1  1
 13 14  1  0
 14 15  1  1
 14 16  1  0
 16 17  1  0
 17 18  1  0
 18 19  1  0
 19 20  1  0
 20 21  1  0
 21 22  1  1
 21 23  1  0
 23 24  1  0
 24 25  1  0
 25 26  2  0
 25 27  1  0
 27 28  1  0
 27 29  1  0
 29 30  1  1
 29 31  1  0
 31 32  2  0
 31 33  1  0
  6 34  2  0
 34 35  1  0
 35 36  2  0
 33 12  1  0
 36  4  1  0
M  END
$$$$
