
     RDKit          3D

 36 37  0  0  0  0  0  0  0  0999 V2000
  -18.0662  -43.5248  -12.8040 C   0  0  0  0  0  0  0  0  0  0  0  0
  -16.7218  -43.3267  -12.1466 C   0  0  0  0  0  0  0  0  0  0  0  0
  -16.7277  -43.9154  -10.7447 C   0  0  0  0  0  0  0  0  0  0  0  0
  -16.3367  -41.9033  -12.0794 C   0  0  0  0  0  0  0  0  0  0  0  0
  -15.3781  -41.4842  -11.1609 C   0  0  0  0  0  0  0  0  0  0  0  0
  -15.0271  -40.1539  -11.1051 C   0  0  0  0  0  0  0  0  0  0  0  0
  -13.9931  -39.6992  -10.1119 C   0  0  0  0  0  0  0  0  0  0  0  0
  -14.5295  -39.9293   -8.8205 N   0  0  0  0  0  0  0  0  0  0  0  0
  -15.5078  -39.0512   -8.3257 C   0  0  0  0  0  0  0  0  0  0  0  0
  -16.1189  -39.5088   -7.0277 C   0  0  1  0  0  0  0  0  0  0  0  0
  -16.2524  -38.4173   -6.1836 O   0  0  0  0  0  0  0  0  0  0  0  0
  -17.5099  -40.1202   -7.2831 C   0  0  2  0  0  0  0  0  0  0  0  0
  -18.3440  -39.1701   -8.0190 C   0  0  0  0  0  0  0  0  0  0  0  0
  -18.9423  -37.9887   -7.4241 C   0  0  2  0  0  0  0  0  0  0  0  0
  -19.0946  -37.8699   -5.9469 C   0  0  0  0  0  0  0  0  0  0  0  0
  -20.2388  -37.5294   -8.0382 C   0  0  0  0  0  0  0  0  0  0  0  0
  -21.3023  -38.5089   -8.2602 C   0  0  0  0  0  0  0  0  0  0  0  0
  -22.1977  -38.8048   -7.0595 C   0  0  0  0  0  0  0  0  0  0  0  0
  -21.9132  -40.1921   -6.4895 C   0  0  0  0  0  0  0  0  0  0  0  0
  -23.0076  -41.1743   -6.6919 C   0  0  0  0  0  0  0  0  0  0  0  0
  -22.5377  -42.4873   -7.2753 C   0  0  2  0  0  0  0  0  0  0  0  0
  -23.7366  -43.0301   -8.0705 C   0  0  0  0  0  0  0  0  0  0  0  0
  -22.1798  -43.5274   -6.2768 C   0  0  0  0  0  0  0  0  0  0  0  0
  -20.8504  -43.4091   -5.6245 C   0  0  0  0  0  0  0  0  0  0  0  0
  -19.9403  -44.5676   -5.8993 C   0  0  0  0  0  0  0  0  0  0  0  0
  -20.4730  -45.7061   -5.8608 O   0  0  0  0  0  0  0  0  0  0  0  0
  -18.5743  -44.4632   -6.1876 N   0  0  0  0  0  0  0  0  0  0  0  0
  -17.6712  -45.5424   -5.8270 C   0  0  0  0  0  0  0  0  0  0  0  0
  -17.9822  -43.2904   -6.8523 C   0  0  1  0  0  0  0  0  0  0  0  0
  -18.8419  -42.9902   -8.0331 C   0  0  0  0  0  0  0  0  0  0  0  0
  -17.8576  -42.2063   -5.8675 C   0  0  0  0  0  0  0  0  0  0  0  0
  -17.5778  -42.5445   -4.6594 O   0  0  0  0  0  0  0  0  0  0  0  0
  -18.0277  -40.8271   -6.1742 N   0  0  0  0  0  0  0  0  0  0  0  0
  -15.6004  -39.2230  -11.9362 C   0  0  0  0  0  0  0  0  0  0  0  0
  -16.5634  -39.6433  -12.8593 C   0  0  0  0  0  0  0  0  0  0  0  0
  -16.9016  -40.9684  -12.9026 C   0  0  0  0  0  0  0  0  0  0  0  0
  1  2  1  0
  2  3  1  0
  2  4  1  0
  4  5  2  0
  5  6  1  0
  6  7  1  0
  7  8  1  0
  8  9  1  0
  9 10  1  0
 10 11  1  1
 10 12  1  0
 12 13  1  1
 13 14  1  0
 14 15  1  1
 14 16  1  0
 16 17  1  0
 17 18  1  0
 18 19  1  0
 19 20  1  0
 20 21  1  0
 21 22  1  6
 21 23  1  0
 23 24  1  0
 24 25  1  0
 25 26  2  0
 25 27  1  0
 27 28  1  0
 27 29  1  0
 29 30  1  6
 29 31  1  0
 31 32  2  0
 31 33  1  0
  6 34  2  0
 34 35  1  0
 35 36  2  0
 33 12  1  0
 36  4  1  0
M  END
$$$$
