
     RDKit          3D

 36 37  0  0  0  0  0  0  0  0999 V2000
  -12.6070  -40.6506  -13.9311 C   0  0  0  0  0  0  0  0  0  0  0  0
  -11.9783  -39.2782  -13.9359 C   0  0  0  0  0  0  0  0  0  0  0  0
  -10.5406  -39.3544  -13.4466 C   0  0  0  0  0  0  0  0  0  0  0  0
  -12.7289  -38.3164  -13.1049 C   0  0  0  0  0  0  0  0  0  0  0  0
  -13.0624  -38.6419  -11.7930 C   0  0  0  0  0  0  0  0  0  0  0  0
  -13.7641  -37.7384  -11.0266 C   0  0  0  0  0  0  0  0  0  0  0  0
  -14.1269  -38.0894   -9.6098 C   0  0  0  0  0  0  0  0  0  0  0  0
  -15.4885  -37.7393   -9.4317 N   0  0  0  0  0  0  0  0  0  0  0  0
  -16.4238  -38.7569   -9.1814 C   0  0  0  0  0  0  0  0  0  0  0  0
  -17.7839  -38.2363   -8.7979 C   0  0  1  0  0  0  0  0  0  0  0  0
  -18.2662  -37.4387   -9.8239 O   0  0  0  0  0  0  0  0  0  0  0  0
  -18.7566  -39.4099   -8.5732 C   0  0  2  0  0  0  0  0  0  0  0  0
  -20.1369  -38.9271   -8.6125 C   0  0  0  0  0  0  0  0  0  0  0  0
  -20.7602  -38.1696   -7.5423 C   0  0  2  0  0  0  0  0  0  0  0  0
  -20.1884  -38.1773   -6.1667 C   0  0  0  0  0  0  0  0  0  0  0  0
  -22.2502  -38.3384   -7.4002 C   0  0  0  0  0  0  0  0  0  0  0  0
  -22.8102  -39.6897   -7.3801 C   0  0  0  0  0  0  0  0  0  0  0  0
  -22.7940  -40.3983   -6.0279 C   0  0  0  0  0  0  0  0  0  0  0  0
  -21.7551  -41.5166   -6.0051 C   0  0  0  0  0  0  0  0  0  0  0  0
  -22.3282  -42.8850   -5.9555 C   0  0  0  0  0  0  0  0  0  0  0  0
  -21.7484  -43.8184   -6.9934 C   0  0  2  0  0  0  0  0  0  0  0  0
  -22.8672  -44.8272   -7.3020 C   0  0  0  0  0  0  0  0  0  0  0  0
  -20.5727  -44.6073   -6.5437 C   0  0  0  0  0  0  0  0  0  0  0  0
  -19.2603  -43.9116   -6.5218 C   0  0  0  0  0  0  0  0  0  0  0  0
  -18.2442  -44.5150   -7.4433 C   0  0  0  0  0  0  0  0  0  0  0  0
  -18.2007  -45.7716   -7.4663 O   0  0  0  0  0  0  0  0  0  0  0  0
  -17.3665  -43.7872   -8.2558 N   0  0  0  0  0  0  0  0  0  0  0  0
  -16.0698  -44.3420   -8.6038 C   0  0  0  0  0  0  0  0  0  0  0  0
  -17.6889  -42.4546   -8.7926 C   0  0  1  0  0  0  0  0  0  0  0  0
  -19.0606  -42.5478   -9.3698 C   0  0  0  0  0  0  0  0  0  0  0  0
  -17.5188  -41.4635   -7.7204 C   0  0  0  0  0  0  0  0  0  0  0  0
  -16.5694  -41.6709   -6.8791 O   0  0  0  0  0  0  0  0  0  0  0  0
  -18.3345  -40.3076   -7.5665 N   0  0  0  0  0  0  0  0  0  0  0  0
  -14.1465  -36.5168  -11.5242 C   0  0  0  0  0  0  0  0  0  0  0  0
  -13.8118  -36.1890  -12.8420 C   0  0  0  0  0  0  0  0  0  0  0  0
  -13.1143  -37.0974  -13.5909 C   0  0  0  0  0  0  0  0  0  0  0  0
  1  2  1  0
  2  3  1  0
  2  4  1  0
  4  5  2  0
  5  6  1  0
  6  7  1  0
  7  8  1  0
  8  9  1  0
  9 10  1  0
 10 11  1  6
 10 12  1  0
 12 13  1  1
 13 14  1  0
 14 15  1  1
 14 16  1  0
 16 17  1  0
 17 18  1  0
 18 19  1  0
 19 20  1  0
 20 21  1  0
 21 22  1  1
 21 23  1  0
 23 24  1  0
 24 25  1  0
 25 26  2  0
 25 27  1  0
 27 28  1  0
 27 29  1  0
 29 30  1  1
 29 31  1  0
 31 32  2  0
 31 33  1  0
  6 34  2  0
 34 35  1  0
 35 36  2  0
 33 12  1  0
 36  4  1  0
M  END
$$$$
