
     RDKit          3D

 36 37  0  0  0  0  0  0  0  0999 V2000
  -12.2983  -35.6654  -12.8720 C   0  0  0  0  0  0  0  0  0  0  0  0
  -13.7167  -36.1133  -12.6139 C   0  0  0  0  0  0  0  0  0  0  0  0
  -14.2135  -35.5559  -11.2893 C   0  0  0  0  0  0  0  0  0  0  0  0
  -13.8461  -37.5837  -12.6068 C   0  0  0  0  0  0  0  0  0  0  0  0
  -13.6609  -38.2930  -11.4233 C   0  0  0  0  0  0  0  0  0  0  0  0
  -13.7823  -39.6646  -11.4277 C   0  0  0  0  0  0  0  0  0  0  0  0
  -13.5805  -40.4326  -10.1502 C   0  0  0  0  0  0  0  0  0  0  0  0
  -14.8674  -40.7120   -9.6268 N   0  0  0  0  0  0  0  0  0  0  0  0
  -15.8296  -39.6889   -9.6090 C   0  0  0  0  0  0  0  0  0  0  0  0
  -16.3635  -39.3957   -8.2317 C   0  0  1  0  0  0  0  0  0  0  0  0
  -16.4747  -38.0228   -8.0749 O   0  0  0  0  0  0  0  0  0  0  0  0
  -17.7535  -40.0364   -8.0546 C   0  0  2  0  0  0  0  0  0  0  0  0
  -18.7954  -39.0679   -8.3958 C   0  0  0  0  0  0  0  0  0  0  0  0
  -19.1717  -37.9514   -7.5475 C   0  0  2  0  0  0  0  0  0  0  0  0
  -18.8214  -37.9393   -6.0995 C   0  0  0  0  0  0  0  0  0  0  0  0
  -20.6034  -37.4968   -7.6575 C   0  0  0  0  0  0  0  0  0  0  0  0
  -21.6700  -38.4954   -7.5860 C   0  0  0  0  0  0  0  0  0  0  0  0
  -22.1084  -38.9036   -6.1817 C   0  0  0  0  0  0  0  0  0  0  0  0
  -21.6356  -40.3158   -5.8465 C   0  0  0  0  0  0  0  0  0  0  0  0
  -22.7246  -41.3196   -5.7466 C   0  0  0  0  0  0  0  0  0  0  0  0
  -22.4642  -42.5724   -6.5512 C   0  0  2  0  0  0  0  0  0  0  0  0
  -23.8548  -43.1011   -6.9401 C   0  0  0  0  0  0  0  0  0  0  0  0
  -21.7821  -43.6652   -5.8113 C   0  0  0  0  0  0  0  0  0  0  0  0
  -20.3122  -43.5454   -5.6325 C   0  0  0  0  0  0  0  0  0  0  0  0
  -19.5353  -44.6500   -6.2822 C   0  0  0  0  0  0  0  0  0  0  0  0
  -20.0129  -45.8064   -6.1551 O   0  0  0  0  0  0  0  0  0  0  0  0
  -18.3459  -44.4785   -7.0005 N   0  0  0  0  0  0  0  0  0  0  0  0
  -17.3634  -45.5477   -7.0448 C   0  0  0  0  0  0  0  0  0  0  0  0
  -18.0225  -43.2432   -7.7334 C   0  0  1  0  0  0  0  0  0  0  0  0
  -19.2311  -42.8931   -8.5336 C   0  0  0  0  0  0  0  0  0  0  0  0
  -17.5860  -42.2251   -6.7670 C   0  0  0  0  0  0  0  0  0  0  0  0
  -16.9142  -42.6352   -5.7507 O   0  0  0  0  0  0  0  0  0  0  0  0
  -17.8628  -40.8350   -6.8937 N   0  0  0  0  0  0  0  0  0  0  0  0
  -14.0832  -40.3566  -12.5751 C   0  0  0  0  0  0  0  0  0  0  0  0
  -14.2696  -39.6447  -13.7644 C   0  0  0  0  0  0  0  0  0  0  0  0
  -14.1455  -38.2822  -13.7440 C   0  0  0  0  0  0  0  0  0  0  0  0
  1  2  1  0
  2  3  1  0
  2  4  1  0
  4  5  2  0
  5  6  1  0
  6  7  1  0
  7  8  1  0
  8  9  1  0
  9 10  1  0
 10 11  1  6
 10 12  1  0
 12 13  1  1
 13 14  1  0
 14 15  1  1
 14 16  1  0
 16 17  1  0
 17 18  1  0
 18 19  1  0
 19 20  1  0
 20 21  1  0
 21 22  1  1
 21 23  1  0
 23 24  1  0
 24 25  1  0
 25 26  2  0
 25 27  1  0
 27 28  1  0
 27 29  1  0
 29 30  1  1
 29 31  1  0
 31 32  2  0
 31 33  1  0
  6 34  2  0
 34 35  1  0
 35 36  2  0
 33 12  1  0
 36  4  1  0
M  END
$$$$
