
     RDKit          3D

 36 37  0  0  0  0  0  0  0  0999 V2000
  -11.6952  -35.4463  -11.2333 C   0  0  0  0  0  0  0  0  0  0  0  0
  -11.9028  -36.3148  -12.4504 C   0  0  0  0  0  0  0  0  0  0  0  0
  -12.8441  -35.6333  -13.4309 C   0  0  0  0  0  0  0  0  0  0  0  0
  -12.4369  -37.6463  -12.1025 C   0  0  0  0  0  0  0  0  0  0  0  0
  -12.5063  -38.0419  -10.7696 C   0  0  0  0  0  0  0  0  0  0  0  0
  -13.0047  -39.2865  -10.4558 C   0  0  0  0  0  0  0  0  0  0  0  0
  -13.0784  -39.7162   -9.0162 C   0  0  0  0  0  0  0  0  0  0  0  0
  -14.3743  -39.3826   -8.5499 N   0  0  0  0  0  0  0  0  0  0  0  0
  -15.1669  -40.3875   -7.9713 C   0  0  0  0  0  0  0  0  0  0  0  0
  -16.1310  -39.8666   -6.9383 C   0  0  1  0  0  0  0  0  0  0  0  0
  -16.1401  -38.4813   -6.9893 O   0  0  0  0  0  0  0  0  0  0  0  0
  -17.5511  -40.3899   -7.2271 C   0  0  2  0  0  0  0  0  0  0  0  0
  -18.4555  -39.2666   -7.4727 C   0  0  0  0  0  0  0  0  0  0  0  0
  -18.9604  -38.3913   -6.4304 C   0  0  2  0  0  0  0  0  0  0  0  0
  -18.9298  -38.8082   -5.0004 C   0  0  0  0  0  0  0  0  0  0  0  0
  -20.3155  -37.7840   -6.6825 C   0  0  0  0  0  0  0  0  0  0  0  0
  -21.4116  -38.6533   -7.1099 C   0  0  0  0  0  0  0  0  0  0  0  0
  -22.1580  -39.3824   -5.9953 C   0  0  0  0  0  0  0  0  0  0  0  0
  -21.8254  -40.8723   -5.9934 C   0  0  0  0  0  0  0  0  0  0  0  0
  -22.9498  -41.7520   -6.3999 C   0  0  0  0  0  0  0  0  0  0  0  0
  -22.5728  -42.7582   -7.4631 C   0  0  2  0  0  0  0  0  0  0  0  0
  -23.8671  -43.0205   -8.2507 C   0  0  0  0  0  0  0  0  0  0  0  0
  -22.1103  -44.0732   -6.9493 C   0  0  0  0  0  0  0  0  0  0  0  0
  -20.7098  -44.1532   -6.4604 C   0  0  0  0  0  0  0  0  0  0  0  0
  -19.8561  -45.1109   -7.2350 C   0  0  0  0  0  0  0  0  0  0  0  0
  -20.3959  -46.2049   -7.5404 O   0  0  0  0  0  0  0  0  0  0  0  0
  -18.5341  -44.8696   -7.6275 N   0  0  0  0  0  0  0  0  0  0  0  0
  -17.6088  -45.9786   -7.7839 C   0  0  0  0  0  0  0  0  0  0  0  0
  -18.0113  -43.5200   -7.8976 C   0  0  1  0  0  0  0  0  0  0  0  0
  -19.0043  -42.8474   -8.7836 C   0  0  0  0  0  0  0  0  0  0  0  0
  -17.7526  -42.8517   -6.6142 C   0  0  0  0  0  0  0  0  0  0  0  0
  -17.3322  -43.5873   -5.6474 O   0  0  0  0  0  0  0  0  0  0  0  0
  -17.9396  -41.4592   -6.3885 N   0  0  0  0  0  0  0  0  0  0  0  0
  -13.4382  -40.1541  -11.4281 C   0  0  0  0  0  0  0  0  0  0  0  0
  -13.3689  -39.7573  -12.7675 C   0  0  0  0  0  0  0  0  0  0  0  0
  -12.8712  -38.5176  -13.0633 C   0  0  0  0  0  0  0  0  0  0  0  0
  1  2  1  0
  2  3  1  0
  2  4  1  0
  4  5  2  0
  5  6  1  0
  6  7  1  0
  7  8  1  0
  8  9  1  0
  9 10  1  0
 10 11  1  6
 10 12  1  0
 12 13  1  1
 13 14  1  0
 14 15  1  1
 14 16  1  0
 16 17  1  0
 17 18  1  0
 18 19  1  0
 19 20  1  0
 20 21  1  0
 21 22  1  6
 21 23  1  0
 23 24  1  0
 24 25  1  0
 25 26  2  0
 25 27  1  0
 27 28  1  0
 27 29  1  0
 29 30  1  6
 29 31  1  0
 31 32  2  0
 31 33  1  0
  6 34  2  0
 34 35  1  0
 35 36  2  0
 33 12  1  0
 36  4  1  0
M  END
$$$$
