
     RDKit          3D

 36 37  0  0  0  0  0  0  0  0999 V2000
  -13.5625  -34.7657  -11.4718 C   0  0  0  0  0  0  0  0  0  0  0  0
  -12.5875  -35.8282  -11.9182 C   0  0  0  0  0  0  0  0  0  0  0  0
  -11.8954  -35.4031  -13.2036 C   0  0  0  0  0  0  0  0  0  0  0  0
  -13.2407  -37.1361  -12.1222 C   0  0  0  0  0  0  0  0  0  0  0  0
  -13.1207  -38.1322  -11.1571 C   0  0  0  0  0  0  0  0  0  0  0  0
  -13.7326  -39.3493  -11.3577 C   0  0  0  0  0  0  0  0  0  0  0  0
  -13.6021  -40.4272  -10.3167 C   0  0  0  0  0  0  0  0  0  0  0  0
  -14.2258  -39.9441   -9.1395 N   0  0  0  0  0  0  0  0  0  0  0  0
  -15.4201  -40.5451   -8.7088 C   0  0  0  0  0  0  0  0  0  0  0  0
  -16.5587  -39.5707   -8.5602 C   0  0  1  0  0  0  0  0  0  0  0  0
  -16.6845  -38.8432   -9.7335 O   0  0  0  0  0  0  0  0  0  0  0  0
  -17.8737  -40.3286   -8.2948 C   0  0  2  0  0  0  0  0  0  0  0  0
  -19.0122  -39.4271   -8.4707 C   0  0  0  0  0  0  0  0  0  0  0  0
  -19.3825  -38.3957   -7.5186 C   0  0  2  0  0  0  0  0  0  0  0  0
  -18.8915  -38.4409   -6.1128 C   0  0  0  0  0  0  0  0  0  0  0  0
  -20.8474  -38.0499   -7.4619 C   0  0  0  0  0  0  0  0  0  0  0  0
  -21.8259  -39.1322   -7.3558 C   0  0  0  0  0  0  0  0  0  0  0  0
  -22.0912  -39.6556   -5.9464 C   0  0  0  0  0  0  0  0  0  0  0  0
  -21.4856  -41.0432   -5.7517 C   0  0  0  0  0  0  0  0  0  0  0  0
  -22.4831  -42.1340   -5.6155 C   0  0  0  0  0  0  0  0  0  0  0  0
  -22.2136  -43.3129   -6.5224 C   0  0  2  0  0  0  0  0  0  0  0  0
  -23.5936  -43.9262   -6.8117 C   0  0  0  0  0  0  0  0  0  0  0  0
  -21.3832  -44.3900   -5.9245 C   0  0  0  0  0  0  0  0  0  0  0  0
  -19.9155  -44.1651   -5.8784 C   0  0  0  0  0  0  0  0  0  0  0  0
  -19.1287  -45.1647   -6.6706 C   0  0  0  0  0  0  0  0  0  0  0  0
  -19.5056  -46.3607   -6.5755 O   0  0  0  0  0  0  0  0  0  0  0  0
  -18.0325  -44.8579   -7.4856 N   0  0  0  0  0  0  0  0  0  0  0  0
  -16.9839  -45.8416   -7.6936 C   0  0  0  0  0  0  0  0  0  0  0  0
  -17.8746  -43.5599   -8.1624 C   0  0  1  0  0  0  0  0  0  0  0  0
  -19.1793  -43.2601   -8.8194 C   0  0  0  0  0  0  0  0  0  0  0  0
  -17.4195  -42.5691   -7.1766 C   0  0  0  0  0  0  0  0  0  0  0  0
  -16.6216  -42.9838   -6.2580 O   0  0  0  0  0  0  0  0  0  0  0  0
  -17.8082  -41.2002   -7.1842 N   0  0  0  0  0  0  0  0  0  0  0  0
  -14.4629  -39.6093  -12.4913 C   0  0  0  0  0  0  0  0  0  0  0  0
  -14.5841  -38.6091  -13.4613 C   0  0  0  0  0  0  0  0  0  0  0  0
  -13.9702  -37.4050  -13.2475 C   0  0  0  0  0  0  0  0  0  0  0  0
  1  2  1  0
  2  3  1  0
  2  4  1  0
  4  5  2  0
  5  6  1  0
  6  7  1  0
  7  8  1  0
  8  9  1  0
  9 10  1  0
 10 11  1  6
 10 12  1  0
 12 13  1  1
 13 14  1  0
 14 15  1  1
 14 16  1  0
 16 17  1  0
 17 18  1  0
 18 19  1  0
 19 20  1  0
 20 21  1  0
 21 22  1  1
 21 23  1  0
 23 24  1  0
 24 25  1  0
 25 26  2  0
 25 27  1  0
 27 28  1  0
 27 29  1  0
 29 30  1  1
 29 31  1  0
 31 32  2  0
 31 33  1  0
  6 34  2  0
 34 35  1  0
 35 36  2  0
 33 12  1  0
 36  4  1  0
M  END
$$$$
