
     RDKit          3D

 36 37  0  0  0  0  0  0  0  0999 V2000
  -24.2934  -39.6800   -7.4593 C   0  0  0  0  0  0  0  0  0  0  0  0
  -24.1493  -40.4307   -6.1576 C   0  0  0  0  0  0  0  0  0  0  0  0
  -24.4637  -39.5170   -4.9836 C   0  0  0  0  0  0  0  0  0  0  0  0
  -22.7982  -41.0005   -5.9876 C   0  0  0  0  0  0  0  0  0  0  0  0
  -21.7491  -40.5546   -6.7867 C   0  0  0  0  0  0  0  0  0  0  0  0
  -20.4928  -41.0937   -6.6212 C   0  0  0  0  0  0  0  0  0  0  0  0
  -19.3588  -40.6145   -7.4853 C   0  0  0  0  0  0  0  0  0  0  0  0
  -18.3281  -40.1821   -6.6142 N   0  0  0  0  0  0  0  0  0  0  0  0
  -17.0035  -40.1740   -7.0815 C   0  0  0  0  0  0  0  0  0  0  0  0
  -16.6143  -38.8817   -7.7496 C   0  0  1  0  0  0  0  0  0  0  0  0
  -16.2725  -37.9565   -6.7755 O   0  0  0  0  0  0  0  0  0  0  0  0
  -15.4040  -39.1073   -8.6759 C   0  0  2  0  0  0  0  0  0  0  0  0
  -14.6553  -37.8600   -8.8300 C   0  0  0  0  0  0  0  0  0  0  0  0
  -15.1028  -36.7425   -9.6415 C   0  0  2  0  0  0  0  0  0  0  0  0
  -16.1402  -36.9292  -10.6944 C   0  0  0  0  0  0  0  0  0  0  0  0
  -14.0156  -35.8902  -10.2416 C   0  0  0  0  0  0  0  0  0  0  0  0
  -12.9119  -36.5434  -10.9451 C   0  0  0  0  0  0  0  0  0  0  0  0
  -13.1718  -36.9027  -12.4060 C   0  0  0  0  0  0  0  0  0  0  0  0
  -13.3336  -38.4105  -12.5814 C   0  0  0  0  0  0  0  0  0  0  0  0
  -12.2251  -39.0642  -13.3212 C   0  0  0  0  0  0  0  0  0  0  0  0
  -11.6685  -40.2817  -12.6192 C   0  0  2  0  0  0  0  0  0  0  0  0
  -10.1954  -40.3620  -13.0528 C   0  0  0  0  0  0  0  0  0  0  0  0
  -12.2984  -41.5716  -13.0018 C   0  0  0  0  0  0  0  0  0  0  0  0
  -13.6125  -41.8907  -12.3868 C   0  0  0  0  0  0  0  0  0  0  0  0
  -13.5952  -43.1251  -11.5372 C   0  0  0  0  0  0  0  0  0  0  0  0
  -12.9523  -44.1018  -12.0001 O   0  0  0  0  0  0  0  0  0  0  0  0
  -14.2318  -43.2537  -10.2970 N   0  0  0  0  0  0  0  0  0  0  0  0
  -14.7044  -44.5542   -9.8544 C   0  0  0  0  0  0  0  0  0  0  0  0
  -14.4580  -42.1164   -9.3898 C   0  0  1  0  0  0  0  0  0  0  0  0
  -13.1640  -41.3813   -9.2965 C   0  0  0  0  0  0  0  0  0  0  0  0
  -15.5961  -41.3340   -9.8932 C   0  0  0  0  0  0  0  0  0  0  0  0
  -16.5515  -41.9871  -10.4524 O   0  0  0  0  0  0  0  0  0  0  0  0
  -15.6947  -39.9176   -9.7968 N   0  0  0  0  0  0  0  0  0  0  0  0
  -20.2449  -42.0656   -5.6832 C   0  0  0  0  0  0  0  0  0  0  0  0
  -21.2983  -42.5140   -4.8798 C   0  0  0  0  0  0  0  0  0  0  0  0
  -22.5408  -41.9687   -5.0563 C   0  0  0  0  0  0  0  0  0  0  0  0
  1  2  1  0
  2  3  1  0
  2  4  1  0
  4  5  2  0
  5  6  1  0
  6  7  1  0
  7  8  1  0
  8  9  1  0
  9 10  1  0
 10 11  1  1
 10 12  1  0
 12 13  1  6
 13 14  1  0
 14 15  1  6
 14 16  1  0
 16 17  1  0
 17 18  1  0
 18 19  1  0
 19 20  1  0
 20 21  1  0
 21 22  1  6
 21 23  1  0
 23 24  1  0
 24 25  1  0
 25 26  2  0
 25 27  1  0
 27 28  1  0
 27 29  1  0
 29 30  1  6
 29 31  1  0
 31 32  2  0
 31 33  1  0
  6 34  2  0
 34 35  1  0
 35 36  2  0
 33 12  1  0
 36  4  1  0
M  END
$$$$
