
     RDKit          3D

 36 37  0  0  0  0  0  0  0  0999 V2000
  -11.8711  -37.4915  -13.8348 C   0  0  0  0  0  0  0  0  0  0  0  0
  -13.1378  -36.6709  -13.8059 C   0  0  0  0  0  0  0  0  0  0  0  0
  -12.8134  -35.2080  -13.5475 C   0  0  0  0  0  0  0  0  0  0  0  0
  -14.0908  -37.1496  -12.7853 C   0  0  0  0  0  0  0  0  0  0  0  0
  -13.6710  -37.3278  -11.4700 C   0  0  0  0  0  0  0  0  0  0  0  0
  -14.5674  -37.7763  -10.5259 C   0  0  0  0  0  0  0  0  0  0  0  0
  -14.1147  -37.9712   -9.1049 C   0  0  0  0  0  0  0  0  0  0  0  0
  -14.2016  -39.3585   -8.8288 N   0  0  0  0  0  0  0  0  0  0  0  0
  -15.4663  -39.9696   -8.8146 C   0  0  0  0  0  0  0  0  0  0  0  0
  -16.4445  -39.2953   -7.8892 C   0  0  1  0  0  0  0  0  0  0  0  0
  -16.6132  -37.9801   -8.2935 O   0  0  0  0  0  0  0  0  0  0  0  0
  -17.8055  -40.0158   -7.9404 C   0  0  2  0  0  0  0  0  0  0  0  0
  -18.8857  -39.0337   -8.0330 C   0  0  0  0  0  0  0  0  0  0  0  0
  -19.3310  -38.2131   -6.9213 C   0  0  2  0  0  0  0  0  0  0  0  0
  -19.0095  -38.5895   -5.5162 C   0  0  0  0  0  0  0  0  0  0  0  0
  -20.7804  -37.8043   -6.9464 C   0  0  0  0  0  0  0  0  0  0  0  0
  -21.7993  -38.8258   -7.1878 C   0  0  0  0  0  0  0  0  0  0  0  0
  -22.2445  -39.6255   -5.9659 C   0  0  0  0  0  0  0  0  0  0  0  0
  -21.7113  -41.0549   -6.0197 C   0  0  0  0  0  0  0  0  0  0  0  0
  -22.7529  -42.0901   -6.2359 C   0  0  0  0  0  0  0  0  0  0  0  0
  -22.4177  -43.0584   -7.3472 C   0  0  2  0  0  0  0  0  0  0  0  0
  -23.7737  -43.5142   -7.9109 C   0  0  0  0  0  0  0  0  0  0  0  0
  -21.6985  -44.2852   -6.9173 C   0  0  0  0  0  0  0  0  0  0  0  0
  -20.2397  -44.1604   -6.6659 C   0  0  0  0  0  0  0  0  0  0  0  0
  -19.3986  -45.0084   -7.5710 C   0  0  0  0  0  0  0  0  0  0  0  0
  -19.8228  -46.1730   -7.7840 O   0  0  0  0  0  0  0  0  0  0  0  0
  -18.2053  -44.5961   -8.1758 N   0  0  0  0  0  0  0  0  0  0  0  0
  -17.1722  -45.5701   -8.4832 C   0  0  0  0  0  0  0  0  0  0  0  0
  -17.9272  -43.1937   -8.5277 C   0  0  1  0  0  0  0  0  0  0  0  0
  -19.1356  -42.6844   -9.2376 C   0  0  0  0  0  0  0  0  0  0  0  0
  -17.5584  -42.4674   -7.3040 C   0  0  0  0  0  0  0  0  0  0  0  0
  -16.8874  -43.1161   -6.4202 O   0  0  0  0  0  0  0  0  0  0  0  0
  -17.8987  -41.1093   -7.0498 N   0  0  0  0  0  0  0  0  0  0  0  0
  -15.8730  -38.0544  -10.8484 C   0  0  0  0  0  0  0  0  0  0  0  0
  -16.2956  -37.8756  -12.1696 C   0  0  0  0  0  0  0  0  0  0  0  0
  -15.3931  -37.4294  -13.0962 C   0  0  0  0  0  0  0  0  0  0  0  0
  1  2  1  0
  2  3  1  0
  2  4  1  0
  4  5  2  0
  5  6  1  0
  6  7  1  0
  7  8  1  0
  8  9  1  0
  9 10  1  0
 10 11  1  6
 10 12  1  0
 12 13  1  1
 13 14  1  0
 14 15  1  1
 14 16  1  0
 16 17  1  0
 17 18  1  0
 18 19  1  0
 19 20  1  0
 20 21  1  0
 21 22  1  1
 21 23  1  0
 23 24  1  0
 24 25  1  0
 25 26  2  0
 25 27  1  0
 27 28  1  0
 27 29  1  0
 29 30  1  1
 29 31  1  0
 31 32  2  0
 31 33  1  0
  6 34  2  0
 34 35  1  0
 35 36  2  0
 33 12  1  0
 36  4  1  0
M  END
$$$$
