
     RDKit          3D

 36 37  0  0  0  0  0  0  0  0999 V2000
  -12.9223  -35.1551  -12.4740 C   0  0  0  0  0  0  0  0  0  0  0  0
  -12.3057  -36.4336  -11.9603 C   0  0  0  0  0  0  0  0  0  0  0  0
  -11.0180  -36.7371  -12.7098 C   0  0  0  0  0  0  0  0  0  0  0  0
  -13.2239  -37.5835  -12.0773 C   0  0  0  0  0  0  0  0  0  0  0  0
  -13.2899  -38.5283  -11.0570 C   0  0  0  0  0  0  0  0  0  0  0  0
  -14.1486  -39.5980  -11.1765 C   0  0  0  0  0  0  0  0  0  0  0  0
  -14.2193  -40.6207  -10.0758 C   0  0  0  0  0  0  0  0  0  0  0  0
  -15.4972  -40.4963   -9.4760 N   0  0  0  0  0  0  0  0  0  0  0  0
  -15.8266  -39.2970   -8.8232 C   0  0  0  0  0  0  0  0  0  0  0  0
  -16.3990  -39.5049   -7.4459 C   0  0  1  0  0  0  0  0  0  0  0  0
  -16.4893  -38.2784   -6.8062 O   0  0  0  0  0  0  0  0  0  0  0  0
  -17.8058  -40.1255   -7.5447 C   0  0  2  0  0  0  0  0  0  0  0  0
  -18.8057  -39.0697   -7.7045 C   0  0  0  0  0  0  0  0  0  0  0  0
  -19.2374  -38.1945   -6.6297 C   0  0  2  0  0  0  0  0  0  0  0  0
  -19.0060  -38.5620   -5.2046 C   0  0  0  0  0  0  0  0  0  0  0  0
  -20.6503  -37.6820   -6.7279 C   0  0  0  0  0  0  0  0  0  0  0  0
  -21.7301  -38.6318   -6.9956 C   0  0  0  0  0  0  0  0  0  0  0  0
  -22.2859  -39.3697   -5.7800 C   0  0  0  0  0  0  0  0  0  0  0  0
  -21.8575  -40.8349   -5.7827 C   0  0  0  0  0  0  0  0  0  0  0  0
  -22.9621  -41.7963   -6.0260 C   0  0  0  0  0  0  0  0  0  0  0  0
  -22.6510  -42.8108   -7.1024 C   0  0  2  0  0  0  0  0  0  0  0  0
  -24.0110  -43.1792   -7.7180 C   0  0  0  0  0  0  0  0  0  0  0  0
  -22.0434  -44.0768   -6.6175 C   0  0  0  0  0  0  0  0  0  0  0  0
  -20.5917  -44.0528   -6.3030 C   0  0  0  0  0  0  0  0  0  0  0  0
  -19.7768  -44.9796   -7.1530 C   0  0  0  0  0  0  0  0  0  0  0  0
  -20.2759  -46.1147   -7.3628 O   0  0  0  0  0  0  0  0  0  0  0  0
  -18.5310  -44.6687   -7.7111 N   0  0  0  0  0  0  0  0  0  0  0  0
  -17.5601  -45.7218   -7.9531 C   0  0  0  0  0  0  0  0  0  0  0  0
  -18.1354  -43.2984   -8.0766 C   0  0  1  0  0  0  0  0  0  0  0  0
  -19.2710  -42.7185   -8.8497 C   0  0  0  0  0  0  0  0  0  0  0  0
  -17.7678  -42.5739   -6.8515 C   0  0  0  0  0  0  0  0  0  0  0  0
  -17.1855  -43.2499   -5.9262 O   0  0  0  0  0  0  0  0  0  0  0  0
  -18.0180  -41.1892   -6.6387 N   0  0  0  0  0  0  0  0  0  0  0  0
  -14.9471  -39.7595  -12.2820 C   0  0  0  0  0  0  0  0  0  0  0  0
  -14.8817  -38.8108  -13.3075 C   0  0  0  0  0  0  0  0  0  0  0  0
  -14.0234  -37.7534  -13.1740 C   0  0  0  0  0  0  0  0  0  0  0  0
  1  2  1  0
  2  3  1  0
  2  4  1  0
  4  5  2  0
  5  6  1  0
  6  7  1  0
  7  8  1  0
  8  9  1  0
  9 10  1  0
 10 11  1  6
 10 12  1  0
 12 13  1  1
 13 14  1  0
 14 15  1  1
 14 16  1  0
 16 17  1  0
 17 18  1  0
 18 19  1  0
 19 20  1  0
 20 21  1  0
 21 22  1  1
 21 23  1  0
 23 24  1  0
 24 25  1  0
 25 26  2  0
 25 27  1  0
 27 28  1  0
 27 29  1  0
 29 30  1  1
 29 31  1  0
 31 32  2  0
 31 33  1  0
  6 34  2  0
 34 35  1  0
 35 36  2  0
 33 12  1  0
 36  4  1  0
M  END
$$$$
