
     RDKit          3D

 36 37  0  0  0  0  0  0  0  0999 V2000
  -21.7249  -36.3368   -8.5325 C   0  0  0  0  0  0  0  0  0  0  0  0
  -20.9059  -37.4343   -9.1678 C   0  0  0  0  0  0  0  0  0  0  0  0
  -20.1236  -38.1912   -8.1062 C   0  0  0  0  0  0  0  0  0  0  0  0
  -19.9734  -36.9165  -10.1883 C   0  0  0  0  0  0  0  0  0  0  0  0
  -18.6059  -36.8850   -9.9296 C   0  0  0  0  0  0  0  0  0  0  0  0
  -17.7446  -36.3988  -10.8876 C   0  0  0  0  0  0  0  0  0  0  0  0
  -16.2670  -36.3622  -10.6087 C   0  0  0  0  0  0  0  0  0  0  0  0
  -15.8251  -37.7068  -10.5379 N   0  0  0  0  0  0  0  0  0  0  0  0
  -16.3031  -38.5244   -9.5006 C   0  0  0  0  0  0  0  0  0  0  0  0
  -15.2225  -39.3318   -8.8309 C   0  0  1  0  0  0  0  0  0  0  0  0
  -14.8545  -38.7012   -7.6525 O   0  0  0  0  0  0  0  0  0  0  0  0
  -15.7421  -40.7450   -8.5042 C   0  0  2  0  0  0  0  0  0  0  0  0
  -14.7894  -41.4376   -7.6367 C   0  0  0  0  0  0  0  0  0  0  0  0
  -13.5231  -41.9795   -8.0953 C   0  0  2  0  0  0  0  0  0  0  0  0
  -13.2800  -42.2349   -9.5428 C   0  0  0  0  0  0  0  0  0  0  0  0
  -13.0132  -43.1818   -7.3449 C   0  0  0  0  0  0  0  0  0  0  0  0
  -13.9215  -44.3030   -7.1046 C   0  0  0  0  0  0  0  0  0  0  0  0
  -14.0542  -45.3100   -8.2444 C   0  0  0  0  0  0  0  0  0  0  0  0
  -15.4115  -45.1871   -8.9320 C   0  0  0  0  0  0  0  0  0  0  0  0
  -16.3186  -46.3406   -8.7088 C   0  0  0  0  0  0  0  0  0  0  0  0
  -17.7049  -45.9383   -8.2601 C   0  0  2  0  0  0  0  0  0  0  0  0
  -18.2126  -47.1133   -7.4081 C   0  0  0  0  0  0  0  0  0  0  0  0
  -18.6900  -45.7465   -9.3554 C   0  0  0  0  0  0  0  0  0  0  0  0
  -18.6254  -44.4662  -10.1061 C   0  0  0  0  0  0  0  0  0  0  0  0
  -19.8686  -43.6374   -9.9899 C   0  0  0  0  0  0  0  0  0  0  0  0
  -20.9561  -44.2646  -10.0638 O   0  0  0  0  0  0  0  0  0  0  0  0
  -19.8927  -42.2493   -9.8097 N   0  0  0  0  0  0  0  0  0  0  0  0
  -21.0078  -41.4699  -10.3189 C   0  0  0  0  0  0  0  0  0  0  0  0
  -18.8238  -41.5119   -9.1158 C   0  0  1  0  0  0  0  0  0  0  0  0
  -18.5493  -42.2499   -7.8495 C   0  0  0  0  0  0  0  0  0  0  0  0
  -17.6802  -41.3738  -10.0290 C   0  0  0  0  0  0  0  0  0  0  0  0
  -17.9456  -41.2172  -11.2770 O   0  0  0  0  0  0  0  0  0  0  0  0
  -16.3196  -41.4040   -9.6131 N   0  0  0  0  0  0  0  0  0  0  0  0
  -18.2007  -35.9411  -12.0994 C   0  0  0  0  0  0  0  0  0  0  0  0
  -19.5744  -35.9725  -12.3602 C   0  0  0  0  0  0  0  0  0  0  0  0
  -20.4174  -36.4585  -11.3982 C   0  0  0  0  0  0  0  0  0  0  0  0
  1  2  1  0
  2  3  1  0
  2  4  1  0
  4  5  2  0
  5  6  1  0
  6  7  1  0
  7  8  1  0
  8  9  1  0
  9 10  1  0
 10 11  1  1
 10 12  1  0
 12 13  1  6
 13 14  1  0
 14 15  1  6
 14 16  1  0
 16 17  1  0
 17 18  1  0
 18 19  1  0
 19 20  1  0
 20 21  1  0
 21 22  1  1
 21 23  1  0
 23 24  1  0
 24 25  1  0
 25 26  2  0
 25 27  1  0
 27 28  1  0
 27 29  1  0
 29 30  1  1
 29 31  1  0
 31 32  2  0
 31 33  1  0
  6 34  2  0
 34 35  1  0
 35 36  2  0
 33 12  1  0
 36  4  1  0
M  END
$$$$
