
     RDKit          3D

 36 37  0  0  0  0  0  0  0  0999 V2000
  -12.1073  -35.5128  -12.1783 C   0  0  0  0  0  0  0  0  0  0  0  0
  -13.4967  -35.9990  -12.5129 C   0  0  0  0  0  0  0  0  0  0  0  0
  -14.5287  -35.2728  -11.6645 C   0  0  0  0  0  0  0  0  0  0  0  0
  -13.6408  -37.4554  -12.3206 C   0  0  0  0  0  0  0  0  0  0  0  0
  -13.4182  -38.0173  -11.0665 C   0  0  0  0  0  0  0  0  0  0  0  0
  -13.5536  -39.3772  -10.8979 C   0  0  0  0  0  0  0  0  0  0  0  0
  -13.3114  -39.9860   -9.5440 C   0  0  0  0  0  0  0  0  0  0  0  0
  -14.2336  -39.3877   -8.6496 N   0  0  0  0  0  0  0  0  0  0  0  0
  -15.3968  -40.0939   -8.3013 C   0  0  0  0  0  0  0  0  0  0  0  0
  -16.4845  -39.2142   -7.7436 C   0  0  1  0  0  0  0  0  0  0  0  0
  -16.4971  -38.0167   -8.4419 O   0  0  0  0  0  0  0  0  0  0  0  0
  -17.8544  -39.9019   -7.8995 C   0  0  2  0  0  0  0  0  0  0  0  0
  -18.8766  -38.9074   -8.2254 C   0  0  0  0  0  0  0  0  0  0  0  0
  -19.4268  -37.9677   -7.2653 C   0  0  2  0  0  0  0  0  0  0  0  0
  -19.2989  -38.2081   -5.8006 C   0  0  0  0  0  0  0  0  0  0  0  0
  -20.8451  -37.5274   -7.5165 C   0  0  0  0  0  0  0  0  0  0  0  0
  -21.8634  -38.5422   -7.7869 C   0  0  0  0  0  0  0  0  0  0  0  0
  -22.4885  -39.2029   -6.5607 C   0  0  0  0  0  0  0  0  0  0  0  0
  -22.0071  -40.6433   -6.4063 C   0  0  0  0  0  0  0  0  0  0  0  0
  -23.0516  -41.6687   -6.6533 C   0  0  0  0  0  0  0  0  0  0  0  0
  -22.6161  -42.7525   -7.6128 C   0  0  2  0  0  0  0  0  0  0  0  0
  -23.9067  -43.2289   -8.2997 C   0  0  0  0  0  0  0  0  0  0  0  0
  -22.0034  -43.9471   -6.9768 C   0  0  0  0  0  0  0  0  0  0  0  0
  -20.5841  -43.8341   -6.5529 C   0  0  0  0  0  0  0  0  0  0  0  0
  -19.6686  -44.7901   -7.2554 C   0  0  0  0  0  0  0  0  0  0  0  0
  -20.1063  -45.9593   -7.4071 O   0  0  0  0  0  0  0  0  0  0  0  0
  -18.3939  -44.4710   -7.7386 N   0  0  0  0  0  0  0  0  0  0  0  0
  -17.3679  -45.4967   -7.8142 C   0  0  0  0  0  0  0  0  0  0  0  0
  -18.0211  -43.1188   -8.1862 C   0  0  1  0  0  0  0  0  0  0  0  0
  -19.1106  -42.6539   -9.0919 C   0  0  0  0  0  0  0  0  0  0  0  0
  -17.7819  -42.2820   -7.0015 C   0  0  0  0  0  0  0  0  0  0  0  0
  -17.2523  -42.8546   -5.9798 O   0  0  0  0  0  0  0  0  0  0  0  0
  -18.1000  -40.8970   -6.9264 N   0  0  0  0  0  0  0  0  0  0  0  0
  -13.9048  -40.1999  -11.9400 C   0  0  0  0  0  0  0  0  0  0  0  0
  -14.1287  -39.6362  -13.2002 C   0  0  0  0  0  0  0  0  0  0  0  0
  -13.9901  -38.2834  -13.3517 C   0  0  0  0  0  0  0  0  0  0  0  0
  1  2  1  0
  2  3  1  0
  2  4  1  0
  4  5  2  0
  5  6  1  0
  6  7  1  0
  7  8  1  0
  8  9  1  0
  9 10  1  0
 10 11  1  6
 10 12  1  0
 12 13  1  1
 13 14  1  0
 14 15  1  1
 14 16  1  0
 16 17  1  0
 17 18  1  0
 18 19  1  0
 19 20  1  0
 20 21  1  0
 21 22  1  1
 21 23  1  0
 23 24  1  0
 24 25  1  0
 25 26  2  0
 25 27  1  0
 27 28  1  0
 27 29  1  0
 29 30  1  1
 29 31  1  0
 31 32  2  0
 31 33  1  0
  6 34  2  0
 34 35  1  0
 35 36  2  0
 33 12  1  0
 36  4  1  0
M  END
$$$$
