
     RDKit          3D

 36 37  0  0  0  0  0  0  0  0999 V2000
  -14.2292  -38.2177  -14.8113 C   0  0  0  0  0  0  0  0  0  0  0  0
  -14.6057  -37.2434  -13.7214 C   0  0  0  0  0  0  0  0  0  0  0  0
  -14.5029  -35.8148  -14.2318 C   0  0  0  0  0  0  0  0  0  0  0  0
  -13.7632  -37.3966  -12.5191 C   0  0  0  0  0  0  0  0  0  0  0  0
  -13.8527  -38.5530  -11.7491 C   0  0  0  0  0  0  0  0  0  0  0  0
  -13.0635  -38.6854  -10.6285 C   0  0  0  0  0  0  0  0  0  0  0  0
  -13.1608  -39.9332   -9.7944 C   0  0  0  0  0  0  0  0  0  0  0  0
  -14.0895  -39.6674   -8.7575 N   0  0  0  0  0  0  0  0  0  0  0  0
  -15.4624  -39.7887   -9.0287 C   0  0  0  0  0  0  0  0  0  0  0  0
  -16.3296  -39.0024   -8.0813 C   0  0  1  0  0  0  0  0  0  0  0  0
  -16.4588  -37.7075   -8.5589 O   0  0  0  0  0  0  0  0  0  0  0  0
  -17.7267  -39.6447   -7.9845 C   0  0  2  0  0  0  0  0  0  0  0  0
  -18.7530  -38.6026   -7.9565 C   0  0  0  0  0  0  0  0  0  0  0  0
  -19.0269  -37.7673   -6.8012 C   0  0  2  0  0  0  0  0  0  0  0  0
  -18.5758  -38.1726   -5.4404 C   0  0  0  0  0  0  0  0  0  0  0  0
  -20.4448  -37.2773   -6.6667 C   0  0  0  0  0  0  0  0  0  0  0  0
  -21.5404  -38.2378   -6.7971 C   0  0  0  0  0  0  0  0  0  0  0  0
  -21.8943  -39.0211   -5.5353 C   0  0  0  0  0  0  0  0  0  0  0  0
  -21.4523  -40.4777   -5.6499 C   0  0  0  0  0  0  0  0  0  0  0  0
  -22.5684  -41.4509   -5.7527 C   0  0  0  0  0  0  0  0  0  0  0  0
  -22.4121  -42.4275   -6.8959 C   0  0  2  0  0  0  0  0  0  0  0  0
  -23.8453  -42.8016   -7.3087 C   0  0  0  0  0  0  0  0  0  0  0  0
  -21.7212  -43.6963   -6.5497 C   0  0  0  0  0  0  0  0  0  0  0  0
  -20.2390  -43.6558   -6.4592 C   0  0  0  0  0  0  0  0  0  0  0  0
  -19.5513  -44.5425   -7.4525 C   0  0  0  0  0  0  0  0  0  0  0  0
  -20.0618  -45.6796   -7.6199 O   0  0  0  0  0  0  0  0  0  0  0  0
  -18.4096  -44.1931   -8.1835 N   0  0  0  0  0  0  0  0  0  0  0  0
  -17.4733  -45.2213   -8.6039 C   0  0  0  0  0  0  0  0  0  0  0  0
  -18.0923  -42.8058   -8.5610 C   0  0  1  0  0  0  0  0  0  0  0  0
  -19.3400  -42.2236   -9.1334 C   0  0  0  0  0  0  0  0  0  0  0  0
  -17.5514  -42.1115   -7.3837 C   0  0  0  0  0  0  0  0  0  0  0  0
  -16.8259  -42.8040   -6.5798 O   0  0  0  0  0  0  0  0  0  0  0  0
  -17.7842  -40.7384   -7.0912 N   0  0  0  0  0  0  0  0  0  0  0  0
  -12.1845  -37.7016  -10.2473 C   0  0  0  0  0  0  0  0  0  0  0  0
  -12.0937  -36.5396  -11.0204 C   0  0  0  0  0  0  0  0  0  0  0  0
  -12.8846  -36.4229  -12.1309 C   0  0  0  0  0  0  0  0  0  0  0  0
  1  2  1  0
  2  3  1  0
  2  4  1  0
  4  5  2  0
  5  6  1  0
  6  7  1  0
  7  8  1  0
  8  9  1  0
  9 10  1  0
 10 11  1  6
 10 12  1  0
 12 13  1  1
 13 14  1  0
 14 15  1  1
 14 16  1  0
 16 17  1  0
 17 18  1  0
 18 19  1  0
 19 20  1  0
 20 21  1  0
 21 22  1  1
 21 23  1  0
 23 24  1  0
 24 25  1  0
 25 26  2  0
 25 27  1  0
 27 28  1  0
 27 29  1  0
 29 30  1  1
 29 31  1  0
 31 32  2  0
 31 33  1  0
  6 34  2  0
 34 35  1  0
 35 36  2  0
 33 12  1  0
 36  4  1  0
M  END
$$$$
