
     RDKit          3D

 36 37  0  0  0  0  0  0  0  0999 V2000
  -12.7558  -39.7267  -13.8939 C   0  0  0  0  0  0  0  0  0  0  0  0
  -12.4846  -38.2635  -13.6407 C   0  0  0  0  0  0  0  0  0  0  0  0
  -11.2205  -38.0963  -12.8124 C   0  0  0  0  0  0  0  0  0  0  0  0
  -13.6104  -37.5963  -12.9578 C   0  0  0  0  0  0  0  0  0  0  0  0
  -13.6815  -37.5994  -11.5674 C   0  0  0  0  0  0  0  0  0  0  0  0
  -14.7366  -36.9755  -10.9400 C   0  0  0  0  0  0  0  0  0  0  0  0
  -14.8158  -36.9798   -9.4380 C   0  0  0  0  0  0  0  0  0  0  0  0
  -16.0761  -37.5271   -9.0910 N   0  0  0  0  0  0  0  0  0  0  0  0
  -16.1860  -38.2842   -7.9130 C   0  0  0  0  0  0  0  0  0  0  0  0
  -16.1477  -39.7704   -8.1530 C   0  0  1  0  0  0  0  0  0  0  0  0
  -15.5020  -40.3816   -7.0894 O   0  0  0  0  0  0  0  0  0  0  0  0
  -17.5803  -40.3274   -8.2590 C   0  0  2  0  0  0  0  0  0  0  0  0
  -18.4885  -39.2800   -8.7263 C   0  0  0  0  0  0  0  0  0  0  0  0
  -18.9482  -38.1792   -7.8991 C   0  0  2  0  0  0  0  0  0  0  0  0
  -18.8636  -38.2518   -6.4135 C   0  0  0  0  0  0  0  0  0  0  0  0
  -20.3094  -37.6291   -8.2357 C   0  0  0  0  0  0  0  0  0  0  0  0
  -21.4253  -38.5591   -8.4076 C   0  0  0  0  0  0  0  0  0  0  0  0
  -22.1309  -38.9982   -7.1269 C   0  0  0  0  0  0  0  0  0  0  0  0
  -21.8053  -40.4510   -6.7897 C   0  0  0  0  0  0  0  0  0  0  0  0
  -22.9487  -41.3859   -6.9379 C   0  0  0  0  0  0  0  0  0  0  0  0
  -22.6182  -42.6172   -7.7501 C   0  0  2  0  0  0  0  0  0  0  0  0
  -23.9435  -43.0382   -8.4063 C   0  0  0  0  0  0  0  0  0  0  0  0
  -22.1419  -43.7824   -6.9611 C   0  0  0  0  0  0  0  0  0  0  0  0
  -20.7237  -43.7653   -6.5192 C   0  0  0  0  0  0  0  0  0  0  0  0
  -19.9054  -44.8886   -7.0798 C   0  0  0  0  0  0  0  0  0  0  0  0
  -20.4617  -46.0162   -7.1014 O   0  0  0  0  0  0  0  0  0  0  0  0
  -18.5987  -44.7633   -7.5664 N   0  0  0  0  0  0  0  0  0  0  0  0
  -17.6852  -45.8906   -7.4938 C   0  0  0  0  0  0  0  0  0  0  0  0
  -18.0806  -43.5210   -8.1631 C   0  0  1  0  0  0  0  0  0  0  0  0
  -19.1045  -43.0599   -9.1443 C   0  0  0  0  0  0  0  0  0  0  0  0
  -17.7689  -42.5756   -7.0815 C   0  0  0  0  0  0  0  0  0  0  0  0
  -17.3144  -43.0713   -5.9861 O   0  0  0  0  0  0  0  0  0  0  0  0
  -17.9406  -41.1664   -7.1803 N   0  0  0  0  0  0  0  0  0  0  0  0
  -15.7272  -36.3460  -11.6530 C   0  0  0  0  0  0  0  0  0  0  0  0
  -15.6565  -36.3423  -13.0498 C   0  0  0  0  0  0  0  0  0  0  0  0
  -14.6020  -36.9666  -13.6585 C   0  0  0  0  0  0  0  0  0  0  0  0
  1  2  1  0
  2  3  1  0
  2  4  1  0
  4  5  2  0
  5  6  1  0
  6  7  1  0
  7  8  1  0
  8  9  1  0
  9 10  1  0
 10 11  1  1
 10 12  1  0
 12 13  1  1
 13 14  1  0
 14 15  1  1
 14 16  1  0
 16 17  1  0
 17 18  1  0
 18 19  1  0
 19 20  1  0
 20 21  1  0
 21 22  1  1
 21 23  1  0
 23 24  1  0
 24 25  1  0
 25 26  2  0
 25 27  1  0
 27 28  1  0
 27 29  1  0
 29 30  1  6
 29 31  1  0
 31 32  2  0
 31 33  1  0
  6 34  2  0
 34 35  1  0
 35 36  2  0
 33 12  1  0
 36  4  1  0
M  END
$$$$
