
     RDKit          3D

 36 37  0  0  0  0  0  0  0  0999 V2000
  -11.6365  -36.3903  -13.8675 C   0  0  0  0  0  0  0  0  0  0  0  0
  -13.0744  -35.9309  -13.8497 C   0  0  0  0  0  0  0  0  0  0  0  0
  -13.1445  -34.4131  -13.9084 C   0  0  0  0  0  0  0  0  0  0  0  0
  -13.7995  -36.4096  -12.6563 C   0  0  0  0  0  0  0  0  0  0  0  0
  -13.3924  -37.5769  -12.0162 C   0  0  0  0  0  0  0  0  0  0  0  0
  -14.0764  -38.0158  -10.9047 C   0  0  0  0  0  0  0  0  0  0  0  0
  -13.6390  -39.2779  -10.2133 C   0  0  0  0  0  0  0  0  0  0  0  0
  -14.4499  -39.4210   -9.0598 N   0  0  0  0  0  0  0  0  0  0  0  0
  -15.8182  -39.6936   -9.2218 C   0  0  0  0  0  0  0  0  0  0  0  0
  -16.6880  -39.0096   -8.2004 C   0  0  1  0  0  0  0  0  0  0  0  0
  -16.9512  -37.7170   -8.6266 O   0  0  0  0  0  0  0  0  0  0  0  0
  -18.0197  -39.7687   -8.0444 C   0  0  2  0  0  0  0  0  0  0  0  0
  -19.1365  -38.8241   -8.0630 C   0  0  0  0  0  0  0  0  0  0  0  0
  -19.4744  -37.9485   -6.9555 C   0  0  2  0  0  0  0  0  0  0  0  0
  -18.9752  -38.2280   -5.5800 C   0  0  0  0  0  0  0  0  0  0  0  0
  -20.9299  -37.5818   -6.8291 C   0  0  0  0  0  0  0  0  0  0  0  0
  -21.9343  -38.6437   -6.8855 C   0  0  0  0  0  0  0  0  0  0  0  0
  -22.2030  -39.3779   -5.5740 C   0  0  0  0  0  0  0  0  0  0  0  0
  -21.6309  -40.7927   -5.6083 C   0  0  0  0  0  0  0  0  0  0  0  0
  -22.6544  -41.8675   -5.6361 C   0  0  0  0  0  0  0  0  0  0  0  0
  -22.4206  -42.8934   -6.7213 C   0  0  2  0  0  0  0  0  0  0  0  0
  -23.8174  -43.4203   -7.0894 C   0  0  0  0  0  0  0  0  0  0  0  0
  -21.6133  -44.0710   -6.3106 C   0  0  0  0  0  0  0  0  0  0  0  0
  -20.1401  -43.8910   -6.2451 C   0  0  0  0  0  0  0  0  0  0  0  0
  -19.3839  -44.7704   -7.1941 C   0  0  0  0  0  0  0  0  0  0  0  0
  -19.7900  -45.9571   -7.2858 O   0  0  0  0  0  0  0  0  0  0  0  0
  -18.2860  -44.3640   -7.9618 N   0  0  0  0  0  0  0  0  0  0  0  0
  -17.2638  -45.3267   -8.3343 C   0  0  0  0  0  0  0  0  0  0  0  0
  -18.1004  -42.9791   -8.4260 C   0  0  1  0  0  0  0  0  0  0  0  0
  -19.4016  -42.5482   -9.0132 C   0  0  0  0  0  0  0  0  0  0  0  0
  -17.6140  -42.1684   -7.3004 C   0  0  0  0  0  0  0  0  0  0  0  0
  -16.8205  -42.7423   -6.4678 O   0  0  0  0  0  0  0  0  0  0  0  0
  -17.9684  -40.8069   -7.0868 N   0  0  0  0  0  0  0  0  0  0  0  0
  -15.1564  -37.3289  -10.4069 C   0  0  0  0  0  0  0  0  0  0  0  0
  -15.5660  -36.1560  -11.0493 C   0  0  0  0  0  0  0  0  0  0  0  0
  -14.8761  -35.7329  -12.1526 C   0  0  0  0  0  0  0  0  0  0  0  0
  1  2  1  0
  2  3  1  0
  2  4  1  0
  4  5  2  0
  5  6  1  0
  6  7  1  0
  7  8  1  0
  8  9  1  0
  9 10  1  0
 10 11  1  6
 10 12  1  0
 12 13  1  1
 13 14  1  0
 14 15  1  1
 14 16  1  0
 16 17  1  0
 17 18  1  0
 18 19  1  0
 19 20  1  0
 20 21  1  0
 21 22  1  1
 21 23  1  0
 23 24  1  0
 24 25  1  0
 25 26  2  0
 25 27  1  0
 27 28  1  0
 27 29  1  0
 29 30  1  1
 29 31  1  0
 31 32  2  0
 31 33  1  0
  6 34  2  0
 34 35  1  0
 35 36  2  0
 33 12  1  0
 36  4  1  0
M  END
$$$$
