
     RDKit          3D

 38 41  0  0  0  0  0  0  0  0999 V2000
  -17.8291  -48.1732   -7.4915 C   0  0  0  0  0  0  0  0  0  0  0  0
  -17.2681  -47.0280   -6.8489 O   0  0  0  0  0  0  0  0  0  0  0  0
  -17.9583  -45.8305   -7.0194 C   0  0  0  0  0  0  0  0  0  0  0  0
  -17.2860  -44.6489   -7.1987 C   0  0  0  0  0  0  0  0  0  0  0  0
  -17.9265  -43.3914   -7.3800 C   0  0  0  0  0  0  0  0  0  0  0  0
  -19.3029  -43.3568   -7.3808 C   0  0  0  0  0  0  0  0  0  0  0  0
  -19.9735  -44.5389   -7.1954 C   0  0  0  0  0  0  0  0  0  0  0  0
  -21.3777  -44.8444   -7.0526 N   0  0  0  0  0  0  0  0  0  0  0  0
  -22.3384  -44.2931   -6.1055 C   0  0  0  0  0  0  0  0  0  0  0  0
  -23.4918  -43.5963   -6.6984 C   0  0  0  0  0  0  0  0  0  0  0  0
  -23.6392  -42.1377   -6.5746 C   0  0  0  0  0  0  0  0  0  0  0  0
  -23.2638  -41.5852   -5.2538 C   0  0  0  0  0  0  0  0  0  0  0  0
  -22.1312  -40.6129   -5.2725 C   0  0  0  0  0  0  0  0  0  0  0  0
  -22.6204  -39.2851   -5.2604 C   0  0  0  0  0  0  0  0  0  0  0  0
  -21.8297  -38.1737   -5.3485 C   0  0  0  0  0  0  0  0  0  0  0  0
  -20.4885  -38.4497   -5.4547 C   0  0  0  0  0  0  0  0  0  0  0  0
  -19.9472  -39.7511   -5.4717 C   0  0  0  0  0  0  0  0  0  0  0  0
  -18.4625  -39.6591   -5.6820 C   0  0  0  0  0  0  0  0  0  0  0  0
  -17.9543  -40.0341   -7.0203 C   0  0  2  0  0  0  0  0  0  0  0  0
  -16.8766  -41.0073   -6.9474 N   0  0  0  0  0  0  0  0  0  0  0  0
  -16.9159  -42.3316   -7.4656 C   0  0  0  0  0  0  0  0  0  0  0  0
  -15.8039  -42.5839   -8.1313 O   0  0  0  0  0  0  0  0  0  0  0  0
  -17.3580  -38.7762   -7.6881 C   0  0  2  0  0  0  0  0  0  0  0  0
  -18.4062  -37.8920   -7.9751 O   0  0  0  0  0  0  0  0  0  0  0  0
  -16.5978  -39.1645   -8.9354 C   0  0  0  0  0  0  0  0  0  0  0  0
  -15.3104  -39.6391   -8.5745 N   0  0  0  0  0  0  0  0  0  0  0  0
  -14.7255  -40.6318   -9.3988 C   0  0  0  0  0  0  0  0  0  0  0  0
  -14.0890  -40.1517  -10.6411 C   0  0  0  0  0  0  0  0  0  0  0  0
  -13.4682  -41.0289  -11.4967 C   0  0  0  0  0  0  0  0  0  0  0  0
  -12.8793  -40.5626  -12.6428 C   0  0  0  0  0  0  0  0  0  0  0  0
  -12.9000  -39.2317  -12.9511 C   0  0  0  0  0  0  0  0  0  0  0  0
  -13.5310  -38.3432  -12.0806 C   0  0  0  0  0  0  0  0  0  0  0  0
  -14.1230  -38.8034  -10.9303 C   0  0  0  0  0  0  0  0  0  0  0  0
  -13.5522  -36.8943  -12.4099 C   0  0  0  0  0  0  0  0  0  0  0  0
  -12.3172  -36.1983  -11.8326 C   0  0  0  0  0  0  0  0  0  0  0  0
  -13.5211  -36.6600  -13.9052 C   0  0  0  0  0  0  0  0  0  0  0  0
  -20.7814  -40.8305   -5.3758 C   0  0  0  0  0  0  0  0  0  0  0  0
  -19.2694  -45.7299   -7.0235 N   0  0  0  0  0  0  0  0  0  0  0  0
  1  2  1  0
  2  3  1  0
  3  4  2  0
  4  5  1  0
  5  6  2  0
  6  7  1  0
  7  8  1  0
  8  9  1  0
  9 10  1  0
 10 11  1  0
 11 12  1  0
 12 13  1  0
 13 14  1  0
 14 15  2  0
 15 16  1  0
 16 17  2  0
 17 18  1  0
 19 18  1  1
 19 20  1  0
 20 21  1  0
 21 22  2  0
 19 23  1  0
 23 24  1  6
 23 25  1  0
 25 26  1  0
 26 27  1  0
 27 28  1  0
 28 29  2  0
 29 30  1  0
 30 31  2  0
 31 32  1  0
 32 33  2  0
 32 34  1  0
 34 35  1  0
 34 36  1  0
 17 37  1  0
  7 38  2  0
 21  5  1  0
 33 28  1  0
 37 13  2  0
 38  3  1  0
M  END
$$$$
