
     RDKit          3D

 38 41  0  0  0  0  0  0  0  0999 V2000
  -18.3872  -48.0583   -6.4893 C   0  0  0  0  0  0  0  0  0  0  0  0
  -17.5249  -46.9268   -6.6121 O   0  0  0  0  0  0  0  0  0  0  0  0
  -18.1423  -45.7166   -6.9188 C   0  0  0  0  0  0  0  0  0  0  0  0
  -17.4110  -44.5628   -7.0386 C   0  0  0  0  0  0  0  0  0  0  0  0
  -17.9756  -43.2947   -7.3508 C   0  0  0  0  0  0  0  0  0  0  0  0
  -19.3358  -43.2197   -7.5498 C   0  0  0  0  0  0  0  0  0  0  0  0
  -20.0663  -44.3738   -7.4236 C   0  0  0  0  0  0  0  0  0  0  0  0
  -21.4862  -44.6323   -7.4734 N   0  0  0  0  0  0  0  0  0  0  0  0
  -22.5522  -44.0179   -6.6921 C   0  0  0  0  0  0  0  0  0  0  0  0
  -23.5850  -43.3102   -7.4665 C   0  0  0  0  0  0  0  0  0  0  0  0
  -23.6980  -41.8442   -7.4130 C   0  0  0  0  0  0  0  0  0  0  0  0
  -23.4952  -41.2540   -6.0708 C   0  0  0  0  0  0  0  0  0  0  0  0
  -22.3386  -40.3168   -5.9592 C   0  0  0  0  0  0  0  0  0  0  0  0
  -22.7786  -38.9757   -6.0607 C   0  0  0  0  0  0  0  0  0  0  0  0
  -21.9455  -37.8922   -6.0711 C   0  0  0  0  0  0  0  0  0  0  0  0
  -20.6131  -38.2113   -5.9752 C   0  0  0  0  0  0  0  0  0  0  0  0
  -20.1200  -39.5278   -5.8719 C   0  0  0  0  0  0  0  0  0  0  0  0
  -18.6183  -39.4874   -5.8704 C   0  0  0  0  0  0  0  0  0  0  0  0
  -17.9384  -39.9270   -7.1091 C   0  0  2  0  0  0  0  0  0  0  0  0
  -16.9162  -40.9280   -6.8509 N   0  0  0  0  0  0  0  0  0  0  0  0
  -16.9271  -42.2691   -7.3257 C   0  0  0  0  0  0  0  0  0  0  0  0
  -15.7412  -42.5787   -7.8167 O   0  0  0  0  0  0  0  0  0  0  0  0
  -17.2103  -38.7130   -7.7256 C   0  0  2  0  0  0  0  0  0  0  0  0
  -18.0268  -38.1731   -8.7281 O   0  0  0  0  0  0  0  0  0  0  0  0
  -15.8659  -39.1383   -8.2695 C   0  0  0  0  0  0  0  0  0  0  0  0
  -15.6963  -40.5328   -8.0703 N   0  0  0  0  0  0  0  0  0  0  0  0
  -14.9525  -41.2457   -9.0427 C   0  0  0  0  0  0  0  0  0  0  0  0
  -15.0100  -40.7174  -10.4198 C   0  0  0  0  0  0  0  0  0  0  0  0
  -14.5413  -41.4589  -11.4768 C   0  0  0  0  0  0  0  0  0  0  0  0
  -14.5996  -40.9487  -12.7473 C   0  0  0  0  0  0  0  0  0  0  0  0
  -15.1200  -39.7074  -12.9818 C   0  0  0  0  0  0  0  0  0  0  0  0
  -15.5952  -38.9565  -11.9067 C   0  0  0  0  0  0  0  0  0  0  0  0
  -15.5398  -39.4614  -10.6310 C   0  0  0  0  0  0  0  0  0  0  0  0
  -16.1582  -37.6042  -12.1569 C   0  0  0  0  0  0  0  0  0  0  0  0
  -17.1586  -37.2320  -11.0598 C   0  0  0  0  0  0  0  0  0  0  0  0
  -15.0828  -36.5388  -12.1410 C   0  0  0  0  0  0  0  0  0  0  0  0
  -20.9961  -40.5778   -5.8610 C   0  0  0  0  0  0  0  0  0  0  0  0
  -19.4352  -45.5778   -7.1137 N   0  0  0  0  0  0  0  0  0  0  0  0
  1  2  1  0
  2  3  1  0
  3  4  2  0
  4  5  1  0
  5  6  2  0
  6  7  1  0
  7  8  1  0
  8  9  1  0
  9 10  1  0
 10 11  1  0
 11 12  1  0
 12 13  1  0
 13 14  1  0
 14 15  2  0
 15 16  1  0
 16 17  2  0
 17 18  1  0
 19 18  1  1
 19 20  1  0
 20 21  1  0
 21 22  2  0
 19 23  1  0
 23 24  1  6
 23 25  1  0
 25 26  1  0
 26 27  1  0
 27 28  1  0
 28 29  2  0
 29 30  1  0
 30 31  2  0
 31 32  1  0
 32 33  2  0
 32 34  1  0
 34 35  1  0
 34 36  1  0
 17 37  1  0
  7 38  2  0
 21  5  1  0
 33 28  1  0
 37 13  2  0
 38  3  1  0
M  END
$$$$
