
     RDKit          3D

 38 41  0  0  0  0  0  0  0  0999 V2000
  -18.0616  -48.5065   -7.5843 C   0  0  0  0  0  0  0  0  0  0  0  0
  -17.5835  -47.3395   -6.9145 O   0  0  0  0  0  0  0  0  0  0  0  0
  -18.2579  -46.1534   -7.1938 C   0  0  0  0  0  0  0  0  0  0  0  0
  -17.5814  -44.9649   -7.2941 C   0  0  0  0  0  0  0  0  0  0  0  0
  -18.2058  -43.7183   -7.5780 C   0  0  0  0  0  0  0  0  0  0  0  0
  -19.5692  -43.7025   -7.7686 C   0  0  0  0  0  0  0  0  0  0  0  0
  -20.2449  -44.8914   -7.6619 C   0  0  0  0  0  0  0  0  0  0  0  0
  -21.6516  -45.2143   -7.7097 N   0  0  0  0  0  0  0  0  0  0  0  0
  -22.7401  -44.6655   -6.9110 C   0  0  0  0  0  0  0  0  0  0  0  0
  -23.8091  -43.9912   -7.6658 C   0  0  0  0  0  0  0  0  0  0  0  0
  -23.9894  -42.5334   -7.5823 C   0  0  0  0  0  0  0  0  0  0  0  0
  -23.8061  -41.9611   -6.2297 C   0  0  0  0  0  0  0  0  0  0  0  0
  -22.6934  -40.9738   -6.1050 C   0  0  0  0  0  0  0  0  0  0  0  0
  -23.1955  -39.6528   -6.1775 C   0  0  0  0  0  0  0  0  0  0  0  0
  -22.4135  -38.5318   -6.1703 C   0  0  0  0  0  0  0  0  0  0  0  0
  -21.0672  -38.7907   -6.0875 C   0  0  0  0  0  0  0  0  0  0  0  0
  -20.5132  -40.0847   -6.0130 C   0  0  0  0  0  0  0  0  0  0  0  0
  -19.0149  -39.9749   -6.0183 C   0  0  0  0  0  0  0  0  0  0  0  0
  -18.3228  -40.3579   -7.2689 C   0  0  2  0  0  0  0  0  0  0  0  0
  -17.2539  -41.3155   -7.0359 N   0  0  0  0  0  0  0  0  0  0  0  0
  -17.2057  -42.6459   -7.5375 C   0  0  0  0  0  0  0  0  0  0  0  0
  -16.0097  -42.8905   -8.0406 O   0  0  0  0  0  0  0  0  0  0  0  0
  -17.6552  -39.0996   -7.8646 C   0  0  2  0  0  0  0  0  0  0  0  0
  -18.6097  -38.4155   -8.6289 O   0  0  0  0  0  0  0  0  0  0  0  0
  -16.4550  -39.4948   -8.6938 C   0  0  0  0  0  0  0  0  0  0  0  0
  -15.7224  -38.3322   -9.0471 N   0  0  0  0  0  0  0  0  0  0  0  0
  -14.3233  -38.4700   -9.2215 C   0  0  0  0  0  0  0  0  0  0  0  0
  -13.8542  -38.6210  -10.6130 C   0  0  0  0  0  0  0  0  0  0  0  0
  -14.1554  -39.7485  -11.3373 C   0  0  0  0  0  0  0  0  0  0  0  0
  -13.7067  -39.8715  -12.6263 C   0  0  0  0  0  0  0  0  0  0  0  0
  -12.9608  -38.8849  -13.2068 C   0  0  0  0  0  0  0  0  0  0  0  0
  -12.6563  -37.7410  -12.4690 C   0  0  0  0  0  0  0  0  0  0  0  0
  -13.1025  -37.6112  -11.1769 C   0  0  0  0  0  0  0  0  0  0  0  0
  -11.8418  -36.6675  -13.0952 C   0  0  0  0  0  0  0  0  0  0  0  0
  -12.3038  -35.2931  -12.6049 C   0  0  0  0  0  0  0  0  0  0  0  0
  -10.3785  -36.7885  -12.7268 C   0  0  0  0  0  0  0  0  0  0  0  0
  -21.3397  -41.1742   -6.0189 C   0  0  0  0  0  0  0  0  0  0  0  0
  -19.5570  -46.0708   -7.3794 N   0  0  0  0  0  0  0  0  0  0  0  0
  1  2  1  0
  2  3  1  0
  3  4  2  0
  4  5  1  0
  5  6  2  0
  6  7  1  0
  7  8  1  0
  8  9  1  0
  9 10  1  0
 10 11  1  0
 11 12  1  0
 12 13  1  0
 13 14  1  0
 14 15  2  0
 15 16  1  0
 16 17  2  0
 17 18  1  0
 19 18  1  1
 19 20  1  0
 20 21  1  0
 21 22  2  0
 19 23  1  0
 23 24  1  6
 23 25  1  0
 25 26  1  0
 26 27  1  0
 27 28  1  0
 28 29  2  0
 29 30  1  0
 30 31  2  0
 31 32  1  0
 32 33  2  0
 32 34  1  0
 34 35  1  0
 34 36  1  0
 17 37  1  0
  7 38  2  0
 21  5  1  0
 33 28  1  0
 37 13  2  0
 38  3  1  0
M  END
$$$$
