
     RDKit          3D

 38 41  0  0  0  0  0  0  0  0999 V2000
  -17.2349  -47.4722   -7.8135 C   0  0  0  0  0  0  0  0  0  0  0  0
  -17.0841  -46.4207   -6.8593 O   0  0  0  0  0  0  0  0  0  0  0  0
  -17.7884  -45.2486   -7.1231 C   0  0  0  0  0  0  0  0  0  0  0  0
  -17.1358  -44.0511   -7.2658 C   0  0  0  0  0  0  0  0  0  0  0  0
  -17.7913  -42.8178   -7.5370 C   0  0  0  0  0  0  0  0  0  0  0  0
  -19.1617  -42.8252   -7.6694 C   0  0  0  0  0  0  0  0  0  0  0  0
  -19.8132  -44.0229   -7.5203 C   0  0  0  0  0  0  0  0  0  0  0  0
  -21.2154  -44.3679   -7.5044 N   0  0  0  0  0  0  0  0  0  0  0  0
  -22.2776  -43.8262   -6.6662 C   0  0  0  0  0  0  0  0  0  0  0  0
  -23.3882  -43.1776   -7.3823 C   0  0  0  0  0  0  0  0  0  0  0  0
  -23.5879  -41.7218   -7.3080 C   0  0  0  0  0  0  0  0  0  0  0  0
  -23.3563  -41.1304   -5.9710 C   0  0  0  0  0  0  0  0  0  0  0  0
  -22.2551  -40.1248   -5.9053 C   0  0  0  0  0  0  0  0  0  0  0  0
  -22.7806  -38.8125   -5.9714 C   0  0  0  0  0  0  0  0  0  0  0  0
  -22.0169  -37.6797   -6.0105 C   0  0  0  0  0  0  0  0  0  0  0  0
  -20.6644  -37.9169   -5.9823 C   0  0  0  0  0  0  0  0  0  0  0  0
  -20.0873  -39.2013   -5.9167 C   0  0  0  0  0  0  0  0  0  0  0  0
  -18.5925  -39.0686   -5.9872 C   0  0  0  0  0  0  0  0  0  0  0  0
  -17.9483  -39.4561   -7.2618 C   0  0  2  0  0  0  0  0  0  0  0  0
  -16.8554  -40.3943   -7.0637 N   0  0  0  0  0  0  0  0  0  0  0  0
  -16.8075  -41.7298   -7.5516 C   0  0  0  0  0  0  0  0  0  0  0  0
  -15.6303  -41.9621   -8.1025 O   0  0  0  0  0  0  0  0  0  0  0  0
  -17.3266  -38.1950   -7.8999 C   0  0  2  0  0  0  0  0  0  0  0  0
  -18.0875  -37.8507   -9.0248 O   0  0  0  0  0  0  0  0  0  0  0  0
  -15.8827  -38.4569   -8.2613 C   0  0  0  0  0  0  0  0  0  0  0  0
  -15.7838  -39.7007   -8.9368 N   0  0  0  0  0  0  0  0  0  0  0  0
  -14.5622  -39.9926   -9.5922 C   0  0  0  0  0  0  0  0  0  0  0  0
  -13.8616  -38.8446  -10.2008 C   0  0  0  0  0  0  0  0  0  0  0  0
  -12.5796  -38.5246   -9.8251 C   0  0  0  0  0  0  0  0  0  0  0  0
  -11.9481  -37.4523  -10.3988 C   0  0  0  0  0  0  0  0  0  0  0  0
  -12.5758  -36.6919  -11.3446 C   0  0  0  0  0  0  0  0  0  0  0  0
  -13.8775  -37.0190  -11.7242 C   0  0  0  0  0  0  0  0  0  0  0  0
  -14.5164  -38.0920  -11.1533 C   0  0  0  0  0  0  0  0  0  0  0  0
  -14.5653  -36.1920  -12.7495 C   0  0  0  0  0  0  0  0  0  0  0  0
  -14.1178  -36.6035  -14.1542 C   0  0  0  0  0  0  0  0  0  0  0  0
  -16.0670  -36.3775  -12.7025 C   0  0  0  0  0  0  0  0  0  0  0  0
  -20.8960  -40.3034   -5.8748 C   0  0  0  0  0  0  0  0  0  0  0  0
  -19.0954  -45.1881   -7.2540 N   0  0  0  0  0  0  0  0  0  0  0  0
  1  2  1  0
  2  3  1  0
  3  4  2  0
  4  5  1  0
  5  6  2  0
  6  7  1  0
  7  8  1  0
  8  9  1  0
  9 10  1  0
 10 11  1  0
 11 12  1  0
 12 13  1  0
 13 14  1  0
 14 15  2  0
 15 16  1  0
 16 17  2  0
 17 18  1  0
 19 18  1  1
 19 20  1  0
 20 21  1  0
 21 22  2  0
 19 23  1  0
 23 24  1  6
 23 25  1  0
 25 26  1  0
 26 27  1  0
 27 28  1  0
 28 29  2  0
 29 30  1  0
 30 31  2  0
 31 32  1  0
 32 33  2  0
 32 34  1  0
 34 35  1  0
 34 36  1  0
 17 37  1  0
  7 38  2  0
 21  5  1  0
 33 28  1  0
 37 13  2  0
 38  3  1  0
M  END
$$$$
