
     RDKit          3D

 38 41  0  0  0  0  0  0  0  0999 V2000
  -23.4122  -45.8145   -7.9223 C   0  0  0  0  0  0  0  0  0  0  0  0
  -22.8756  -44.6550   -7.2847 O   0  0  0  0  0  0  0  0  0  0  0  0
  -21.5532  -44.3439   -7.5916 C   0  0  0  0  0  0  0  0  0  0  0  0
  -21.0790  -43.0650   -7.4502 C   0  0  0  0  0  0  0  0  0  0  0  0
  -19.7416  -42.6780   -7.7434 C   0  0  0  0  0  0  0  0  0  0  0  0
  -18.8684  -43.6438   -8.1909 C   0  0  0  0  0  0  0  0  0  0  0  0
  -19.3463  -44.9212   -8.3373 C   0  0  0  0  0  0  0  0  0  0  0  0
  -18.7455  -46.1269   -8.8576 N   0  0  0  0  0  0  0  0  0  0  0  0
  -18.1162  -46.3454  -10.1539 C   0  0  0  0  0  0  0  0  0  0  0  0
  -16.7022  -46.7533  -10.1168 C   0  0  0  0  0  0  0  0  0  0  0  0
  -15.6407  -45.8434  -10.5749 C   0  0  0  0  0  0  0  0  0  0  0  0
  -15.9717  -45.0638  -11.7887 C   0  0  0  0  0  0  0  0  0  0  0  0
  -15.9860  -43.5823  -11.6057 C   0  0  0  0  0  0  0  0  0  0  0  0
  -14.7638  -43.0192  -12.0436 C   0  0  0  0  0  0  0  0  0  0  0  0
  -14.4450  -41.6946  -11.9344 C   0  0  0  0  0  0  0  0  0  0  0  0
  -15.4254  -40.9307  -11.3499 C   0  0  0  0  0  0  0  0  0  0  0  0
  -16.6595  -41.4386  -10.8962 C   0  0  0  0  0  0  0  0  0  0  0  0
  -17.4339  -40.3285  -10.2443 C   0  0  0  0  0  0  0  0  0  0  0  0
  -17.5178  -40.3525   -8.7671 C   0  0  2  0  0  0  0  0  0  0  0  0
  -18.8870  -40.2402   -8.2912 N   0  0  0  0  0  0  0  0  0  0  0  0
  -19.5953  -41.2306   -7.5554 C   0  0  0  0  0  0  0  0  0  0  0  0
  -20.2126  -40.6700   -6.5317 O   0  0  0  0  0  0  0  0  0  0  0  0
  -16.7644  -39.1237   -8.2136 C   0  0  2  0  0  0  0  0  0  0  0  0
  -15.3981  -39.4303   -8.1661 O   0  0  0  0  0  0  0  0  0  0  0  0
  -17.3025  -38.7591   -6.8491 C   0  0  0  0  0  0  0  0  0  0  0  0
  -17.7113  -37.4005   -6.8509 N   0  0  0  0  0  0  0  0  0  0  0  0
  -19.0947  -37.1345   -6.7010 C   0  0  0  0  0  0  0  0  0  0  0  0
  -20.0090  -38.2450   -7.0328 C   0  0  0  0  0  0  0  0  0  0  0  0
  -20.1488  -38.6763   -8.3294 C   0  0  0  0  0  0  0  0  0  0  0  0
  -21.0061  -39.7059   -8.6173 C   0  0  0  0  0  0  0  0  0  0  0  0
  -21.7281  -40.3148   -7.6300 C   0  0  0  0  0  0  0  0  0  0  0  0
  -21.5842  -39.8748   -6.3142 C   0  0  0  0  0  0  0  0  0  0  0  0
  -20.7271  -38.8436   -6.0186 C   0  0  0  0  0  0  0  0  0  0  0  0
  -22.3707  -40.5316   -5.2380 C   0  0  0  0  0  0  0  0  0  0  0  0
  -21.6973  -41.8366   -4.8062 C   0  0  0  0  0  0  0  0  0  0  0  0
  -22.4618  -39.6625   -4.0018 C   0  0  0  0  0  0  0  0  0  0  0  0
  -16.9321  -42.7718  -11.0331 C   0  0  0  0  0  0  0  0  0  0  0  0
  -20.6732  -45.2177   -8.0286 N   0  0  0  0  0  0  0  0  0  0  0  0
  1  2  1  0
  2  3  1  0
  3  4  2  0
  4  5  1  0
  5  6  2  0
  6  7  1  0
  7  8  1  0
  8  9  1  0
  9 10  1  0
 10 11  1  0
 11 12  1  0
 12 13  1  0
 13 14  1  0
 14 15  2  0
 15 16  1  0
 16 17  2  0
 17 18  1  0
 19 18  1  6
 19 20  1  0
 20 21  1  0
 21 22  2  0
 19 23  1  0
 23 24  1  1
 23 25  1  0
 25 26  1  0
 26 27  1  0
 27 28  1  0
 28 29  2  0
 29 30  1  0
 30 31  2  0
 31 32  1  0
 32 33  2  0
 32 34  1  0
 34 35  1  0
 34 36  1  0
 17 37  1  0
  7 38  2  0
 21  5  1  0
 33 28  1  0
 37 13  2  0
 38  3  1  0
M  END
$$$$
