
     RDKit          3D

 38 41  0  0  0  0  0  0  0  0999 V2000
  -18.3226  -48.1906   -6.1721 C   0  0  0  0  0  0  0  0  0  0  0  0
  -17.7692  -46.9536   -5.7221 O   0  0  0  0  0  0  0  0  0  0  0  0
  -18.3284  -45.7992   -6.2645 C   0  0  0  0  0  0  0  0  0  0  0  0
  -17.5371  -44.7515   -6.6601 C   0  0  0  0  0  0  0  0  0  0  0  0
  -18.0406  -43.5454   -7.2225 C   0  0  0  0  0  0  0  0  0  0  0  0
  -19.4022  -43.4223   -7.3847 C   0  0  0  0  0  0  0  0  0  0  0  0
  -20.1924  -44.4689   -6.9829 C   0  0  0  0  0  0  0  0  0  0  0  0
  -21.6258  -44.6343   -6.9245 N   0  0  0  0  0  0  0  0  0  0  0  0
  -22.6137  -43.7939   -6.2596 C   0  0  0  0  0  0  0  0  0  0  0  0
  -23.6399  -43.2015   -7.1331 C   0  0  0  0  0  0  0  0  0  0  0  0
  -23.6634  -41.7545   -7.3983 C   0  0  0  0  0  0  0  0  0  0  0  0
  -23.3599  -40.9032   -6.2261 C   0  0  0  0  0  0  0  0  0  0  0  0
  -22.1458  -40.0454   -6.3636 C   0  0  0  0  0  0  0  0  0  0  0  0
  -22.5103  -38.7312   -6.7410 C   0  0  0  0  0  0  0  0  0  0  0  0
  -21.6163  -37.7352   -7.0181 C   0  0  0  0  0  0  0  0  0  0  0  0
  -20.3020  -38.1164   -6.9018 C   0  0  0  0  0  0  0  0  0  0  0  0
  -19.8829  -39.4099   -6.5300 C   0  0  0  0  0  0  0  0  0  0  0  0
  -18.3832  -39.4730   -6.5906 C   0  0  0  0  0  0  0  0  0  0  0  0
  -17.7926  -40.2157   -7.7261 C   0  0  2  0  0  0  0  0  0  0  0  0
  -16.8198  -41.2048   -7.2912 N   0  0  0  0  0  0  0  0  0  0  0  0
  -16.9334  -42.6128   -7.4598 C   0  0  0  0  0  0  0  0  0  0  0  0
  -15.7936  -43.1018   -7.9128 O   0  0  0  0  0  0  0  0  0  0  0  0
  -17.0255  -39.2167   -8.6191 C   0  0  2  0  0  0  0  0  0  0  0  0
  -16.9997  -39.7241   -9.9249 O   0  0  0  0  0  0  0  0  0  0  0  0
  -15.6316  -39.0027   -8.0757 C   0  0  0  0  0  0  0  0  0  0  0  0
  -14.8567  -38.2946   -9.0304 N   0  0  0  0  0  0  0  0  0  0  0  0
  -13.7345  -38.9595   -9.5832 C   0  0  0  0  0  0  0  0  0  0  0  0
  -13.6027  -38.8988  -11.0522 C   0  0  0  0  0  0  0  0  0  0  0  0
  -13.8476  -40.0072  -11.8258 C   0  0  0  0  0  0  0  0  0  0  0  0
  -13.7154  -39.9315  -13.1876 C   0  0  0  0  0  0  0  0  0  0  0  0
  -13.3423  -38.7647  -13.7927 C   0  0  0  0  0  0  0  0  0  0  0  0
  -13.0942  -37.6408  -13.0048 C   0  0  0  0  0  0  0  0  0  0  0  0
  -13.2247  -37.7095  -11.6396 C   0  0  0  0  0  0  0  0  0  0  0  0
  -12.6843  -36.3708  -13.6585 C   0  0  0  0  0  0  0  0  0  0  0  0
  -13.7110  -35.2709  -13.3774 C   0  0  0  0  0  0  0  0  0  0  0  0
  -11.3582  -35.8705  -13.1267 C   0  0  0  0  0  0  0  0  0  0  0  0
  -20.8179  -40.3703   -6.2583 C   0  0  0  0  0  0  0  0  0  0  0  0
  -19.6190  -45.6176   -6.4392 N   0  0  0  0  0  0  0  0  0  0  0  0
  1  2  1  0
  2  3  1  0
  3  4  2  0
  4  5  1  0
  5  6  2  0
  6  7  1  0
  7  8  1  0
  8  9  1  0
  9 10  1  0
 10 11  1  0
 11 12  1  0
 12 13  1  0
 13 14  1  0
 14 15  2  0
 15 16  1  0
 16 17  2  0
 17 18  1  0
 19 18  1  1
 19 20  1  0
 20 21  1  0
 21 22  2  0
 19 23  1  0
 23 24  1  6
 23 25  1  0
 25 26  1  0
 26 27  1  0
 27 28  1  0
 28 29  2  0
 29 30  1  0
 30 31  2  0
 31 32  1  0
 32 33  2  0
 32 34  1  0
 34 35  1  0
 34 36  1  0
 17 37  1  0
  7 38  2  0
 21  5  1  0
 33 28  1  0
 37 13  2  0
 38  3  1  0
M  END
$$$$
