
     RDKit          3D

 38 41  0  0  0  0  0  0  0  0999 V2000
  -18.1425  -47.7934   -6.3263 C   0  0  0  0  0  0  0  0  0  0  0  0
  -17.4635  -46.5373   -6.3164 O   0  0  0  0  0  0  0  0  0  0  0  0
  -18.2224  -45.4280   -6.6813 C   0  0  0  0  0  0  0  0  0  0  0  0
  -17.6292  -44.3129   -7.2152 C   0  0  0  0  0  0  0  0  0  0  0  0
  -18.3427  -43.1472   -7.6107 C   0  0  0  0  0  0  0  0  0  0  0  0
  -19.7104  -43.1374   -7.4537 C   0  0  0  0  0  0  0  0  0  0  0  0
  -20.3012  -44.2514   -6.9139 C   0  0  0  0  0  0  0  0  0  0  0  0
  -21.6649  -44.5376   -6.5346 N   0  0  0  0  0  0  0  0  0  0  0  0
  -22.5366  -43.7910   -5.6363 C   0  0  0  0  0  0  0  0  0  0  0  0
  -23.7802  -43.2773   -6.2338 C   0  0  0  0  0  0  0  0  0  0  0  0
  -23.9788  -41.8345   -6.4424 C   0  0  0  0  0  0  0  0  0  0  0  0
  -23.4821  -40.9740   -5.3453 C   0  0  0  0  0  0  0  0  0  0  0  0
  -22.4044  -40.0155   -5.7304 C   0  0  0  0  0  0  0  0  0  0  0  0
  -22.9491  -38.7325   -5.9743 C   0  0  0  0  0  0  0  0  0  0  0  0
  -22.2248  -37.6616   -6.4179 C   0  0  0  0  0  0  0  0  0  0  0  0
  -20.8930  -37.9320   -6.6167 C   0  0  0  0  0  0  0  0  0  0  0  0
  -20.2984  -39.1898   -6.3900 C   0  0  0  0  0  0  0  0  0  0  0  0
  -18.8527  -39.1256   -6.7936 C   0  0  0  0  0  0  0  0  0  0  0  0
  -18.4824  -39.8030   -8.0561 C   0  0  2  0  0  0  0  0  0  0  0  0
  -17.3602  -40.7115   -7.8852 N   0  0  0  0  0  0  0  0  0  0  0  0
  -17.3975  -42.1220   -8.0662 C   0  0  0  0  0  0  0  0  0  0  0  0
  -16.3575  -42.5081   -8.7823 O   0  0  0  0  0  0  0  0  0  0  0  0
  -18.0233  -38.7328   -9.0699 C   0  0  2  0  0  0  0  0  0  0  0  0
  -18.5365  -39.0710  -10.3290 O   0  0  0  0  0  0  0  0  0  0  0  0
  -16.5143  -38.6499   -9.0860 C   0  0  0  0  0  0  0  0  0  0  0  0
  -15.9738  -39.9386   -9.3316 N   0  0  0  0  0  0  0  0  0  0  0  0
  -15.8983  -40.3691  -10.6791 C   0  0  0  0  0  0  0  0  0  0  0  0
  -15.2667  -39.4296  -11.6265 C   0  0  0  0  0  0  0  0  0  0  0  0
  -15.1201  -39.7605  -12.9515 C   0  0  0  0  0  0  0  0  0  0  0  0
  -14.5271  -38.8762  -13.8141 C   0  0  0  0  0  0  0  0  0  0  0  0
  -14.0769  -37.6630  -13.3756 C   0  0  0  0  0  0  0  0  0  0  0  0
  -14.2269  -37.3295  -12.0296 C   0  0  0  0  0  0  0  0  0  0  0  0
  -14.8201  -38.2109  -11.1597 C   0  0  0  0  0  0  0  0  0  0  0  0
  -13.7350  -36.0127  -11.5477 C   0  0  0  0  0  0  0  0  0  0  0  0
  -12.5073  -35.5758  -12.3507 C   0  0  0  0  0  0  0  0  0  0  0  0
  -14.7758  -34.9278  -11.7246 C   0  0  0  0  0  0  0  0  0  0  0  0
  -21.0664  -40.2285   -5.9412 C   0  0  0  0  0  0  0  0  0  0  0  0
  -19.5287  -45.3538   -6.5509 N   0  0  0  0  0  0  0  0  0  0  0  0
  1  2  1  0
  2  3  1  0
  3  4  2  0
  4  5  1  0
  5  6  2  0
  6  7  1  0
  7  8  1  0
  8  9  1  0
  9 10  1  0
 10 11  1  0
 11 12  1  0
 12 13  1  0
 13 14  1  0
 14 15  2  0
 15 16  1  0
 16 17  2  0
 17 18  1  0
 19 18  1  1
 19 20  1  0
 20 21  1  0
 21 22  2  0
 19 23  1  0
 23 24  1  6
 23 25  1  0
 25 26  1  0
 26 27  1  0
 27 28  1  0
 28 29  2  0
 29 30  1  0
 30 31  2  0
 31 32  1  0
 32 33  2  0
 32 34  1  0
 34 35  1  0
 34 36  1  0
 17 37  1  0
  7 38  2  0
 21  5  1  0
 33 28  1  0
 37 13  2  0
 38  3  1  0
M  END
$$$$
