
     RDKit          3D

 38 41  0  0  0  0  0  0  0  0999 V2000
  -15.6885  -45.4418  -13.8886 C   0  0  0  0  0  0  0  0  0  0  0  0
  -16.5695  -44.4948  -13.2836 O   0  0  0  0  0  0  0  0  0  0  0  0
  -15.9665  -43.3839  -12.6989 C   0  0  0  0  0  0  0  0  0  0  0  0
  -16.4573  -42.8455  -11.5372 C   0  0  0  0  0  0  0  0  0  0  0  0
  -15.8909  -41.7145  -10.8857 C   0  0  0  0  0  0  0  0  0  0  0  0
  -14.7811  -41.1270  -11.4504 C   0  0  0  0  0  0  0  0  0  0  0  0
  -14.2953  -41.6634  -12.6156 C   0  0  0  0  0  0  0  0  0  0  0  0
  -13.2322  -41.2525  -13.5024 N   0  0  0  0  0  0  0  0  0  0  0  0
  -13.0394  -39.9656  -14.1588 C   0  0  0  0  0  0  0  0  0  0  0  0
  -11.7912  -39.2595  -13.8261 C   0  0  0  0  0  0  0  0  0  0  0  0
  -11.8115  -38.0235  -13.0282 C   0  0  0  0  0  0  0  0  0  0  0  0
  -12.9172  -37.0939  -13.3509 C   0  0  0  0  0  0  0  0  0  0  0  0
  -13.8645  -36.8228  -12.2294 C   0  0  0  0  0  0  0  0  0  0  0  0
  -13.5371  -35.6031  -11.5910 C   0  0  0  0  0  0  0  0  0  0  0  0
  -14.1740  -35.1209  -10.4819 C   0  0  0  0  0  0  0  0  0  0  0  0
  -15.1813  -35.9320  -10.0196 C   0  0  0  0  0  0  0  0  0  0  0  0
  -15.5490  -37.1553  -10.6157 C   0  0  0  0  0  0  0  0  0  0  0  0
  -16.6276  -37.7959   -9.7892 C   0  0  0  0  0  0  0  0  0  0  0  0
  -16.2329  -38.9591   -8.9641 C   0  0  2  0  0  0  0  0  0  0  0  0
  -17.1013  -40.1056   -9.1770 N   0  0  0  0  0  0  0  0  0  0  0  0
  -16.7043  -41.3602   -9.7175 C   0  0  0  0  0  0  0  0  0  0  0  0
  -17.1983  -42.3396   -8.9826 O   0  0  0  0  0  0  0  0  0  0  0  0
  -16.3782  -38.5759   -7.4755 C   0  0  2  0  0  0  0  0  0  0  0  0
  -15.2637  -37.8106   -7.1077 O   0  0  0  0  0  0  0  0  0  0  0  0
  -16.5027  -39.8228   -6.6306 C   0  0  0  0  0  0  0  0  0  0  0  0
  -17.7603  -39.8237   -5.9736 N   0  0  0  0  0  0  0  0  0  0  0  0
  -18.5695  -40.9780   -6.1140 C   0  0  0  0  0  0  0  0  0  0  0  0
  -19.6742  -40.8818   -7.0885 C   0  0  0  0  0  0  0  0  0  0  0  0
  -19.8051  -41.8067   -8.0956 C   0  0  0  0  0  0  0  0  0  0  0  0
  -20.8349  -41.6972   -8.9929 C   0  0  0  0  0  0  0  0  0  0  0  0
  -21.7398  -40.6776   -8.9016 C   0  0  0  0  0  0  0  0  0  0  0  0
  -21.6046  -39.7397   -7.8781 C   0  0  0  0  0  0  0  0  0  0  0  0
  -20.5749  -39.8432   -6.9756 C   0  0  0  0  0  0  0  0  0  0  0  0
  -22.5841  -38.6268   -7.7777 C   0  0  0  0  0  0  0  0  0  0  0  0
  -23.9694  -39.0933   -8.2320 C   0  0  0  0  0  0  0  0  0  0  0  0
  -22.7370  -38.1431   -6.3514 C   0  0  0  0  0  0  0  0  0  0  0  0
  -14.8831  -37.5914  -11.7278 C   0  0  0  0  0  0  0  0  0  0  0  0
  -14.9106  -42.7743  -13.1912 N   0  0  0  0  0  0  0  0  0  0  0  0
  1  2  1  0
  2  3  1  0
  3  4  2  0
  4  5  1  0
  5  6  2  0
  6  7  1  0
  7  8  1  0
  8  9  1  0
  9 10  1  0
 10 11  1  0
 11 12  1  0
 12 13  1  0
 13 14  1  0
 14 15  2  0
 15 16  1  0
 16 17  2  0
 17 18  1  0
 19 18  1  6
 19 20  1  0
 20 21  1  0
 21 22  2  0
 19 23  1  0
 23 24  1  1
 23 25  1  0
 25 26  1  0
 26 27  1  0
 27 28  1  0
 28 29  2  0
 29 30  1  0
 30 31  2  0
 31 32  1  0
 32 33  2  0
 32 34  1  0
 34 35  1  0
 34 36  1  0
 17 37  1  0
  7 38  2  0
 21  5  1  0
 33 28  1  0
 37 13  2  0
 38  3  1  0
M  END
$$$$
