
     RDKit          3D

 38 41  0  0  0  0  0  0  0  0999 V2000
  -17.7934  -47.6439   -5.7250 C   0  0  0  0  0  0  0  0  0  0  0  0
  -17.1463  -46.3979   -5.9849 O   0  0  0  0  0  0  0  0  0  0  0  0
  -17.9559  -45.3790   -6.4808 C   0  0  0  0  0  0  0  0  0  0  0  0
  -17.4495  -44.4241   -7.3247 C   0  0  0  0  0  0  0  0  0  0  0  0
  -18.2187  -43.3580   -7.8689 C   0  0  0  0  0  0  0  0  0  0  0  0
  -19.5519  -43.2811   -7.5339 C   0  0  0  0  0  0  0  0  0  0  0  0
  -20.0551  -44.2337   -6.6849 C   0  0  0  0  0  0  0  0  0  0  0  0
  -21.3516  -44.3962   -6.0701 N   0  0  0  0  0  0  0  0  0  0  0  0
  -22.0966  -43.4489   -5.2505 C   0  0  0  0  0  0  0  0  0  0  0  0
  -23.4140  -43.0505   -5.7729 C   0  0  0  0  0  0  0  0  0  0  0  0
  -23.6495  -41.6853   -6.2681 C   0  0  0  0  0  0  0  0  0  0  0  0
  -23.0126  -40.6155   -5.4676 C   0  0  0  0  0  0  0  0  0  0  0  0
  -22.0048  -39.7920   -6.1987 C   0  0  0  0  0  0  0  0  0  0  0  0
  -22.5868  -38.5820   -6.6456 C   0  0  0  0  0  0  0  0  0  0  0  0
  -21.9380  -37.6534   -7.4103 C   0  0  0  0  0  0  0  0  0  0  0  0
  -20.6443  -37.9928   -7.7228 C   0  0  0  0  0  0  0  0  0  0  0  0
  -20.0154  -39.1831   -7.3049 C   0  0  0  0  0  0  0  0  0  0  0  0
  -18.6395  -39.2443   -7.9050 C   0  0  0  0  0  0  0  0  0  0  0  0
  -18.4417  -40.1928   -9.0236 C   0  0  2  0  0  0  0  0  0  0  0  0
  -17.3003  -41.0675   -8.8089 N   0  0  0  0  0  0  0  0  0  0  0  0
  -17.3523  -42.4818   -8.6649 C   0  0  0  0  0  0  0  0  0  0  0  0
  -16.4181  -43.0414   -9.4116 O   0  0  0  0  0  0  0  0  0  0  0  0
  -18.1339  -39.3846  -10.3026 C   0  0  2  0  0  0  0  0  0  0  0  0
  -18.0907  -40.2736  -11.3847 O   0  0  0  0  0  0  0  0  0  0  0  0
  -16.8297  -38.6382  -10.1409 C   0  0  0  0  0  0  0  0  0  0  0  0
  -15.7470  -39.5225  -10.3832 N   0  0  0  0  0  0  0  0  0  0  0  0
  -14.4368  -39.0181  -10.1935 C   0  0  0  0  0  0  0  0  0  0  0  0
  -14.0693  -37.8431  -11.0080 C   0  0  0  0  0  0  0  0  0  0  0  0
  -14.6642  -36.6242  -10.7910 C   0  0  0  0  0  0  0  0  0  0  0  0
  -14.3123  -35.5466  -11.5609 C   0  0  0  0  0  0  0  0  0  0  0  0
  -13.3734  -35.6648  -12.5464 C   0  0  0  0  0  0  0  0  0  0  0  0
  -12.7709  -36.9037  -12.7646 C   0  0  0  0  0  0  0  0  0  0  0  0
  -13.1188  -37.9878  -11.9970 C   0  0  0  0  0  0  0  0  0  0  0  0
  -11.7522  -37.0377  -13.8382 C   0  0  0  0  0  0  0  0  0  0  0  0
  -10.4293  -36.4049  -13.3996 C   0  0  0  0  0  0  0  0  0  0  0  0
  -11.4551  -38.4890  -14.1495 C   0  0  0  0  0  0  0  0  0  0  0  0
  -20.7071  -40.0782   -6.5365 C   0  0  0  0  0  0  0  0  0  0  0  0
  -19.2323  -45.2466   -6.1942 N   0  0  0  0  0  0  0  0  0  0  0  0
  1  2  1  0
  2  3  1  0
  3  4  2  0
  4  5  1  0
  5  6  2  0
  6  7  1  0
  7  8  1  0
  8  9  1  0
  9 10  1  0
 10 11  1  0
 11 12  1  0
 12 13  1  0
 13 14  1  0
 14 15  2  0
 15 16  1  0
 16 17  2  0
 17 18  1  0
 19 18  1  1
 19 20  1  0
 20 21  1  0
 21 22  2  0
 19 23  1  0
 23 24  1  6
 23 25  1  0
 25 26  1  0
 26 27  1  0
 27 28  1  0
 28 29  2  0
 29 30  1  0
 30 31  2  0
 31 32  1  0
 32 33  2  0
 32 34  1  0
 34 35  1  0
 34 36  1  0
 17 37  1  0
  7 38  2  0
 21  5  1  0
 33 28  1  0
 37 13  2  0
 38  3  1  0
M  END
$$$$
