
     RDKit          3D

 38 41  0  0  0  0  0  0  0  0999 V2000
  -13.1389  -44.2815  -13.7890 C   0  0  0  0  0  0  0  0  0  0  0  0
  -14.3825  -43.8024  -13.2762 O   0  0  0  0  0  0  0  0  0  0  0  0
  -14.3339  -42.5989  -12.5771 C   0  0  0  0  0  0  0  0  0  0  0  0
  -15.0110  -42.4426  -11.3950 C   0  0  0  0  0  0  0  0  0  0  0  0
  -15.0038  -41.2435  -10.6293 C   0  0  0  0  0  0  0  0  0  0  0  0
  -14.2704  -40.1768  -11.0982 C   0  0  0  0  0  0  0  0  0  0  0  0
  -13.5988  -40.3331  -12.2839 C   0  0  0  0  0  0  0  0  0  0  0  0
  -12.8293  -39.4148  -13.0901 N   0  0  0  0  0  0  0  0  0  0  0  0
  -13.2280  -38.1205  -13.6285 C   0  0  0  0  0  0  0  0  0  0  0  0
  -12.4219  -36.9700  -13.1885 C   0  0  0  0  0  0  0  0  0  0  0  0
  -12.9870  -35.9497  -12.2916 C   0  0  0  0  0  0  0  0  0  0  0  0
  -14.3908  -35.5786  -12.5792 C   0  0  0  0  0  0  0  0  0  0  0  0
  -15.3585  -35.8588  -11.4776 C   0  0  0  0  0  0  0  0  0  0  0  0
  -15.6050  -34.6848  -10.7269 C   0  0  0  0  0  0  0  0  0  0  0  0
  -16.3881  -34.6385   -9.6077 C   0  0  0  0  0  0  0  0  0  0  0  0
  -16.9307  -35.8500   -9.2553 C   0  0  0  0  0  0  0  0  0  0  0  0
  -16.7187  -37.0488   -9.9657 C   0  0  0  0  0  0  0  0  0  0  0  0
  -17.4003  -38.1734   -9.2392 C   0  0  0  0  0  0  0  0  0  0  0  0
  -16.5296  -39.1135   -8.4992 C   0  0  2  0  0  0  0  0  0  0  0  0
  -16.7999  -40.5005   -8.8416 N   0  0  0  0  0  0  0  0  0  0  0  0
  -15.8884  -41.3947   -9.4689 C   0  0  0  0  0  0  0  0  0  0  0  0
  -15.8959  -42.5550   -8.8387 O   0  0  0  0  0  0  0  0  0  0  0  0
  -16.8277  -38.9734   -6.9907 C   0  0  2  0  0  0  0  0  0  0  0  0
  -15.6132  -38.7845   -6.3182 O   0  0  0  0  0  0  0  0  0  0  0  0
  -17.5571  -40.1996   -6.4921 C   0  0  0  0  0  0  0  0  0  0  0  0
  -18.6520  -40.4786   -7.3503 N   0  0  0  0  0  0  0  0  0  0  0  0
  -19.0976  -41.8213   -7.4249 C   0  0  0  0  0  0  0  0  0  0  0  0
  -20.4496  -42.0871   -6.8954 C   0  0  0  0  0  0  0  0  0  0  0  0
  -21.0089  -43.3379   -6.9930 C   0  0  0  0  0  0  0  0  0  0  0  0
  -22.2672  -43.5630   -6.4992 C   0  0  0  0  0  0  0  0  0  0  0  0
  -22.9789  -42.5582   -5.9071 C   0  0  0  0  0  0  0  0  0  0  0  0
  -22.4086  -41.2890   -5.8093 C   0  0  0  0  0  0  0  0  0  0  0  0
  -21.1483  -41.0563   -6.3022 C   0  0  0  0  0  0  0  0  0  0  0  0
  -23.1808  -40.1923   -5.1698 C   0  0  0  0  0  0  0  0  0  0  0  0
  -23.8810  -40.6995   -3.9067 C   0  0  0  0  0  0  0  0  0  0  0  0
  -22.2820  -39.0532   -4.7381 C   0  0  0  0  0  0  0  0  0  0  0  0
  -15.9300  -37.0410  -11.0830 C   0  0  0  0  0  0  0  0  0  0  0  0
  -13.6584  -41.5429  -12.9743 N   0  0  0  0  0  0  0  0  0  0  0  0
  1  2  1  0
  2  3  1  0
  3  4  2  0
  4  5  1  0
  5  6  2  0
  6  7  1  0
  7  8  1  0
  8  9  1  0
  9 10  1  0
 10 11  1  0
 11 12  1  0
 12 13  1  0
 13 14  1  0
 14 15  2  0
 15 16  1  0
 16 17  2  0
 17 18  1  0
 19 18  1  6
 19 20  1  0
 20 21  1  0
 21 22  2  0
 19 23  1  0
 23 24  1  1
 23 25  1  0
 25 26  1  0
 26 27  1  0
 27 28  1  0
 28 29  2  0
 29 30  1  0
 30 31  2  0
 31 32  1  0
 32 33  2  0
 32 34  1  0
 34 35  1  0
 34 36  1  0
 17 37  1  0
  7 38  2  0
 21  5  1  0
 33 28  1  0
 37 13  2  0
 38  3  1  0
M  END
$$$$
