
     RDKit          3D

 38 41  0  0  0  0  0  0  0  0999 V2000
  -18.8047  -48.2042   -5.8521 C   0  0  0  0  0  0  0  0  0  0  0  0
  -18.3172  -46.9193   -5.4643 O   0  0  0  0  0  0  0  0  0  0  0  0
  -18.8320  -45.8317   -6.1654 C   0  0  0  0  0  0  0  0  0  0  0  0
  -18.0024  -44.8714   -6.6848 C   0  0  0  0  0  0  0  0  0  0  0  0
  -18.4596  -43.7369   -7.4118 C   0  0  0  0  0  0  0  0  0  0  0  0
  -19.8144  -43.5952   -7.6113 C   0  0  0  0  0  0  0  0  0  0  0  0
  -20.6430  -44.5537   -7.0858 C   0  0  0  0  0  0  0  0  0  0  0  0
  -22.0816  -44.6659   -7.0292 N   0  0  0  0  0  0  0  0  0  0  0  0
  -23.0496  -43.7140   -6.4991 C   0  0  0  0  0  0  0  0  0  0  0  0
  -24.0455  -43.2133   -7.4607 C   0  0  0  0  0  0  0  0  0  0  0  0
  -24.0188  -41.8150   -7.9176 C   0  0  0  0  0  0  0  0  0  0  0  0
  -23.7019  -40.8235   -6.8652 C   0  0  0  0  0  0  0  0  0  0  0  0
  -22.4591  -40.0296   -7.0965 C   0  0  0  0  0  0  0  0  0  0  0  0
  -22.7761  -38.7674   -7.6524 C   0  0  0  0  0  0  0  0  0  0  0  0
  -21.8470  -37.8455   -8.0458 C   0  0  0  0  0  0  0  0  0  0  0  0
  -20.5472  -38.2476   -7.8581 C   0  0  0  0  0  0  0  0  0  0  0  0
  -20.1749  -39.4916   -7.3096 C   0  0  0  0  0  0  0  0  0  0  0  0
  -18.6774  -39.6081   -7.3367 C   0  0  0  0  0  0  0  0  0  0  0  0
  -18.0976  -40.5143   -8.3527 C   0  0  2  0  0  0  0  0  0  0  0  0
  -17.1627  -41.4652   -7.7734 N   0  0  0  0  0  0  0  0  0  0  0  0
  -17.3199  -42.8790   -7.7538 C   0  0  0  0  0  0  0  0  0  0  0  0
  -16.1912  -43.4590   -8.1185 O   0  0  0  0  0  0  0  0  0  0  0  0
  -17.2877  -39.6683   -9.3588 C   0  0  2  0  0  0  0  0  0  0  0  0
  -18.0619  -39.4985  -10.5141 O   0  0  0  0  0  0  0  0  0  0  0  0
  -15.9719  -40.3468   -9.6632 C   0  0  0  0  0  0  0  0  0  0  0  0
  -14.9154  -39.6220   -9.0536 N   0  0  0  0  0  0  0  0  0  0  0  0
  -13.6155  -39.7853   -9.5925 C   0  0  0  0  0  0  0  0  0  0  0  0
  -13.4468  -39.4030  -11.0083 C   0  0  0  0  0  0  0  0  0  0  0  0
  -13.8174  -40.2596  -12.0161 C   0  0  0  0  0  0  0  0  0  0  0  0
  -13.6486  -39.8877  -13.3242 C   0  0  0  0  0  0  0  0  0  0  0  0
  -13.1151  -38.6713  -13.6447 C   0  0  0  0  0  0  0  0  0  0  0  0
  -12.7395  -37.8035  -12.6193 C   0  0  0  0  0  0  0  0  0  0  0  0
  -12.9058  -38.1697  -11.3064 C   0  0  0  0  0  0  0  0  0  0  0  0
  -12.1551  -36.4813  -12.9635 C   0  0  0  0  0  0  0  0  0  0  0  0
  -13.0017  -35.3532  -12.3690 C   0  0  0  0  0  0  0  0  0  0  0  0
  -10.7610  -36.3210  -12.3955 C   0  0  0  0  0  0  0  0  0  0  0  0
  -21.1438  -40.3777   -6.9270 C   0  0  0  0  0  0  0  0  0  0  0  0
  -20.1138  -45.6359   -6.3839 N   0  0  0  0  0  0  0  0  0  0  0  0
  1  2  1  0
  2  3  1  0
  3  4  2  0
  4  5  1  0
  5  6  2  0
  6  7  1  0
  7  8  1  0
  8  9  1  0
  9 10  1  0
 10 11  1  0
 11 12  1  0
 12 13  1  0
 13 14  1  0
 14 15  2  0
 15 16  1  0
 16 17  2  0
 17 18  1  0
 19 18  1  1
 19 20  1  0
 20 21  1  0
 21 22  2  0
 19 23  1  0
 23 24  1  6
 23 25  1  0
 25 26  1  0
 26 27  1  0
 27 28  1  0
 28 29  2  0
 29 30  1  0
 30 31  2  0
 31 32  1  0
 32 33  2  0
 32 34  1  0
 34 35  1  0
 34 36  1  0
 17 37  1  0
  7 38  2  0
 21  5  1  0
 33 28  1  0
 37 13  2  0
 38  3  1  0
M  END
$$$$
