
     RDKit          3D

 38 41  0  0  0  0  0  0  0  0999 V2000
  -17.9989  -48.3919   -7.7704 C   0  0  0  0  0  0  0  0  0  0  0  0
  -17.5506  -47.3021   -6.9640 O   0  0  0  0  0  0  0  0  0  0  0  0
  -18.2324  -46.0986   -7.1269 C   0  0  0  0  0  0  0  0  0  0  0  0
  -17.5522  -44.9143   -7.2493 C   0  0  0  0  0  0  0  0  0  0  0  0
  -18.1838  -43.6508   -7.4195 C   0  0  0  0  0  0  0  0  0  0  0  0
  -19.5591  -43.6128   -7.4696 C   0  0  0  0  0  0  0  0  0  0  0  0
  -20.2378  -44.7978   -7.3410 C   0  0  0  0  0  0  0  0  0  0  0  0
  -21.6467  -45.1036   -7.2580 N   0  0  0  0  0  0  0  0  0  0  0  0
  -22.6407  -44.5757   -6.3318 C   0  0  0  0  0  0  0  0  0  0  0  0
  -23.7706  -43.8603   -6.9472 C   0  0  0  0  0  0  0  0  0  0  0  0
  -23.9202  -42.4052   -6.7893 C   0  0  0  0  0  0  0  0  0  0  0  0
  -23.5925  -41.8897   -5.4410 C   0  0  0  0  0  0  0  0  0  0  0  0
  -22.4585  -40.9201   -5.3920 C   0  0  0  0  0  0  0  0  0  0  0  0
  -22.9459  -39.5919   -5.3616 C   0  0  0  0  0  0  0  0  0  0  0  0
  -22.1509  -38.4805   -5.3905 C   0  0  0  0  0  0  0  0  0  0  0  0
  -20.8071  -38.7568   -5.4552 C   0  0  0  0  0  0  0  0  0  0  0  0
  -20.2674  -40.0586   -5.4879 C   0  0  0  0  0  0  0  0  0  0  0  0
  -18.7759  -39.9646   -5.6413 C   0  0  0  0  0  0  0  0  0  0  0  0
  -18.2197  -40.3044   -6.9698 C   0  0  2  0  0  0  0  0  0  0  0  0
  -17.1468  -41.2819   -6.8842 N   0  0  0  0  0  0  0  0  0  0  0  0
  -17.1691  -42.5916   -7.4393 C   0  0  0  0  0  0  0  0  0  0  0  0
  -16.0340  -42.8284   -8.0707 O   0  0  0  0  0  0  0  0  0  0  0  0
  -17.5975  -39.0303   -7.5810 C   0  0  2  0  0  0  0  0  0  0  0  0
  -18.5127  -37.9797   -7.4334 O   0  0  0  0  0  0  0  0  0  0  0  0
  -17.2515  -39.2695   -9.0327 C   0  0  0  0  0  0  0  0  0  0  0  0
  -16.0114  -38.6477   -9.3305 N   0  0  0  0  0  0  0  0  0  0  0  0
  -15.0675  -39.3969  -10.0753 C   0  0  0  0  0  0  0  0  0  0  0  0
  -15.5618  -40.0025  -11.3275 C   0  0  0  0  0  0  0  0  0  0  0  0
  -14.8623  -41.0113  -11.9438 C   0  0  0  0  0  0  0  0  0  0  0  0
  -15.3357  -41.5572  -13.1081 C   0  0  0  0  0  0  0  0  0  0  0  0
  -16.4994  -41.1128  -13.6693 C   0  0  0  0  0  0  0  0  0  0  0  0
  -17.2077  -40.0883  -13.0414 C   0  0  0  0  0  0  0  0  0  0  0  0
  -16.7391  -39.5365  -11.8746 C   0  0  0  0  0  0  0  0  0  0  0  0
  -18.4717  -39.5991  -13.6506 C   0  0  0  0  0  0  0  0  0  0  0  0
  -19.6719  -40.0211  -12.7996 C   0  0  0  0  0  0  0  0  0  0  0  0
  -18.5069  -38.0876  -13.7284 C   0  0  0  0  0  0  0  0  0  0  0  0
  -21.1062  -41.1382   -5.4519 C   0  0  0  0  0  0  0  0  0  0  0  0
  -19.5423  -45.9948   -7.1760 N   0  0  0  0  0  0  0  0  0  0  0  0
  1  2  1  0
  2  3  1  0
  3  4  2  0
  4  5  1  0
  5  6  2  0
  6  7  1  0
  7  8  1  0
  8  9  1  0
  9 10  1  0
 10 11  1  0
 11 12  1  0
 12 13  1  0
 13 14  1  0
 14 15  2  0
 15 16  1  0
 16 17  2  0
 17 18  1  0
 19 18  1  1
 19 20  1  0
 20 21  1  0
 21 22  2  0
 19 23  1  0
 23 24  1  6
 23 25  1  0
 25 26  1  0
 26 27  1  0
 27 28  1  0
 28 29  2  0
 29 30  1  0
 30 31  2  0
 31 32  1  0
 32 33  2  0
 32 34  1  0
 34 35  1  0
 34 36  1  0
 17 37  1  0
  7 38  2  0
 21  5  1  0
 33 28  1  0
 37 13  2  0
 38  3  1  0
M  END
$$$$
