
     RDKit          3D

 38 41  0  0  0  0  0  0  0  0999 V2000
  -18.0036  -47.4885   -9.2499 C   0  0  0  0  0  0  0  0  0  0  0  0
  -18.4851  -46.1560   -9.4273 O   0  0  0  0  0  0  0  0  0  0  0  0
  -17.5357  -45.1425   -9.3214 C   0  0  0  0  0  0  0  0  0  0  0  0
  -17.8083  -43.9910   -8.6285 C   0  0  0  0  0  0  0  0  0  0  0  0
  -16.8861  -42.9179   -8.4793 C   0  0  0  0  0  0  0  0  0  0  0  0
  -15.6440  -43.0425   -9.0599 C   0  0  0  0  0  0  0  0  0  0  0  0
  -15.3754  -44.1924   -9.7577 C   0  0  0  0  0  0  0  0  0  0  0  0
  -14.2386  -44.6034  -10.5478 N   0  0  0  0  0  0  0  0  0  0  0  0
  -13.6181  -43.9203  -11.6758 C   0  0  0  0  0  0  0  0  0  0  0  0
  -12.2024  -43.5562  -11.5017 C   0  0  0  0  0  0  0  0  0  0  0  0
  -11.7948  -42.1488  -11.3676 C   0  0  0  0  0  0  0  0  0  0  0  0
  -12.5155  -41.2063  -12.2526 C   0  0  0  0  0  0  0  0  0  0  0  0
  -13.3086  -40.1563  -11.5478 C   0  0  0  0  0  0  0  0  0  0  0  0
  -12.5806  -38.9442  -11.4893 C   0  0  0  0  0  0  0  0  0  0  0  0
  -13.0099  -37.8203  -10.8406 C   0  0  0  0  0  0  0  0  0  0  0  0
  -14.2329  -37.9600  -10.2315 C   0  0  0  0  0  0  0  0  0  0  0  0
  -14.9999  -39.1423  -10.2579 C   0  0  0  0  0  0  0  0  0  0  0  0
  -16.2302  -38.9445   -9.4188 C   0  0  0  0  0  0  0  0  0  0  0  0
  -16.2559  -39.6220   -8.1034 C   0  0  2  0  0  0  0  0  0  0  0  0
  -17.4656  -40.4051   -7.9107 N   0  0  0  0  0  0  0  0  0  0  0  0
  -17.5249  -41.8173   -7.7495 C   0  0  0  0  0  0  0  0  0  0  0  0
  -18.3226  -42.1188   -6.7415 O   0  0  0  0  0  0  0  0  0  0  0  0
  -16.2561  -38.5447   -6.9973 C   0  0  2  0  0  0  0  0  0  0  0  0
  -15.5202  -39.0317   -5.9091 O   0  0  0  0  0  0  0  0  0  0  0  0
  -17.6761  -38.2072   -6.6049 C   0  0  0  0  0  0  0  0  0  0  0  0
  -18.5749  -39.0239   -7.3387 N   0  0  0  0  0  0  0  0  0  0  0  0
  -19.7363  -38.4069   -7.8654 C   0  0  0  0  0  0  0  0  0  0  0  0
  -21.0041  -39.1382   -7.6728 C   0  0  0  0  0  0  0  0  0  0  0  0
  -22.0118  -39.0540   -8.6025 C   0  0  0  0  0  0  0  0  0  0  0  0
  -23.1828  -39.7370   -8.4030 C   0  0  0  0  0  0  0  0  0  0  0  0
  -23.3659  -40.5057   -7.2884 C   0  0  0  0  0  0  0  0  0  0  0  0
  -22.3410  -40.5894   -6.3459 C   0  0  0  0  0  0  0  0  0  0  0  0
  -21.1649  -39.9075   -6.5393 C   0  0  0  0  0  0  0  0  0  0  0  0
  -22.5375  -41.4209   -5.1301 C   0  0  0  0  0  0  0  0  0  0  0  0
  -21.9659  -40.7108   -3.9005 C   0  0  0  0  0  0  0  0  0  0  0  0
  -24.0053  -41.6607   -4.8476 C   0  0  0  0  0  0  0  0  0  0  0  0
  -14.5275  -40.2385  -10.9254 C   0  0  0  0  0  0  0  0  0  0  0  0
  -16.3363  -45.1977   -9.8575 N   0  0  0  0  0  0  0  0  0  0  0  0
  1  2  1  0
  2  3  1  0
  3  4  2  0
  4  5  1  0
  5  6  2  0
  6  7  1  0
  7  8  1  0
  8  9  1  0
  9 10  1  0
 10 11  1  0
 11 12  1  0
 12 13  1  0
 13 14  1  0
 14 15  2  0
 15 16  1  0
 16 17  2  0
 17 18  1  0
 19 18  1  6
 19 20  1  0
 20 21  1  0
 21 22  2  0
 19 23  1  0
 23 24  1  1
 23 25  1  0
 25 26  1  0
 26 27  1  0
 27 28  1  0
 28 29  2  0
 29 30  1  0
 30 31  2  0
 31 32  1  0
 32 33  2  0
 32 34  1  0
 34 35  1  0
 34 36  1  0
 17 37  1  0
  7 38  2  0
 21  5  1  0
 33 28  1  0
 37 13  2  0
 38  3  1  0
M  END
$$$$
