
     RDKit          3D

 38 41  0  0  0  0  0  0  0  0999 V2000
  -18.4392  -47.9039   -5.1635 C   0  0  0  0  0  0  0  0  0  0  0  0
  -17.7046  -47.1380   -6.1190 O   0  0  0  0  0  0  0  0  0  0  0  0
  -18.3262  -45.9826   -6.5862 C   0  0  0  0  0  0  0  0  0  0  0  0
  -17.5930  -44.8713   -6.9144 C   0  0  0  0  0  0  0  0  0  0  0  0
  -18.1617  -43.6602   -7.3982 C   0  0  0  0  0  0  0  0  0  0  0  0
  -19.5285  -43.5994   -7.5515 C   0  0  0  0  0  0  0  0  0  0  0  0
  -20.2607  -44.7100   -7.2170 C   0  0  0  0  0  0  0  0  0  0  0  0
  -21.6831  -44.9545   -7.1685 N   0  0  0  0  0  0  0  0  0  0  0  0
  -22.7114  -44.2118   -6.4507 C   0  0  0  0  0  0  0  0  0  0  0  0
  -23.7710  -43.6201   -7.2840 C   0  0  0  0  0  0  0  0  0  0  0  0
  -23.8720  -42.1624   -7.4561 C   0  0  0  0  0  0  0  0  0  0  0  0
  -23.6093  -41.3727   -6.2320 C   0  0  0  0  0  0  0  0  0  0  0  0
  -22.4428  -40.4448   -6.3151 C   0  0  0  0  0  0  0  0  0  0  0  0
  -22.8778  -39.1304   -6.6075 C   0  0  0  0  0  0  0  0  0  0  0  0
  -22.0388  -38.0727   -6.8208 C   0  0  0  0  0  0  0  0  0  0  0  0
  -20.7057  -38.3903   -6.7299 C   0  0  0  0  0  0  0  0  0  0  0  0
  -20.2174  -39.6809   -6.4417 C   0  0  0  0  0  0  0  0  0  0  0  0
  -18.7167  -39.6604   -6.5071 C   0  0  0  0  0  0  0  0  0  0  0  0
  -18.0921  -40.2968   -7.6881 C   0  0  2  0  0  0  0  0  0  0  0  0
  -17.0666  -41.2586   -7.3178 N   0  0  0  0  0  0  0  0  0  0  0  0
  -17.1063  -42.6570   -7.5761 C   0  0  0  0  0  0  0  0  0  0  0  0
  -15.9441  -43.0550   -8.0600 O   0  0  0  0  0  0  0  0  0  0  0  0
  -17.3824  -39.2035   -8.5158 C   0  0  2  0  0  0  0  0  0  0  0  0
  -18.3522  -38.5109   -9.2527 O   0  0  0  0  0  0  0  0  0  0  0  0
  -16.3408  -39.8300   -9.4140 C   0  0  0  0  0  0  0  0  0  0  0  0
  -15.3400  -40.4448   -8.6181 N   0  0  0  0  0  0  0  0  0  0  0  0
  -13.9976  -40.0474   -8.8349 C   0  0  0  0  0  0  0  0  0  0  0  0
  -13.6311  -39.7319  -10.2296 C   0  0  0  0  0  0  0  0  0  0  0  0
  -13.9949  -40.5672  -11.2576 C   0  0  0  0  0  0  0  0  0  0  0  0
  -13.6411  -40.2587  -12.5450 C   0  0  0  0  0  0  0  0  0  0  0  0
  -12.9288  -39.1269  -12.8252 C   0  0  0  0  0  0  0  0  0  0  0  0
  -12.5607  -38.2805  -11.7794 C   0  0  0  0  0  0  0  0  0  0  0  0
  -12.9117  -38.5835  -10.4869 C   0  0  0  0  0  0  0  0  0  0  0  0
  -11.7824  -37.0506  -12.0792 C   0  0  0  0  0  0  0  0  0  0  0  0
  -12.5115  -35.8151  -11.5455 C   0  0  0  0  0  0  0  0  0  0  0  0
  -10.4235  -37.0722  -11.4125 C   0  0  0  0  0  0  0  0  0  0  0  0
  -21.0992  -40.7048   -6.2315 C   0  0  0  0  0  0  0  0  0  0  0  0
  -19.6252  -45.8590   -6.7482 N   0  0  0  0  0  0  0  0  0  0  0  0
  1  2  1  0
  2  3  1  0
  3  4  2  0
  4  5  1  0
  5  6  2  0
  6  7  1  0
  7  8  1  0
  8  9  1  0
  9 10  1  0
 10 11  1  0
 11 12  1  0
 12 13  1  0
 13 14  1  0
 14 15  2  0
 15 16  1  0
 16 17  2  0
 17 18  1  0
 19 18  1  1
 19 20  1  0
 20 21  1  0
 21 22  2  0
 19 23  1  0
 23 24  1  6
 23 25  1  0
 25 26  1  0
 26 27  1  0
 27 28  1  0
 28 29  2  0
 29 30  1  0
 30 31  2  0
 31 32  1  0
 32 33  2  0
 32 34  1  0
 34 35  1  0
 34 36  1  0
 17 37  1  0
  7 38  2  0
 21  5  1  0
 33 28  1  0
 37 13  2  0
 38  3  1  0
M  END
$$$$
