
     RDKit          3D

 38 41  0  0  0  0  0  0  0  0999 V2000
  -18.4203  -45.4329  -12.7877 C   0  0  0  0  0  0  0  0  0  0  0  0
  -18.3100  -45.0551  -11.4151 O   0  0  0  0  0  0  0  0  0  0  0  0
  -17.4283  -44.0139  -11.1354 C   0  0  0  0  0  0  0  0  0  0  0  0
  -17.7273  -43.0739  -10.1829 C   0  0  0  0  0  0  0  0  0  0  0  0
  -16.8736  -41.9867   -9.8459 C   0  0  0  0  0  0  0  0  0  0  0  0
  -15.6733  -41.8722  -10.5105 C   0  0  0  0  0  0  0  0  0  0  0  0
  -15.3788  -42.8100  -11.4671 C   0  0  0  0  0  0  0  0  0  0  0  0
  -14.2791  -42.9358  -12.3947 N   0  0  0  0  0  0  0  0  0  0  0  0
  -13.7949  -41.9677  -13.3706 C   0  0  0  0  0  0  0  0  0  0  0  0
  -12.3990  -41.5325  -13.2000 C   0  0  0  0  0  0  0  0  0  0  0  0
  -12.0816  -40.1613  -12.7715 C   0  0  0  0  0  0  0  0  0  0  0  0
  -12.9311  -39.1097  -13.3742 C   0  0  0  0  0  0  0  0  0  0  0  0
  -13.7400  -38.3151  -12.4032 C   0  0  0  0  0  0  0  0  0  0  0  0
  -13.0960  -37.0893  -12.1112 C   0  0  0  0  0  0  0  0  0  0  0  0
  -13.5522  -36.1795  -11.1990 C   0  0  0  0  0  0  0  0  0  0  0  0
  -14.7129  -36.5553  -10.5682 C   0  0  0  0  0  0  0  0  0  0  0  0
  -15.3954  -37.7627  -10.8199 C   0  0  0  0  0  0  0  0  0  0  0  0
  -16.5694  -37.8628   -9.8880 C   0  0  0  0  0  0  0  0  0  0  0  0
  -16.4482  -38.8167   -8.7632 C   0  0  2  0  0  0  0  0  0  0  0  0
  -17.5823  -39.7232   -8.6850 N   0  0  0  0  0  0  0  0  0  0  0  0
  -17.5306  -41.1355   -8.8480 C   0  0  0  0  0  0  0  0  0  0  0  0
  -18.2268  -41.7213   -7.8912 O   0  0  0  0  0  0  0  0  0  0  0  0
  -16.4399  -38.0179   -7.4420 C   0  0  2  0  0  0  0  0  0  0  0  0
  -15.2065  -38.2252   -6.8105 O   0  0  0  0  0  0  0  0  0  0  0  0
  -17.5943  -38.4520   -6.5684 C   0  0  0  0  0  0  0  0  0  0  0  0
  -18.7813  -37.8052   -6.9995 N   0  0  0  0  0  0  0  0  0  0  0  0
  -19.9323  -37.9422   -6.1851 C   0  0  0  0  0  0  0  0  0  0  0  0
  -20.8693  -39.0191   -6.5612 C   0  0  0  0  0  0  0  0  0  0  0  0
  -21.3207  -39.1380   -7.8530 C   0  0  0  0  0  0  0  0  0  0  0  0
  -22.1939  -40.1420   -8.1809 C   0  0  0  0  0  0  0  0  0  0  0  0
  -22.6250  -41.0326   -7.2388 C   0  0  0  0  0  0  0  0  0  0  0  0
  -22.1651  -40.9095   -5.9277 C   0  0  0  0  0  0  0  0  0  0  0  0
  -21.2902  -39.9058   -5.5921 C   0  0  0  0  0  0  0  0  0  0  0  0
  -22.6348  -41.8735   -4.8990 C   0  0  0  0  0  0  0  0  0  0  0  0
  -21.7553  -41.7899   -3.6491 C   0  0  0  0  0  0  0  0  0  0  0  0
  -24.0495  -41.5709   -4.4532 C   0  0  0  0  0  0  0  0  0  0  0  0
  -14.8996  -38.6378  -11.7466 C   0  0  0  0  0  0  0  0  0  0  0  0
  -16.2720  -43.8456  -11.7384 N   0  0  0  0  0  0  0  0  0  0  0  0
  1  2  1  0
  2  3  1  0
  3  4  2  0
  4  5  1  0
  5  6  2  0
  6  7  1  0
  7  8  1  0
  8  9  1  0
  9 10  1  0
 10 11  1  0
 11 12  1  0
 12 13  1  0
 13 14  1  0
 14 15  2  0
 15 16  1  0
 16 17  2  0
 17 18  1  0
 19 18  1  6
 19 20  1  0
 20 21  1  0
 21 22  2  0
 19 23  1  0
 23 24  1  1
 23 25  1  0
 25 26  1  0
 26 27  1  0
 27 28  1  0
 28 29  2  0
 29 30  1  0
 30 31  2  0
 31 32  1  0
 32 33  2  0
 32 34  1  0
 34 35  1  0
 34 36  1  0
 17 37  1  0
  7 38  2  0
 21  5  1  0
 33 28  1  0
 37 13  2  0
 38  3  1  0
M  END
$$$$
