
     RDKit          3D

 38 41  0  0  0  0  0  0  0  0999 V2000
  -18.4385  -47.9357   -6.0446 C   0  0  0  0  0  0  0  0  0  0  0  0
  -17.5705  -46.8070   -6.1533 O   0  0  0  0  0  0  0  0  0  0  0  0
  -18.1723  -45.6043   -6.5149 C   0  0  0  0  0  0  0  0  0  0  0  0
  -17.4183  -44.4877   -6.7702 C   0  0  0  0  0  0  0  0  0  0  0  0
  -17.9661  -43.2293   -7.1451 C   0  0  0  0  0  0  0  0  0  0  0  0
  -19.3338  -43.1250   -7.2643 C   0  0  0  0  0  0  0  0  0  0  0  0
  -20.0866  -44.2413   -7.0027 C   0  0  0  0  0  0  0  0  0  0  0  0
  -21.5134  -44.4560   -6.9436 N   0  0  0  0  0  0  0  0  0  0  0  0
  -22.5091  -43.7489   -6.1480 C   0  0  0  0  0  0  0  0  0  0  0  0
  -23.5695  -43.0688   -6.9097 C   0  0  0  0  0  0  0  0  0  0  0  0
  -23.6378  -41.6001   -6.9644 C   0  0  0  0  0  0  0  0  0  0  0  0
  -23.3322  -40.9160   -5.6879 C   0  0  0  0  0  0  0  0  0  0  0  0
  -22.1450  -40.0117   -5.7223 C   0  0  0  0  0  0  0  0  0  0  0  0
  -22.5529  -38.6685   -5.9011 C   0  0  0  0  0  0  0  0  0  0  0  0
  -21.6923  -37.6169   -6.0482 C   0  0  0  0  0  0  0  0  0  0  0  0
  -20.3659  -37.9715   -6.0107 C   0  0  0  0  0  0  0  0  0  0  0  0
  -19.9042  -39.2917   -5.8354 C   0  0  0  0  0  0  0  0  0  0  0  0
  -18.4050  -39.3008   -5.9306 C   0  0  0  0  0  0  0  0  0  0  0  0
  -17.8192  -39.8559   -7.1709 C   0  0  2  0  0  0  0  0  0  0  0  0
  -16.8108  -40.8675   -6.8991 N   0  0  0  0  0  0  0  0  0  0  0  0
  -16.8899  -42.2398   -7.2657 C   0  0  0  0  0  0  0  0  0  0  0  0
  -15.7474  -42.6249   -7.8039 O   0  0  0  0  0  0  0  0  0  0  0  0
  -17.0987  -38.7173   -7.9249 C   0  0  2  0  0  0  0  0  0  0  0  0
  -18.0641  -37.8038   -8.3683 O   0  0  0  0  0  0  0  0  0  0  0  0
  -16.2974  -39.2845   -9.0739 C   0  0  0  0  0  0  0  0  0  0  0  0
  -15.2181  -40.0510   -8.5633 N   0  0  0  0  0  0  0  0  0  0  0  0
  -13.9423  -39.8515   -9.1459 C   0  0  0  0  0  0  0  0  0  0  0  0
  -13.9329  -39.4495  -10.5663 C   0  0  0  0  0  0  0  0  0  0  0  0
  -14.1633  -40.3710  -11.5586 C   0  0  0  0  0  0  0  0  0  0  0  0
  -14.1458  -39.9785  -12.8714 C   0  0  0  0  0  0  0  0  0  0  0  0
  -13.9023  -38.6779  -13.2120 C   0  0  0  0  0  0  0  0  0  0  0  0
  -13.6687  -37.7444  -12.2023 C   0  0  0  0  0  0  0  0  0  0  0  0
  -13.6845  -38.1306  -10.8847 C   0  0  0  0  0  0  0  0  0  0  0  0
  -13.3993  -36.3296  -12.5685 C   0  0  0  0  0  0  0  0  0  0  0  0
  -14.5069  -35.4198  -12.0312 C   0  0  0  0  0  0  0  0  0  0  0  0
  -12.1021  -35.8332  -11.9665 C   0  0  0  0  0  0  0  0  0  0  0  0
  -20.8068  -40.3084   -5.6877 C   0  0  0  0  0  0  0  0  0  0  0  0
  -19.4708  -45.4382   -6.6393 N   0  0  0  0  0  0  0  0  0  0  0  0
  1  2  1  0
  2  3  1  0
  3  4  2  0
  4  5  1  0
  5  6  2  0
  6  7  1  0
  7  8  1  0
  8  9  1  0
  9 10  1  0
 10 11  1  0
 11 12  1  0
 12 13  1  0
 13 14  1  0
 14 15  2  0
 15 16  1  0
 16 17  2  0
 17 18  1  0
 19 18  1  1
 19 20  1  0
 20 21  1  0
 21 22  2  0
 19 23  1  0
 23 24  1  6
 23 25  1  0
 25 26  1  0
 26 27  1  0
 27 28  1  0
 28 29  2  0
 29 30  1  0
 30 31  2  0
 31 32  1  0
 32 33  2  0
 32 34  1  0
 34 35  1  0
 34 36  1  0
 17 37  1  0
  7 38  2  0
 21  5  1  0
 33 28  1  0
 37 13  2  0
 38  3  1  0
M  END
$$$$
