
     RDKit          3D

 38 41  0  0  0  0  0  0  0  0999 V2000
  -17.5459  -47.3673   -5.7717 C   0  0  0  0  0  0  0  0  0  0  0  0
  -17.0225  -46.3881   -6.6696 O   0  0  0  0  0  0  0  0  0  0  0  0
  -17.8568  -45.3098   -6.9541 C   0  0  0  0  0  0  0  0  0  0  0  0
  -17.3477  -44.1352   -7.4455 C   0  0  0  0  0  0  0  0  0  0  0  0
  -18.1410  -42.9965   -7.7589 C   0  0  0  0  0  0  0  0  0  0  0  0
  -19.5013  -43.0777   -7.5628 C   0  0  0  0  0  0  0  0  0  0  0  0
  -20.0079  -44.2513   -7.0656 C   0  0  0  0  0  0  0  0  0  0  0  0
  -21.3396  -44.6386   -6.6631 N   0  0  0  0  0  0  0  0  0  0  0  0
  -22.2252  -43.9927   -5.7025 C   0  0  0  0  0  0  0  0  0  0  0  0
  -23.5151  -43.5258   -6.2367 C   0  0  0  0  0  0  0  0  0  0  0  0
  -23.8053  -42.0890   -6.3637 C   0  0  0  0  0  0  0  0  0  0  0  0
  -23.3260  -41.2565   -5.2376 C   0  0  0  0  0  0  0  0  0  0  0  0
  -22.3195  -40.2162   -5.6025 C   0  0  0  0  0  0  0  0  0  0  0  0
  -22.9466  -38.9579   -5.7633 C   0  0  0  0  0  0  0  0  0  0  0  0
  -22.3013  -37.8239   -6.1706 C   0  0  0  0  0  0  0  0  0  0  0  0
  -20.9627  -38.0026   -6.4211 C   0  0  0  0  0  0  0  0  0  0  0  0
  -20.2879  -39.2318   -6.2776 C   0  0  0  0  0  0  0  0  0  0  0  0
  -18.8620  -39.0597   -6.7183 C   0  0  0  0  0  0  0  0  0  0  0  0
  -18.4923  -39.6487   -8.0245 C   0  0  2  0  0  0  0  0  0  0  0  0
  -17.3135  -40.4948   -7.9334 N   0  0  0  0  0  0  0  0  0  0  0  0
  -17.2729  -41.8941   -8.1869 C   0  0  0  0  0  0  0  0  0  0  0  0
  -16.2350  -42.1796   -8.9515 O   0  0  0  0  0  0  0  0  0  0  0  0
  -18.1294  -38.5027   -8.9935 C   0  0  2  0  0  0  0  0  0  0  0  0
  -19.3172  -37.8903   -9.4146 O   0  0  0  0  0  0  0  0  0  0  0  0
  -17.3364  -39.0444  -10.1605 C   0  0  0  0  0  0  0  0  0  0  0  0
  -16.5506  -38.0041  -10.7203 N   0  0  0  0  0  0  0  0  0  0  0  0
  -15.2154  -37.8766  -10.2643 C   0  0  0  0  0  0  0  0  0  0  0  0
  -14.1768  -38.4856  -11.1183 C   0  0  0  0  0  0  0  0  0  0  0  0
  -14.3390  -39.7511  -11.6274 C   0  0  0  0  0  0  0  0  0  0  0  0
  -13.3611  -40.3004  -12.4146 C   0  0  0  0  0  0  0  0  0  0  0  0
  -12.2206  -39.6059  -12.7039 C   0  0  0  0  0  0  0  0  0  0  0  0
  -12.0583  -38.3212  -12.1857 C   0  0  0  0  0  0  0  0  0  0  0  0
  -13.0342  -37.7646  -11.3961 C   0  0  0  0  0  0  0  0  0  0  0  0
  -10.8176  -37.5640  -12.4945 C   0  0  0  0  0  0  0  0  0  0  0  0
   -9.9662  -37.3985  -11.2334 C   0  0  0  0  0  0  0  0  0  0  0  0
   -9.9561  -38.2902  -13.5056 C   0  0  0  0  0  0  0  0  0  0  0  0
  -20.9786  -40.3366   -5.8621 C   0  0  0  0  0  0  0  0  0  0  0  0
  -19.1604  -45.3218   -6.7829 N   0  0  0  0  0  0  0  0  0  0  0  0
  1  2  1  0
  2  3  1  0
  3  4  2  0
  4  5  1  0
  5  6  2  0
  6  7  1  0
  7  8  1  0
  8  9  1  0
  9 10  1  0
 10 11  1  0
 11 12  1  0
 12 13  1  0
 13 14  1  0
 14 15  2  0
 15 16  1  0
 16 17  2  0
 17 18  1  0
 19 18  1  1
 19 20  1  0
 20 21  1  0
 21 22  2  0
 19 23  1  0
 23 24  1  6
 23 25  1  0
 25 26  1  0
 26 27  1  0
 27 28  1  0
 28 29  2  0
 29 30  1  0
 30 31  2  0
 31 32  1  0
 32 33  2  0
 32 34  1  0
 34 35  1  0
 34 36  1  0
 17 37  1  0
  7 38  2  0
 21  5  1  0
 33 28  1  0
 37 13  2  0
 38  3  1  0
M  END
$$$$
