
     RDKit          3D

 38 41  0  0  0  0  0  0  0  0999 V2000
  -22.9035  -41.0658  -13.8021 C   0  0  0  0  0  0  0  0  0  0  0  0
  -21.6349  -41.3333  -13.2036 O   0  0  0  0  0  0  0  0  0  0  0  0
  -21.4703  -40.8905  -11.8935 C   0  0  0  0  0  0  0  0  0  0  0  0
  -20.2747  -40.3685  -11.4710 C   0  0  0  0  0  0  0  0  0  0  0  0
  -20.0378  -39.8967  -10.1497 C   0  0  0  0  0  0  0  0  0  0  0  0
  -21.0699  -39.9624   -9.2409 C   0  0  0  0  0  0  0  0  0  0  0  0
  -22.2632  -40.4904   -9.6638 C   0  0  0  0  0  0  0  0  0  0  0  0
  -23.4933  -40.7859   -8.9674 N   0  0  0  0  0  0  0  0  0  0  0  0
  -23.6932  -41.6049   -7.7785 C   0  0  0  0  0  0  0  0  0  0  0  0
  -24.2766  -40.9133   -6.6173 C   0  0  0  0  0  0  0  0  0  0  0  0
  -23.4757  -40.6549   -5.4105 C   0  0  0  0  0  0  0  0  0  0  0  0
  -22.5739  -41.7600   -5.0149 C   0  0  0  0  0  0  0  0  0  0  0  0
  -21.1197  -41.4225   -5.0173 C   0  0  0  0  0  0  0  0  0  0  0  0
  -20.6836  -41.1100   -3.7079 C   0  0  0  0  0  0  0  0  0  0  0  0
  -19.4209  -40.6880   -3.3985 C   0  0  0  0  0  0  0  0  0  0  0  0
  -18.5851  -40.5848   -4.4834 C   0  0  0  0  0  0  0  0  0  0  0  0
  -18.9664  -40.8827   -5.8074 C   0  0  0  0  0  0  0  0  0  0  0  0
  -17.8189  -40.5742   -6.7266 C   0  0  0  0  0  0  0  0  0  0  0  0
  -17.9404  -39.3569   -7.5592 C   0  0  2  0  0  0  0  0  0  0  0  0
  -17.6927  -39.6251   -8.9665 N   0  0  0  0  0  0  0  0  0  0  0  0
  -18.6378  -39.4785  -10.0196 C   0  0  0  0  0  0  0  0  0  0  0  0
  -18.0809  -38.8430  -11.0342 O   0  0  0  0  0  0  0  0  0  0  0  0
  -16.8595  -38.3485   -7.1133 C   0  0  2  0  0  0  0  0  0  0  0  0
  -17.1359  -37.9618   -5.7953 O   0  0  0  0  0  0  0  0  0  0  0  0
  -16.8406  -37.1631   -8.0507 C   0  0  0  0  0  0  0  0  0  0  0  0
  -15.8001  -37.3297   -9.0007 N   0  0  0  0  0  0  0  0  0  0  0  0
  -15.5396  -38.6441   -9.4603 C   0  0  0  0  0  0  0  0  0  0  0  0
  -14.5539  -38.7667  -10.5523 C   0  0  0  0  0  0  0  0  0  0  0  0
  -14.2554  -39.9929  -11.0947 C   0  0  0  0  0  0  0  0  0  0  0  0
  -13.3341  -40.0860  -12.1049 C   0  0  0  0  0  0  0  0  0  0  0  0
  -12.7041  -38.9728  -12.5850 C   0  0  0  0  0  0  0  0  0  0  0  0
  -13.0091  -37.7289  -12.0324 C   0  0  0  0  0  0  0  0  0  0  0  0
  -13.9312  -37.6282  -11.0199 C   0  0  0  0  0  0  0  0  0  0  0  0
  -12.3233  -36.5160  -12.5488 C   0  0  0  0  0  0  0  0  0  0  0  0
  -12.1977  -35.4637  -11.4445 C   0  0  0  0  0  0  0  0  0  0  0  0
  -10.9161  -36.8245  -13.0141 C   0  0  0  0  0  0  0  0  0  0  0  0
  -20.2413  -41.3063   -6.0636 C   0  0  0  0  0  0  0  0  0  0  0  0
  -22.4130  -40.9321  -10.9777 N   0  0  0  0  0  0  0  0  0  0  0  0
  1  2  1  0
  2  3  1  0
  3  4  2  0
  4  5  1  0
  5  6  2  0
  6  7  1  0
  7  8  1  0
  8  9  1  0
  9 10  1  0
 10 11  1  0
 11 12  1  0
 12 13  1  0
 13 14  1  0
 14 15  2  0
 15 16  1  0
 16 17  2  0
 17 18  1  0
 19 18  1  1
 19 20  1  0
 20 21  1  0
 21 22  2  0
 19 23  1  0
 23 24  1  1
 23 25  1  0
 25 26  1  0
 26 27  1  0
 27 28  1  0
 28 29  2  0
 29 30  1  0
 30 31  2  0
 31 32  1  0
 32 33  2  0
 32 34  1  0
 34 35  1  0
 34 36  1  0
 17 37  1  0
  7 38  2  0
 21  5  1  0
 33 28  1  0
 37 13  2  0
 38  3  1  0
M  END
$$$$
