
     RDKit          3D

 42 45  0  0  0  0  0  0  0  0999 V2000
  -11.4604  -37.7134  -18.3534 C   0  0  0  0  0  0  0  0  0  0  0  0
  -11.6786  -38.3965  -16.9997 C   0  0  0  0  0  0  0  0  0  0  0  0
  -11.9644  -37.3247  -15.9924 C   0  0  0  0  0  0  0  0  0  0  0  0
  -13.2274  -37.4223  -15.3324 N   0  0  0  0  0  0  0  0  0  0  0  0
  -13.3707  -37.1624  -13.9628 C   0  0  0  0  0  0  0  0  0  0  0  0
  -13.0502  -35.9391  -13.4359 C   0  0  0  0  0  0  0  0  0  0  0  0
  -13.2106  -35.6787  -12.0954 C   0  0  0  0  0  0  0  0  0  0  0  0
  -12.8512  -34.3743  -11.4887 C   0  0  0  0  0  0  0  0  0  0  0  0
  -11.5160  -34.0365  -11.6622 O   0  0  0  0  0  0  0  0  0  0  0  0
  -11.2335  -34.2040  -13.0098 C   0  0  0  0  0  0  0  0  0  0  0  0
  -13.7032  -36.6632  -11.2588 C   0  0  0  0  0  0  0  0  0  0  0  0
  -14.0306  -37.8911  -11.7510 C   0  0  0  0  0  0  0  0  0  0  0  0
  -13.8683  -38.1449  -13.0867 C   0  0  0  0  0  0  0  0  0  0  0  0
  -14.5567  -38.9426  -10.8744 C   0  0  0  0  0  0  0  0  0  0  0  0
  -14.9592  -40.0327  -11.4167 O   0  0  0  0  0  0  0  0  0  0  0  0
  -14.6590  -38.8509   -9.4796 N   0  0  0  0  0  0  0  0  0  0  0  0
  -14.9312  -39.9160   -8.5380 C   0  0  1  0  0  0  0  0  0  0  0  0
  -13.6622  -40.2658   -7.8709 C   0  0  0  0  0  0  0  0  0  0  0  0
  -12.5976  -40.8425   -8.6820 C   0  0  0  0  0  0  0  0  0  0  0  0
  -11.5108  -40.0886   -9.0589 C   0  0  0  0  0  0  0  0  0  0  0  0
  -10.4761  -40.6213   -9.8490 C   0  0  0  0  0  0  0  0  0  0  0  0
  -10.5325  -41.9281  -10.2688 C   0  0  0  0  0  0  0  0  0  0  0  0
  -11.6186  -42.6923   -9.8958 C   0  0  0  0  0  0  0  0  0  0  0  0
  -12.6412  -42.1492   -9.1078 C   0  0  0  0  0  0  0  0  0  0  0  0
   -9.4035  -39.8252  -10.2025 O   0  0  0  0  0  0  0  0  0  0  0  0
   -9.1637  -38.6098   -9.5509 C   0  0  0  0  0  0  0  0  0  0  0  0
  -16.1002  -39.6469   -7.6146 C   0  0  2  0  0  0  0  0  0  0  0  0
  -16.2984  -40.8019   -6.8468 O   0  0  0  0  0  0  0  0  0  0  0  0
  -17.3139  -39.4771   -8.4846 C   0  0  0  0  0  0  0  0  0  0  0  0
  -18.5245  -39.1751   -7.7887 N   0  0  0  0  0  0  0  0  0  0  0  0
  -19.7090  -39.4061   -8.6300 C   0  0  0  0  0  0  0  0  0  0  0  0
  -19.4193  -39.9728  -10.0204 C   0  0  0  0  0  0  0  0  0  0  0  0
  -19.8877  -38.5657   -9.8496 C   0  0  0  0  0  0  0  0  0  0  0  0
  -20.9330  -39.8802   -7.9469 C   0  0  0  0  0  0  0  0  0  0  0  0
  -20.8814  -40.4359   -6.6889 C   0  0  0  0  0  0  0  0  0  0  0  0
  -22.0149  -40.8802   -6.0350 C   0  0  0  0  0  0  0  0  0  0  0  0
  -23.2489  -40.7780   -6.6346 C   0  0  0  0  0  0  0  0  0  0  0  0
  -23.3309  -40.2262   -7.8898 C   0  0  0  0  0  0  0  0  0  0  0  0
  -22.1671  -39.7802   -8.5396 C   0  0  0  0  0  0  0  0  0  0  0  0
  -21.9404  -41.4892   -4.6719 C   0  0  0  0  0  0  0  0  0  0  0  0
  -23.1741  -42.3094   -4.4083 C   0  0  0  0  0  0  0  0  0  0  0  0
  -21.8885  -40.3791   -3.6172 C   0  0  0  0  0  0  0  0  0  0  0  0
  1  2  1  0
  2  3  1  0
  3  4  1  0
  4  5  1  0
  5  6  2  0
  6  7  1  0
  7  8  1  0
  8  9  1  0
  9 10  1  0
  7 11  2  0
 11 12  1  0
 12 13  2  0
 12 14  1  0
 14 15  2  0
 14 16  1  0
 16 17  1  0
 17 18  1  1
 18 19  1  0
 19 20  2  0
 20 21  1  0
 21 22  2  0
 22 23  1  0
 23 24  2  0
 21 25  1  0
 25 26  1  0
 17 27  1  0
 27 28  1  1
 27 29  1  0
 29 30  1  0
 30 31  1  0
 31 32  1  0
 32 33  1  0
 31 34  1  0
 34 35  2  0
 35 36  1  0
 36 37  2  0
 37 38  1  0
 38 39  2  0
 36 40  1  0
 40 41  1  0
 40 42  1  0
 13  5  1  0
 24 19  1  0
 33 31  1  0
 39 34  1  0
M  END
$$$$
