
     RDKit          3D

 42 45  0  0  0  0  0  0  0  0999 V2000
  -22.5620  -45.4858   -5.0206 C   0  0  0  0  0  0  0  0  0  0  0  0
  -23.1773  -45.6104   -6.4180 C   0  0  0  0  0  0  0  0  0  0  0  0
  -22.8176  -44.3734   -7.1832 C   0  0  0  0  0  0  0  0  0  0  0  0
  -22.1302  -44.5913   -8.4162 N   0  0  0  0  0  0  0  0  0  0  0  0
  -20.7722  -44.2830   -8.5731 C   0  0  0  0  0  0  0  0  0  0  0  0
  -19.8448  -45.2640   -8.8066 C   0  0  0  0  0  0  0  0  0  0  0  0
  -18.5157  -44.9583   -8.9807 C   0  0  0  0  0  0  0  0  0  0  0  0
  -17.4829  -45.9971   -9.2111 C   0  0  0  0  0  0  0  0  0  0  0  0
  -16.6171  -46.1590   -8.1382 O   0  0  0  0  0  0  0  0  0  0  0  0
  -17.2129  -47.0696   -7.2782 C   0  0  0  0  0  0  0  0  0  0  0  0
  -18.1005  -43.6408   -8.9205 C   0  0  0  0  0  0  0  0  0  0  0  0
  -18.9975  -42.6412   -8.6888 C   0  0  0  0  0  0  0  0  0  0  0  0
  -20.3198  -42.9517   -8.5156 C   0  0  0  0  0  0  0  0  0  0  0  0
  -18.5699  -41.2398   -8.6257 C   0  0  0  0  0  0  0  0  0  0  0  0
  -18.4769  -40.5888   -9.7265 O   0  0  0  0  0  0  0  0  0  0  0  0
  -18.2491  -40.5487   -7.4493 N   0  0  0  0  0  0  0  0  0  0  0  0
  -17.8702  -39.1584   -7.3124 C   0  0  1  0  0  0  0  0  0  0  0  0
  -18.8359  -38.5136   -6.4017 C   0  0  0  0  0  0  0  0  0  0  0  0
  -20.2549  -38.6303   -6.7129 C   0  0  0  0  0  0  0  0  0  0  0  0
  -21.1143  -39.2758   -5.8549 C   0  0  0  0  0  0  0  0  0  0  0  0
  -22.4856  -39.4086   -6.1388 C   0  0  0  0  0  0  0  0  0  0  0  0
  -23.0025  -38.8883   -7.3004 C   0  0  0  0  0  0  0  0  0  0  0  0
  -22.1483  -38.2389   -8.1673 C   0  0  0  0  0  0  0  0  0  0  0  0
  -20.7851  -38.1131   -7.8714 C   0  0  0  0  0  0  0  0  0  0  0  0
  -23.3106  -40.0653   -5.2459 O   0  0  0  0  0  0  0  0  0  0  0  0
  -22.7787  -40.8817   -4.2411 C   0  0  0  0  0  0  0  0  0  0  0  0
  -16.4107  -38.9413   -6.9743 C   0  0  2  0  0  0  0  0  0  0  0  0
  -16.2235  -37.5633   -6.8041 O   0  0  0  0  0  0  0  0  0  0  0  0
  -15.6167  -39.3525   -8.1823 C   0  0  0  0  0  0  0  0  0  0  0  0
  -14.6700  -38.3881   -8.6459 N   0  0  0  0  0  0  0  0  0  0  0  0
  -14.0277  -38.8136   -9.8991 C   0  0  0  0  0  0  0  0  0  0  0  0
  -14.6867  -40.0039  -10.5968 C   0  0  0  0  0  0  0  0  0  0  0  0
  -13.3559  -40.1451   -9.9355 C   0  0  0  0  0  0  0  0  0  0  0  0
  -13.4694  -37.7477  -10.7605 C   0  0  0  0  0  0  0  0  0  0  0  0
  -13.1623  -37.9820  -12.0815 C   0  0  0  0  0  0  0  0  0  0  0  0
  -12.6439  -36.9973  -12.9010 C   0  0  0  0  0  0  0  0  0  0  0  0
  -12.4157  -35.7326  -12.4099 C   0  0  0  0  0  0  0  0  0  0  0  0
  -12.7141  -35.4695  -11.0952 C   0  0  0  0  0  0  0  0  0  0  0  0
  -13.2404  -36.4838  -10.2766 C   0  0  0  0  0  0  0  0  0  0  0  0
  -12.3078  -37.2706  -14.3316 C   0  0  0  0  0  0  0  0  0  0  0  0
  -11.1365  -36.4257  -14.7539 C   0  0  0  0  0  0  0  0  0  0  0  0
  -13.4973  -36.8896  -15.2190 C   0  0  0  0  0  0  0  0  0  0  0  0
  1  2  1  0
  2  3  1  0
  3  4  1  0
  4  5  1  0
  5  6  2  0
  6  7  1  0
  7  8  1  0
  8  9  1  0
  9 10  1  0
  7 11  2  0
 11 12  1  0
 12 13  2  0
 12 14  1  0
 14 15  2  0
 14 16  1  0
 16 17  1  0
 17 18  1  1
 18 19  1  0
 19 20  2  0
 20 21  1  0
 21 22  2  0
 22 23  1  0
 23 24  2  0
 21 25  1  0
 25 26  1  0
 17 27  1  0
 27 28  1  6
 27 29  1  0
 29 30  1  0
 30 31  1  0
 31 32  1  0
 32 33  1  0
 31 34  1  0
 34 35  2  0
 35 36  1  0
 36 37  2  0
 37 38  1  0
 38 39  2  0
 36 40  1  0
 40 41  1  0
 40 42  1  0
 13  5  1  0
 24 19  1  0
 33 31  1  0
 39 34  1  0
M  END
$$$$
