
     RDKit          3D

 42 45  0  0  0  0  0  0  0  0999 V2000
  -24.9711  -44.1620  -11.2978 C   0  0  0  0  0  0  0  0  0  0  0  0
  -25.1979  -43.7146   -9.8503 C   0  0  0  0  0  0  0  0  0  0  0  0
  -24.2003  -44.4321   -8.9929 C   0  0  0  0  0  0  0  0  0  0  0  0
  -22.8371  -44.0522   -9.1867 N   0  0  0  0  0  0  0  0  0  0  0  0
  -22.2465  -43.0108   -8.4584 C   0  0  0  0  0  0  0  0  0  0  0  0
  -22.8446  -42.5030   -7.3353 C   0  0  0  0  0  0  0  0  0  0  0  0
  -22.2542  -41.4951   -6.6100 C   0  0  0  0  0  0  0  0  0  0  0  0
  -22.8853  -40.9066   -5.4041 C   0  0  0  0  0  0  0  0  0  0  0  0
  -22.0350  -40.8555   -4.3080 O   0  0  0  0  0  0  0  0  0  0  0  0
  -22.1669  -42.0658   -3.6435 C   0  0  0  0  0  0  0  0  0  0  0  0
  -21.0364  -40.9804   -7.0147 C   0  0  0  0  0  0  0  0  0  0  0  0
  -20.4155  -41.4627   -8.1278 C   0  0  0  0  0  0  0  0  0  0  0  0
  -21.0083  -42.4661   -8.8466 C   0  0  0  0  0  0  0  0  0  0  0  0
  -19.1223  -40.9272   -8.5656 C   0  0  0  0  0  0  0  0  0  0  0  0
  -18.7913  -41.0829   -9.7946 O   0  0  0  0  0  0  0  0  0  0  0  0
  -18.2091  -40.2552   -7.7415 N   0  0  0  0  0  0  0  0  0  0  0  0
  -17.3194  -39.1718   -8.1018 C   0  0  1  0  0  0  0  0  0  0  0  0
  -18.0337  -37.9021   -7.8667 C   0  0  0  0  0  0  0  0  0  0  0  0
  -19.3162  -37.7041   -8.5300 C   0  0  0  0  0  0  0  0  0  0  0  0
  -20.4725  -37.5567   -7.7999 C   0  0  0  0  0  0  0  0  0  0  0  0
  -21.7225  -37.3737   -8.4185 C   0  0  0  0  0  0  0  0  0  0  0  0
  -21.8150  -37.3398   -9.7887 C   0  0  0  0  0  0  0  0  0  0  0  0
  -20.6608  -37.4866  -10.5296 C   0  0  0  0  0  0  0  0  0  0  0  0
  -19.4225  -37.6670   -9.9004 C   0  0  0  0  0  0  0  0  0  0  0  0
  -22.8571  -37.2296   -7.6431 O   0  0  0  0  0  0  0  0  0  0  0  0
  -24.0910  -37.7316   -8.0727 C   0  0  0  0  0  0  0  0  0  0  0  0
  -15.9403  -39.2674   -7.4850 C   0  0  2  0  0  0  0  0  0  0  0  0
  -15.1117  -38.3754   -8.1780 O   0  0  0  0  0  0  0  0  0  0  0  0
  -15.4325  -40.6544   -7.7634 C   0  0  0  0  0  0  0  0  0  0  0  0
  -14.0183  -40.8200   -7.6460 N   0  0  0  0  0  0  0  0  0  0  0  0
  -13.3487  -40.7296   -8.9528 C   0  0  0  0  0  0  0  0  0  0  0  0
  -14.0783  -39.8893  -10.0013 C   0  0  0  0  0  0  0  0  0  0  0  0
  -14.0001  -41.3745  -10.1298 C   0  0  0  0  0  0  0  0  0  0  0  0
  -11.8702  -40.6679   -8.9443 C   0  0  0  0  0  0  0  0  0  0  0  0
  -11.1726  -40.0716   -9.9699 C   0  0  0  0  0  0  0  0  0  0  0  0
   -9.7923  -40.0018   -9.9763 C   0  0  0  0  0  0  0  0  0  0  0  0
   -9.0641  -40.5368   -8.9389 C   0  0  0  0  0  0  0  0  0  0  0  0
   -9.7340  -41.1372   -7.9008 C   0  0  0  0  0  0  0  0  0  0  0  0
  -11.1382  -41.1991   -7.9118 C   0  0  0  0  0  0  0  0  0  0  0  0
   -9.0494  -39.3579  -11.1022 C   0  0  0  0  0  0  0  0  0  0  0  0
   -7.8080  -40.1480  -11.4161 C   0  0  0  0  0  0  0  0  0  0  0  0
   -8.6095  -37.9502  -10.6868 C   0  0  0  0  0  0  0  0  0  0  0  0
  1  2  1  0
  2  3  1  0
  3  4  1  0
  4  5  1  0
  5  6  2  0
  6  7  1  0
  7  8  1  0
  8  9  1  0
  9 10  1  0
  7 11  2  0
 11 12  1  0
 12 13  2  0
 12 14  1  0
 14 15  2  0
 14 16  1  0
 16 17  1  0
 17 18  1  1
 18 19  1  0
 19 20  2  0
 20 21  1  0
 21 22  2  0
 22 23  1  0
 23 24  2  0
 21 25  1  0
 25 26  1  0
 17 27  1  0
 27 28  1  6
 27 29  1  0
 29 30  1  0
 30 31  1  0
 31 32  1  0
 32 33  1  0
 31 34  1  0
 34 35  2  0
 35 36  1  0
 36 37  2  0
 37 38  1  0
 38 39  2  0
 36 40  1  0
 40 41  1  0
 40 42  1  0
 13  5  1  0
 24 19  1  0
 33 31  1  0
 39 34  1  0
M  END
$$$$
