
     RDKit          3D

 42 45  0  0  0  0  0  0  0  0999 V2000
  -24.2557  -39.7467   -9.5384 C   0  0  0  0  0  0  0  0  0  0  0  0
  -23.4839  -40.7945  -10.3467 C   0  0  0  0  0  0  0  0  0  0  0  0
  -23.4654  -42.0608   -9.5459 C   0  0  0  0  0  0  0  0  0  0  0  0
  -22.7476  -43.1480  -10.1315 N   0  0  0  0  0  0  0  0  0  0  0  0
  -21.4318  -43.4545   -9.7591 C   0  0  0  0  0  0  0  0  0  0  0  0
  -21.0324  -44.7513   -9.5697 C   0  0  0  0  0  0  0  0  0  0  0  0
  -19.7360  -45.0521   -9.2244 C   0  0  0  0  0  0  0  0  0  0  0  0
  -19.2765  -46.4421   -8.9886 C   0  0  0  0  0  0  0  0  0  0  0  0
  -18.7692  -46.6444   -7.7124 O   0  0  0  0  0  0  0  0  0  0  0  0
  -19.4991  -47.6825   -7.1524 C   0  0  0  0  0  0  0  0  0  0  0  0
  -18.8142  -44.0341   -9.0637 C   0  0  0  0  0  0  0  0  0  0  0  0
  -19.1795  -42.7335   -9.2436 C   0  0  0  0  0  0  0  0  0  0  0  0
  -20.4721  -42.4398   -9.5870 C   0  0  0  0  0  0  0  0  0  0  0  0
  -18.2105  -41.6452   -9.0790 C   0  0  0  0  0  0  0  0  0  0  0  0
  -17.7874  -41.0513  -10.1339 O   0  0  0  0  0  0  0  0  0  0  0  0
  -17.7023  -41.1990   -7.8513 N   0  0  0  0  0  0  0  0  0  0  0  0
  -17.1224  -39.9081   -7.5475 C   0  0  1  0  0  0  0  0  0  0  0  0
  -18.1099  -39.1413   -6.7637 C   0  0  0  0  0  0  0  0  0  0  0  0
  -19.4855  -39.1033   -7.2433 C   0  0  0  0  0  0  0  0  0  0  0  0
  -19.7679  -38.7863   -8.5515 C   0  0  0  0  0  0  0  0  0  0  0  0
  -21.0881  -38.7346   -9.0342 C   0  0  0  0  0  0  0  0  0  0  0  0
  -22.1405  -39.0028   -8.1930 C   0  0  0  0  0  0  0  0  0  0  0  0
  -21.8674  -39.3218   -6.8791 C   0  0  0  0  0  0  0  0  0  0  0  0
  -20.5478  -39.3707   -6.4121 C   0  0  0  0  0  0  0  0  0  0  0  0
  -21.3227  -38.4119  -10.3571 O   0  0  0  0  0  0  0  0  0  0  0  0
  -20.3517  -37.7531  -11.1203 C   0  0  0  0  0  0  0  0  0  0  0  0
  -15.7306  -39.9746   -6.9558 C   0  0  2  0  0  0  0  0  0  0  0  0
  -15.2339  -38.6653   -6.9124 O   0  0  0  0  0  0  0  0  0  0  0  0
  -14.8789  -40.7417   -7.9280 C   0  0  0  0  0  0  0  0  0  0  0  0
  -14.4844  -40.0179   -9.0949 N   0  0  0  0  0  0  0  0  0  0  0  0
  -13.0525  -40.1904   -9.3851 C   0  0  0  0  0  0  0  0  0  0  0  0
  -12.6196  -41.6234   -9.6968 C   0  0  0  0  0  0  0  0  0  0  0  0
  -12.2210  -40.9643   -8.4181 C   0  0  0  0  0  0  0  0  0  0  0  0
  -12.3859  -39.1030  -10.1354 C   0  0  0  0  0  0  0  0  0  0  0  0
  -13.1086  -38.0843  -10.7133 C   0  0  0  0  0  0  0  0  0  0  0  0
  -12.5021  -37.0591  -11.4141 C   0  0  0  0  0  0  0  0  0  0  0  0
  -11.1341  -37.0283  -11.5566 C   0  0  0  0  0  0  0  0  0  0  0  0
  -10.3870  -38.0315  -10.9890 C   0  0  0  0  0  0  0  0  0  0  0  0
  -11.0214  -39.0662  -10.2802 C   0  0  0  0  0  0  0  0  0  0  0  0
  -13.3025  -35.9646  -12.0431 C   0  0  0  0  0  0  0  0  0  0  0  0
  -13.8116  -36.4088  -13.3876 C   0  0  0  0  0  0  0  0  0  0  0  0
  -12.4084  -34.7407  -12.2680 C   0  0  0  0  0  0  0  0  0  0  0  0
  1  2  1  0
  2  3  1  0
  3  4  1  0
  4  5  1  0
  5  6  2  0
  6  7  1  0
  7  8  1  0
  8  9  1  0
  9 10  1  0
  7 11  2  0
 11 12  1  0
 12 13  2  0
 12 14  1  0
 14 15  2  0
 14 16  1  0
 16 17  1  0
 17 18  1  1
 18 19  1  0
 19 20  2  0
 20 21  1  0
 21 22  2  0
 22 23  1  0
 23 24  2  0
 21 25  1  0
 25 26  1  0
 17 27  1  0
 27 28  1  6
 27 29  1  0
 29 30  1  0
 30 31  1  0
 31 32  1  0
 32 33  1  0
 31 34  1  0
 34 35  2  0
 35 36  1  0
 36 37  2  0
 37 38  1  0
 38 39  2  0
 36 40  1  0
 40 41  1  0
 40 42  1  0
 13  5  1  0
 24 19  1  0
 33 31  1  0
 39 34  1  0
M  END
$$$$
