
     RDKit          3D

 42 45  0  0  0  0  0  0  0  0999 V2000
  -22.1618  -38.8331   -9.0514 C   0  0  0  0  0  0  0  0  0  0  0  0
  -22.1297  -37.9722  -10.3182 C   0  0  0  0  0  0  0  0  0  0  0  0
  -21.8419  -36.5623   -9.9004 C   0  0  0  0  0  0  0  0  0  0  0  0
  -21.1270  -35.7728  -10.8521 N   0  0  0  0  0  0  0  0  0  0  0  0
  -19.7668  -35.9815  -11.1168 C   0  0  0  0  0  0  0  0  0  0  0  0
  -19.0385  -35.0755  -11.8419 C   0  0  0  0  0  0  0  0  0  0  0  0
  -17.6992  -35.2711  -12.0836 C   0  0  0  0  0  0  0  0  0  0  0  0
  -16.8874  -34.3232  -12.8843 C   0  0  0  0  0  0  0  0  0  0  0  0
  -16.8694  -33.0373  -12.3617 O   0  0  0  0  0  0  0  0  0  0  0  0
  -15.7100  -32.4338  -12.8257 C   0  0  0  0  0  0  0  0  0  0  0  0
  -17.0698  -36.3988  -11.5896 C   0  0  0  0  0  0  0  0  0  0  0  0
  -17.7658  -37.3199  -10.8654 C   0  0  0  0  0  0  0  0  0  0  0  0
  -19.0995  -37.1202  -10.6283 C   0  0  0  0  0  0  0  0  0  0  0  0
  -17.1090  -38.5185  -10.3336 C   0  0  0  0  0  0  0  0  0  0  0  0
  -17.7171  -39.6411  -10.4532 O   0  0  0  0  0  0  0  0  0  0  0  0
  -15.8604  -38.5364   -9.6970 N   0  0  0  0  0  0  0  0  0  0  0  0
  -15.3248  -39.5581   -8.8228 C   0  0  1  0  0  0  0  0  0  0  0  0
  -13.8684  -39.6297   -9.0492 C   0  0  0  0  0  0  0  0  0  0  0  0
  -13.3855  -39.5906  -10.4237 C   0  0  0  0  0  0  0  0  0  0  0  0
  -12.8892  -38.4273  -10.9640 C   0  0  0  0  0  0  0  0  0  0  0  0
  -12.4263  -38.3638  -12.2908 C   0  0  0  0  0  0  0  0  0  0  0  0
  -12.4630  -39.4820  -13.0879 C   0  0  0  0  0  0  0  0  0  0  0  0
  -12.9590  -40.6535  -12.5548 C   0  0  0  0  0  0  0  0  0  0  0  0
  -13.4156  -40.7028  -11.2316 C   0  0  0  0  0  0  0  0  0  0  0  0
  -11.9357  -37.1724  -12.7899 O   0  0  0  0  0  0  0  0  0  0  0  0
  -11.6509  -36.0984  -11.9387 C   0  0  0  0  0  0  0  0  0  0  0  0
  -15.7539  -39.4279   -7.3769 C   0  0  2  0  0  0  0  0  0  0  0  0
  -15.2424  -40.5363   -6.6896 O   0  0  0  0  0  0  0  0  0  0  0  0
  -17.2523  -39.5426   -7.3540 C   0  0  0  0  0  0  0  0  0  0  0  0
  -17.7875  -40.3144   -6.2774 N   0  0  0  0  0  0  0  0  0  0  0  0
  -19.1540  -39.8935   -5.9316 C   0  0  0  0  0  0  0  0  0  0  0  0
  -19.9738  -39.3271   -7.0915 C   0  0  0  0  0  0  0  0  0  0  0  0
  -19.4859  -38.4404   -5.9943 C   0  0  0  0  0  0  0  0  0  0  0  0
  -19.8731  -40.7115   -4.9299 C   0  0  0  0  0  0  0  0  0  0  0  0
  -19.2609  -41.1213   -3.7674 C   0  0  0  0  0  0  0  0  0  0  0  0
  -19.9186  -41.8822   -2.8195 C   0  0  0  0  0  0  0  0  0  0  0  0
  -21.2273  -42.2585   -3.0157 C   0  0  0  0  0  0  0  0  0  0  0  0
  -21.8642  -41.8626   -4.1665 C   0  0  0  0  0  0  0  0  0  0  0  0
  -21.1790  -41.0893   -5.1194 C   0  0  0  0  0  0  0  0  0  0  0  0
  -19.2364  -42.3263   -1.5659 C   0  0  0  0  0  0  0  0  0  0  0  0
  -20.0560  -41.9302   -0.3678 C   0  0  0  0  0  0  0  0  0  0  0  0
  -17.8771  -41.6291   -1.4480 C   0  0  0  0  0  0  0  0  0  0  0  0
  1  2  1  0
  2  3  1  0
  3  4  1  0
  4  5  1  0
  5  6  2  0
  6  7  1  0
  7  8  1  0
  8  9  1  0
  9 10  1  0
  7 11  2  0
 11 12  1  0
 12 13  2  0
 12 14  1  0
 14 15  2  0
 14 16  1  0
 16 17  1  0
 17 18  1  1
 18 19  1  0
 19 20  2  0
 20 21  1  0
 21 22  2  0
 22 23  1  0
 23 24  2  0
 21 25  1  0
 25 26  1  0
 17 27  1  0
 27 28  1  1
 27 29  1  0
 29 30  1  0
 30 31  1  0
 31 32  1  0
 32 33  1  0
 31 34  1  0
 34 35  2  0
 35 36  1  0
 36 37  2  0
 37 38  1  0
 38 39  2  0
 36 40  1  0
 40 41  1  0
 40 42  1  0
 13  5  1  0
 24 19  1  0
 33 31  1  0
 39 34  1  0
M  END
$$$$
