
     RDKit          3D

 42 45  0  0  0  0  0  0  0  0999 V2000
  -18.7113  -45.1976   -9.1859 C   0  0  0  0  0  0  0  0  0  0  0  0
  -18.5686  -45.9087  -10.5353 C   0  0  0  0  0  0  0  0  0  0  0  0
  -18.1676  -44.8805  -11.5488 C   0  0  0  0  0  0  0  0  0  0  0  0
  -19.2049  -43.9921  -11.9670 N   0  0  0  0  0  0  0  0  0  0  0  0
  -19.0237  -42.6029  -11.9994 C   0  0  0  0  0  0  0  0  0  0  0  0
  -19.4616  -41.8553  -13.0606 C   0  0  0  0  0  0  0  0  0  0  0  0
  -19.3016  -40.4899  -13.0819 C   0  0  0  0  0  0  0  0  0  0  0  0
  -19.7422  -39.6540  -14.2247 C   0  0  0  0  0  0  0  0  0  0  0  0
  -18.8656  -39.6877  -15.3006 O   0  0  0  0  0  0  0  0  0  0  0  0
  -18.5434  -38.3710  -15.5946 C   0  0  0  0  0  0  0  0  0  0  0  0
  -18.6892  -39.8536  -12.0180 C   0  0  0  0  0  0  0  0  0  0  0  0
  -18.2413  -40.5682  -10.9475 C   0  0  0  0  0  0  0  0  0  0  0  0
  -18.4029  -41.9278  -10.9320 C   0  0  0  0  0  0  0  0  0  0  0  0
  -17.5929  -39.9045   -9.8119 C   0  0  0  0  0  0  0  0  0  0  0  0
  -17.5632  -38.6226   -9.8008 O   0  0  0  0  0  0  0  0  0  0  0  0
  -16.9951  -40.5636   -8.7289 N   0  0  0  0  0  0  0  0  0  0  0  0
  -16.7001  -40.0276   -7.4172 C   0  0  1  0  0  0  0  0  0  0  0  0
  -17.7356  -40.5149   -6.4855 C   0  0  0  0  0  0  0  0  0  0  0  0
  -19.1326  -40.2952   -6.8375 C   0  0  0  0  0  0  0  0  0  0  0  0
  -19.6908  -39.0407   -6.7590 C   0  0  0  0  0  0  0  0  0  0  0  0
  -21.0391  -38.8066   -7.0847 C   0  0  0  0  0  0  0  0  0  0  0  0
  -21.8397  -39.8454   -7.4935 C   0  0  0  0  0  0  0  0  0  0  0  0
  -21.2888  -41.1073   -7.5755 C   0  0  0  0  0  0  0  0  0  0  0  0
  -19.9444  -41.3258   -7.2491 C   0  0  0  0  0  0  0  0  0  0  0  0
  -21.5556  -37.5285   -6.9909 O   0  0  0  0  0  0  0  0  0  0  0  0
  -22.9204  -37.2875   -7.1872 C   0  0  0  0  0  0  0  0  0  0  0  0
  -15.2695  -40.2344   -6.9674 C   0  0  2  0  0  0  0  0  0  0  0  0
  -15.2292  -39.9994   -5.5869 O   0  0  0  0  0  0  0  0  0  0  0  0
  -14.4457  -39.1633   -7.6255 C   0  0  0  0  0  0  0  0  0  0  0  0
  -13.9975  -39.4660   -8.9478 N   0  0  0  0  0  0  0  0  0  0  0  0
  -13.8582  -38.2522   -9.7673 C   0  0  0  0  0  0  0  0  0  0  0  0
  -13.5441  -36.9740   -8.9891 C   0  0  0  0  0  0  0  0  0  0  0  0
  -14.8812  -37.1762   -9.6210 C   0  0  0  0  0  0  0  0  0  0  0  0
  -13.2241  -38.4100  -11.0949 C   0  0  0  0  0  0  0  0  0  0  0  0
  -13.0235  -37.3312  -11.9255 C   0  0  0  0  0  0  0  0  0  0  0  0
  -12.4295  -37.4600  -13.1667 C   0  0  0  0  0  0  0  0  0  0  0  0
  -12.0153  -38.6930  -13.6149 C   0  0  0  0  0  0  0  0  0  0  0  0
  -12.2016  -39.7877  -12.8064 C   0  0  0  0  0  0  0  0  0  0  0  0
  -12.8079  -39.6373  -11.5473 C   0  0  0  0  0  0  0  0  0  0  0  0
  -12.2266  -36.2791  -14.0603 C   0  0  0  0  0  0  0  0  0  0  0  0
  -12.6759  -35.0241  -13.3622 C   0  0  0  0  0  0  0  0  0  0  0  0
  -13.0816  -36.4385  -15.3218 C   0  0  0  0  0  0  0  0  0  0  0  0
  1  2  1  0
  2  3  1  0
  3  4  1  0
  4  5  1  0
  5  6  2  0
  6  7  1  0
  7  8  1  0
  8  9  1  0
  9 10  1  0
  7 11  2  0
 11 12  1  0
 12 13  2  0
 12 14  1  0
 14 15  2  0
 14 16  1  0
 16 17  1  0
 17 18  1  1
 18 19  1  0
 19 20  2  0
 20 21  1  0
 21 22  2  0
 22 23  1  0
 23 24  2  0
 21 25  1  0
 25 26  1  0
 17 27  1  0
 27 28  1  1
 27 29  1  0
 29 30  1  0
 30 31  1  0
 31 32  1  0
 32 33  1  0
 31 34  1  0
 34 35  2  0
 35 36  1  0
 36 37  2  0
 37 38  1  0
 38 39  2  0
 36 40  1  0
 40 41  1  0
 40 42  1  0
 13  5  1  0
 24 19  1  0
 33 31  1  0
 39 34  1  0
M  END
$$$$
