
     RDKit          3D

 42 45  0  0  0  0  0  0  0  0999 V2000
  -23.1218  -40.9726   -3.7806 C   0  0  0  0  0  0  0  0  0  0  0  0
  -23.0294  -42.1948   -4.6996 C   0  0  0  0  0  0  0  0  0  0  0  0
  -21.8846  -43.0352   -4.2217 C   0  0  0  0  0  0  0  0  0  0  0  0
  -21.6631  -44.2438   -4.9500 N   0  0  0  0  0  0  0  0  0  0  0  0
  -20.8692  -44.2796   -6.1042 C   0  0  0  0  0  0  0  0  0  0  0  0
  -20.8107  -45.4002   -6.8901 C   0  0  0  0  0  0  0  0  0  0  0  0
  -20.0474  -45.4273   -8.0334 C   0  0  0  0  0  0  0  0  0  0  0  0
  -19.9431  -46.6308   -8.8933 C   0  0  0  0  0  0  0  0  0  0  0  0
  -19.3446  -47.7102   -8.2578 O   0  0  0  0  0  0  0  0  0  0  0  0
  -18.3337  -48.1568   -9.0960 C   0  0  0  0  0  0  0  0  0  0  0  0
  -19.3239  -44.3084   -8.4026 C   0  0  0  0  0  0  0  0  0  0  0  0
  -19.3595  -43.1779   -7.6423 C   0  0  0  0  0  0  0  0  0  0  0  0
  -20.1209  -43.1569   -6.5045 C   0  0  0  0  0  0  0  0  0  0  0  0
  -18.5989  -41.9838   -8.0248 C   0  0  0  0  0  0  0  0  0  0  0  0
  -18.1481  -41.9158   -9.2234 O   0  0  0  0  0  0  0  0  0  0  0  0
  -18.3197  -40.9021   -7.1783 N   0  0  0  0  0  0  0  0  0  0  0  0
  -17.8339  -39.5894   -7.5469 C   0  0  1  0  0  0  0  0  0  0  0  0
  -18.7217  -38.5874   -6.9261 C   0  0  0  0  0  0  0  0  0  0  0  0
  -20.1605  -38.7508   -7.0903 C   0  0  0  0  0  0  0  0  0  0  0  0
  -20.9245  -39.3143   -6.0951 C   0  0  0  0  0  0  0  0  0  0  0  0
  -22.3131  -39.4904   -6.2351 C   0  0  0  0  0  0  0  0  0  0  0  0
  -22.9446  -39.0976   -7.3902 C   0  0  0  0  0  0  0  0  0  0  0  0
  -22.1868  -38.5313   -8.3940 C   0  0  0  0  0  0  0  0  0  0  0  0
  -20.8050  -38.3610   -8.2406 C   0  0  0  0  0  0  0  0  0  0  0  0
  -23.0393  -40.0610   -5.2074 O   0  0  0  0  0  0  0  0  0  0  0  0
  -24.4187  -40.2658   -5.3282 C   0  0  0  0  0  0  0  0  0  0  0  0
  -16.3531  -39.3842   -7.3092 C   0  0  2  0  0  0  0  0  0  0  0  0
  -16.1518  -38.0144   -7.0950 O   0  0  0  0  0  0  0  0  0  0  0  0
  -15.6516  -39.7422   -8.5893 C   0  0  0  0  0  0  0  0  0  0  0  0
  -14.2306  -39.5955   -8.5666 N   0  0  0  0  0  0  0  0  0  0  0  0
  -13.6574  -39.6302   -9.9210 C   0  0  0  0  0  0  0  0  0  0  0  0
  -12.4649  -40.5706  -10.0992 C   0  0  0  0  0  0  0  0  0  0  0  0
  -12.2818  -39.0894  -10.1231 C   0  0  0  0  0  0  0  0  0  0  0  0
  -14.6047  -39.5159  -11.0519 C   0  0  0  0  0  0  0  0  0  0  0  0
  -14.9310  -38.2927  -11.5919 C   0  0  0  0  0  0  0  0  0  0  0  0
  -15.8108  -38.1680  -12.6503 C   0  0  0  0  0  0  0  0  0  0  0  0
  -16.3960  -39.2835  -13.2034 C   0  0  0  0  0  0  0  0  0  0  0  0
  -16.0878  -40.5179  -12.6856 C   0  0  0  0  0  0  0  0  0  0  0  0
  -15.1911  -40.6251  -11.6086 C   0  0  0  0  0  0  0  0  0  0  0  0
  -16.1611  -36.8311  -13.2197 C   0  0  0  0  0  0  0  0  0  0  0  0
  -17.6144  -36.5318  -12.9698 C   0  0  0  0  0  0  0  0  0  0  0  0
  -15.9460  -36.8481  -14.7366 C   0  0  0  0  0  0  0  0  0  0  0  0
  1  2  1  0
  2  3  1  0
  3  4  1  0
  4  5  1  0
  5  6  2  0
  6  7  1  0
  7  8  1  0
  8  9  1  0
  9 10  1  0
  7 11  2  0
 11 12  1  0
 12 13  2  0
 12 14  1  0
 14 15  2  0
 14 16  1  0
 16 17  1  0
 17 18  1  1
 18 19  1  0
 19 20  2  0
 20 21  1  0
 21 22  2  0
 22 23  1  0
 23 24  2  0
 21 25  1  0
 25 26  1  0
 17 27  1  0
 27 28  1  6
 27 29  1  0
 29 30  1  0
 30 31  1  0
 31 32  1  0
 32 33  1  0
 31 34  1  0
 34 35  2  0
 35 36  1  0
 36 37  2  0
 37 38  1  0
 38 39  2  0
 36 40  1  0
 40 41  1  0
 40 42  1  0
 13  5  1  0
 24 19  1  0
 33 31  1  0
 39 34  1  0
M  END
$$$$
