
     RDKit          3D

 42 45  0  0  0  0  0  0  0  0999 V2000
  -20.9885  -47.1447   -4.8506 C   0  0  0  0  0  0  0  0  0  0  0  0
  -21.0670  -47.0274   -6.3760 C   0  0  0  0  0  0  0  0  0  0  0  0
  -21.6926  -45.7042   -6.6968 C   0  0  0  0  0  0  0  0  0  0  0  0
  -21.8502  -45.4197   -8.0877 N   0  0  0  0  0  0  0  0  0  0  0  0
  -20.8990  -44.6834   -8.8066 C   0  0  0  0  0  0  0  0  0  0  0  0
  -20.6143  -44.9783  -10.1139 C   0  0  0  0  0  0  0  0  0  0  0  0
  -19.6958  -44.2423  -10.8245 C   0  0  0  0  0  0  0  0  0  0  0  0
  -19.3468  -44.5492  -12.2326 C   0  0  0  0  0  0  0  0  0  0  0  0
  -18.1000  -45.1434  -12.3730 O   0  0  0  0  0  0  0  0  0  0  0  0
  -17.8752  -45.2830  -13.7345 C   0  0  0  0  0  0  0  0  0  0  0  0
  -19.0444  -43.1851  -10.2163 C   0  0  0  0  0  0  0  0  0  0  0  0
  -19.3040  -42.8662   -8.9169 C   0  0  0  0  0  0  0  0  0  0  0  0
  -20.2192  -43.6031   -8.2140 C   0  0  0  0  0  0  0  0  0  0  0  0
  -18.6218  -41.7455   -8.2615 C   0  0  0  0  0  0  0  0  0  0  0  0
  -18.6088  -41.7156   -6.9796 O   0  0  0  0  0  0  0  0  0  0  0  0
  -17.9795  -40.6934   -8.9286 N   0  0  0  0  0  0  0  0  0  0  0  0
  -17.6146  -39.3974   -8.3973 C   0  0  1  0  0  0  0  0  0  0  0  0
  -18.4305  -39.1563   -7.1916 C   0  0  0  0  0  0  0  0  0  0  0  0
  -19.8808  -39.2154   -7.3222 C   0  0  0  0  0  0  0  0  0  0  0  0
  -20.6688  -39.6065   -6.2650 C   0  0  0  0  0  0  0  0  0  0  0  0
  -22.0696  -39.6798   -6.3708 C   0  0  0  0  0  0  0  0  0  0  0  0
  -22.6892  -39.3580   -7.5539 C   0  0  0  0  0  0  0  0  0  0  0  0
  -21.9073  -38.9644   -8.6199 C   0  0  0  0  0  0  0  0  0  0  0  0
  -20.5135  -38.8949   -8.5002 C   0  0  0  0  0  0  0  0  0  0  0  0
  -22.8199  -40.0778   -5.2809 O   0  0  0  0  0  0  0  0  0  0  0  0
  -22.9944  -41.4344   -4.9840 C   0  0  0  0  0  0  0  0  0  0  0  0
  -16.1245  -39.1912   -8.2276 C   0  0  2  0  0  0  0  0  0  0  0  0
  -15.8097  -37.9477   -8.7909 O   0  0  0  0  0  0  0  0  0  0  0  0
  -15.4410  -40.2415   -9.0574 C   0  0  0  0  0  0  0  0  0  0  0  0
  -15.6626  -40.1446  -10.4655 N   0  0  0  0  0  0  0  0  0  0  0  0
  -14.7540  -39.1735  -11.0946 C   0  0  0  0  0  0  0  0  0  0  0  0
  -15.4034  -38.2451  -12.1214 C   0  0  0  0  0  0  0  0  0  0  0  0
  -14.4583  -39.3182  -12.5497 C   0  0  0  0  0  0  0  0  0  0  0  0
  -13.6911  -38.6000  -10.2396 C   0  0  0  0  0  0  0  0  0  0  0  0
  -12.7878  -39.4047   -9.5834 C   0  0  0  0  0  0  0  0  0  0  0  0
  -11.7869  -38.8859   -8.7842 C   0  0  0  0  0  0  0  0  0  0  0  0
  -11.6637  -37.5257   -8.6188 C   0  0  0  0  0  0  0  0  0  0  0  0
  -12.5507  -36.6979   -9.2629 C   0  0  0  0  0  0  0  0  0  0  0  0
  -13.5626  -37.2438  -10.0714 C   0  0  0  0  0  0  0  0  0  0  0  0
  -10.8189  -39.7744   -8.0716 C   0  0  0  0  0  0  0  0  0  0  0  0
   -9.9040  -38.9486   -7.2084 C   0  0  0  0  0  0  0  0  0  0  0  0
   -9.9493  -40.5104   -9.0962 C   0  0  0  0  0  0  0  0  0  0  0  0
  1  2  1  0
  2  3  1  0
  3  4  1  0
  4  5  1  0
  5  6  2  0
  6  7  1  0
  7  8  1  0
  8  9  1  0
  9 10  1  0
  7 11  2  0
 11 12  1  0
 12 13  2  0
 12 14  1  0
 14 15  2  0
 14 16  1  0
 16 17  1  0
 17 18  1  1
 18 19  1  0
 19 20  2  0
 20 21  1  0
 21 22  2  0
 22 23  1  0
 23 24  2  0
 21 25  1  0
 25 26  1  0
 17 27  1  0
 27 28  1  6
 27 29  1  0
 29 30  1  0
 30 31  1  0
 31 32  1  0
 32 33  1  0
 31 34  1  0
 34 35  2  0
 35 36  1  0
 36 37  2  0
 37 38  1  0
 38 39  2  0
 36 40  1  0
 40 41  1  0
 40 42  1  0
 13  5  1  0
 24 19  1  0
 33 31  1  0
 39 34  1  0
M  END
$$$$
