
     RDKit          3D

 42 45  0  0  0  0  0  0  0  0999 V2000
  -23.3280  -40.2433   -3.7393 C   0  0  0  0  0  0  0  0  0  0  0  0
  -23.4105  -41.5250   -4.5744 C   0  0  0  0  0  0  0  0  0  0  0  0
  -22.0265  -42.0906   -4.6738 C   0  0  0  0  0  0  0  0  0  0  0  0
  -21.9005  -43.2714   -5.4676 N   0  0  0  0  0  0  0  0  0  0  0  0
  -20.7901  -43.4957   -6.2925 C   0  0  0  0  0  0  0  0  0  0  0  0
  -20.4084  -44.7653   -6.6379 C   0  0  0  0  0  0  0  0  0  0  0  0
  -19.3311  -44.9834   -7.4639 C   0  0  0  0  0  0  0  0  0  0  0  0
  -18.8769  -46.3444   -7.8381 C   0  0  0  0  0  0  0  0  0  0  0  0
  -18.0763  -46.9413   -6.8738 O   0  0  0  0  0  0  0  0  0  0  0  0
  -18.7532  -48.0698   -6.4355 C   0  0  0  0  0  0  0  0  0  0  0  0
  -18.6160  -43.9082   -7.9582 C   0  0  0  0  0  0  0  0  0  0  0  0
  -18.9689  -42.6326   -7.6329 C   0  0  0  0  0  0  0  0  0  0  0  0
  -20.0423  -42.4215   -6.8095 C   0  0  0  0  0  0  0  0  0  0  0  0
  -18.2202  -41.4839   -8.1531 C   0  0  0  0  0  0  0  0  0  0  0  0
  -18.0808  -41.3818   -9.4237 O   0  0  0  0  0  0  0  0  0  0  0  0
  -17.6370  -40.4807   -7.3670 N   0  0  0  0  0  0  0  0  0  0  0  0
  -17.0042  -39.2583   -7.8145 C   0  0  1  0  0  0  0  0  0  0  0  0
  -17.9670  -38.1556   -7.6282 C   0  0  0  0  0  0  0  0  0  0  0  0
  -19.3361  -38.3564   -8.0854 C   0  0  0  0  0  0  0  0  0  0  0  0
  -20.3700  -38.4735   -7.1860 C   0  0  0  0  0  0  0  0  0  0  0  0
  -21.6977  -38.6768   -7.6039 C   0  0  0  0  0  0  0  0  0  0  0  0
  -21.9929  -38.7660   -8.9426 C   0  0  0  0  0  0  0  0  0  0  0  0
  -20.9626  -38.6497   -9.8523 C   0  0  0  0  0  0  0  0  0  0  0  0
  -19.6453  -38.4462   -9.4222 C   0  0  0  0  0  0  0  0  0  0  0  0
  -22.7036  -38.7880   -6.6632 O   0  0  0  0  0  0  0  0  0  0  0  0
  -24.0446  -38.8874   -7.0517 C   0  0  0  0  0  0  0  0  0  0  0  0
  -15.6248  -39.0235   -7.2365 C   0  0  2  0  0  0  0  0  0  0  0  0
  -15.4911  -37.6450   -7.0256 O   0  0  0  0  0  0  0  0  0  0  0  0
  -14.6346  -39.4094   -8.2993 C   0  0  0  0  0  0  0  0  0  0  0  0
  -14.5175  -40.8124   -8.5419 N   0  0  0  0  0  0  0  0  0  0  0  0
  -13.4384  -41.1125   -9.4957 C   0  0  0  0  0  0  0  0  0  0  0  0
  -12.0273  -41.0999   -8.9070 C   0  0  0  0  0  0  0  0  0  0  0  0
  -12.4760  -40.0266   -9.8424 C   0  0  0  0  0  0  0  0  0  0  0  0
  -13.7283  -42.1213  -10.5387 C   0  0  0  0  0  0  0  0  0  0  0  0
  -14.6397  -43.1303  -10.3254 C   0  0  0  0  0  0  0  0  0  0  0  0
  -14.9252  -44.0783  -11.2895 C   0  0  0  0  0  0  0  0  0  0  0  0
  -14.2943  -44.0394  -12.5115 C   0  0  0  0  0  0  0  0  0  0  0  0
  -13.3806  -43.0426  -12.7529 C   0  0  0  0  0  0  0  0  0  0  0  0
  -13.1028  -42.0873  -11.7600 C   0  0  0  0  0  0  0  0  0  0  0  0
  -15.9117  -45.1729  -11.0386 C   0  0  0  0  0  0  0  0  0  0  0  0
  -17.0986  -44.6319  -10.2884 C   0  0  0  0  0  0  0  0  0  0  0  0
  -15.2660  -46.2542  -10.1660 C   0  0  0  0  0  0  0  0  0  0  0  0
  1  2  1  0
  2  3  1  0
  3  4  1  0
  4  5  1  0
  5  6  2  0
  6  7  1  0
  7  8  1  0
  8  9  1  0
  9 10  1  0
  7 11  2  0
 11 12  1  0
 12 13  2  0
 12 14  1  0
 14 15  2  0
 14 16  1  0
 16 17  1  0
 17 18  1  1
 18 19  1  0
 19 20  2  0
 20 21  1  0
 21 22  2  0
 22 23  1  0
 23 24  2  0
 21 25  1  0
 25 26  1  0
 17 27  1  0
 27 28  1  6
 27 29  1  0
 29 30  1  0
 30 31  1  0
 31 32  1  0
 32 33  1  0
 31 34  1  0
 34 35  2  0
 35 36  1  0
 36 37  2  0
 37 38  1  0
 38 39  2  0
 36 40  1  0
 40 41  1  0
 40 42  1  0
 13  5  1  0
 24 19  1  0
 33 31  1  0
 39 34  1  0
M  END
$$$$
