
     RDKit          3D

 42 45  0  0  0  0  0  0  0  0999 V2000
  -18.3300  -49.8193   -5.6391 C   0  0  0  0  0  0  0  0  0  0  0  0
  -17.9032  -48.3860   -5.9711 C   0  0  0  0  0  0  0  0  0  0  0  0
  -18.6028  -47.9862   -7.2343 C   0  0  0  0  0  0  0  0  0  0  0  0
  -18.2562  -46.6994   -7.7483 N   0  0  0  0  0  0  0  0  0  0  0  0
  -19.0480  -45.5678   -7.5110 C   0  0  0  0  0  0  0  0  0  0  0  0
  -20.2870  -45.6772   -6.9366 C   0  0  0  0  0  0  0  0  0  0  0  0
  -21.0545  -44.5645   -6.6855 C   0  0  0  0  0  0  0  0  0  0  0  0
  -22.4086  -44.6492   -6.0872 C   0  0  0  0  0  0  0  0  0  0  0  0
  -23.4081  -44.8870   -7.0208 O   0  0  0  0  0  0  0  0  0  0  0  0
  -24.6132  -44.8444   -6.3353 C   0  0  0  0  0  0  0  0  0  0  0  0
  -20.5745  -43.3105   -7.0155 C   0  0  0  0  0  0  0  0  0  0  0  0
  -19.3466  -43.1671   -7.5891 C   0  0  0  0  0  0  0  0  0  0  0  0
  -18.5869  -44.2789   -7.8374 C   0  0  0  0  0  0  0  0  0  0  0  0
  -18.8253  -41.8424   -7.9411 C   0  0  0  0  0  0  0  0  0  0  0  0
  -18.7452  -41.5379   -9.1841 O   0  0  0  0  0  0  0  0  0  0  0  0
  -18.4009  -40.8741   -7.0208 N   0  0  0  0  0  0  0  0  0  0  0  0
  -17.8052  -39.5849   -7.3006 C   0  0  1  0  0  0  0  0  0  0  0  0
  -18.5758  -38.5616   -6.5682 C   0  0  0  0  0  0  0  0  0  0  0  0
  -20.0303  -38.6501   -6.5937 C   0  0  0  0  0  0  0  0  0  0  0  0
  -20.6947  -39.5686   -5.8150 C   0  0  0  0  0  0  0  0  0  0  0  0
  -22.0970  -39.6783   -5.8302 C   0  0  0  0  0  0  0  0  0  0  0  0
  -22.8439  -38.8565   -6.6389 C   0  0  0  0  0  0  0  0  0  0  0  0
  -22.1865  -37.9319   -7.4235 C   0  0  0  0  0  0  0  0  0  0  0  0
  -20.7896  -37.8329   -7.3976 C   0  0  0  0  0  0  0  0  0  0  0  0
  -22.7205  -40.6163   -5.0298 O   0  0  0  0  0  0  0  0  0  0  0  0
  -22.0975  -41.1062   -3.8761 C   0  0  0  0  0  0  0  0  0  0  0  0
  -16.3051  -39.5362   -7.1030 C   0  0  2  0  0  0  0  0  0  0  0  0
  -15.9805  -38.2344   -6.6999 O   0  0  0  0  0  0  0  0  0  0  0  0
  -15.6796  -39.7533   -8.4523 C   0  0  0  0  0  0  0  0  0  0  0  0
  -14.3932  -40.3746   -8.4343 N   0  0  0  0  0  0  0  0  0  0  0  0
  -13.7349  -40.3031   -9.7480 C   0  0  0  0  0  0  0  0  0  0  0  0
  -12.3678  -40.9831   -9.8288 C   0  0  0  0  0  0  0  0  0  0  0  0
  -12.4867  -39.4958   -9.8729 C   0  0  0  0  0  0  0  0  0  0  0  0
  -14.6076  -40.3927  -10.9396 C   0  0  0  0  0  0  0  0  0  0  0  0
  -15.9650  -40.1838  -10.8506 C   0  0  0  0  0  0  0  0  0  0  0  0
  -16.7940  -40.2598  -11.9537 C   0  0  0  0  0  0  0  0  0  0  0  0
  -16.2759  -40.5525  -13.1941 C   0  0  0  0  0  0  0  0  0  0  0  0
  -14.9240  -40.7645  -13.3133 C   0  0  0  0  0  0  0  0  0  0  0  0
  -14.0966  -40.6834  -12.1800 C   0  0  0  0  0  0  0  0  0  0  0  0
  -18.2677  -40.0384  -11.8382 C   0  0  0  0  0  0  0  0  0  0  0  0
  -19.0099  -41.1942  -12.4527 C   0  0  0  0  0  0  0  0  0  0  0  0
  -18.6578  -38.7743  -12.6111 C   0  0  0  0  0  0  0  0  0  0  0  0
  1  2  1  0
  2  3  1  0
  3  4  1  0
  4  5  1  0
  5  6  2  0
  6  7  1  0
  7  8  1  0
  8  9  1  0
  9 10  1  0
  7 11  2  0
 11 12  1  0
 12 13  2  0
 12 14  1  0
 14 15  2  0
 14 16  1  0
 16 17  1  0
 17 18  1  1
 18 19  1  0
 19 20  2  0
 20 21  1  0
 21 22  2  0
 22 23  1  0
 23 24  2  0
 21 25  1  0
 25 26  1  0
 17 27  1  0
 27 28  1  6
 27 29  1  0
 29 30  1  0
 30 31  1  0
 31 32  1  0
 32 33  1  0
 31 34  1  0
 34 35  2  0
 35 36  1  0
 36 37  2  0
 37 38  1  0
 38 39  2  0
 36 40  1  0
 40 41  1  0
 40 42  1  0
 13  5  1  0
 24 19  1  0
 33 31  1  0
 39 34  1  0
M  END
$$$$
