
     RDKit          3D

 42 45  0  0  0  0  0  0  0  0999 V2000
  -23.7509  -47.9069   -6.5939 C   0  0  0  0  0  0  0  0  0  0  0  0
  -22.3303  -47.3345   -6.6261 C   0  0  0  0  0  0  0  0  0  0  0  0
  -22.3235  -46.1939   -7.5978 C   0  0  0  0  0  0  0  0  0  0  0  0
  -21.0856  -45.4903   -7.7113 N   0  0  0  0  0  0  0  0  0  0  0  0
  -20.8573  -44.2787   -7.0453 C   0  0  0  0  0  0  0  0  0  0  0  0
  -21.4831  -43.9918   -5.8608 C   0  0  0  0  0  0  0  0  0  0  0  0
  -21.2426  -42.8115   -5.1979 C   0  0  0  0  0  0  0  0  0  0  0  0
  -21.9206  -42.4593   -3.9270 C   0  0  0  0  0  0  0  0  0  0  0  0
  -21.7939  -43.4348   -2.9476 O   0  0  0  0  0  0  0  0  0  0  0  0
  -20.7285  -43.0576   -2.1436 C   0  0  0  0  0  0  0  0  0  0  0  0
  -20.3555  -41.8938   -5.7294 C   0  0  0  0  0  0  0  0  0  0  0  0
  -19.7172  -42.1481   -6.9063 C   0  0  0  0  0  0  0  0  0  0  0  0
  -19.9610  -43.3249   -7.5624 C   0  0  0  0  0  0  0  0  0  0  0  0
  -18.7719  -41.1840   -7.4787 C   0  0  0  0  0  0  0  0  0  0  0  0
  -18.1883  -41.4934   -8.5778 O   0  0  0  0  0  0  0  0  0  0  0  0
  -18.4495  -39.9416   -6.9155 N   0  0  0  0  0  0  0  0  0  0  0  0
  -17.5516  -38.9354   -7.4412 C   0  0  1  0  0  0  0  0  0  0  0  0
  -18.2185  -37.6248   -7.3182 C   0  0  0  0  0  0  0  0  0  0  0  0
  -19.5454  -37.4733   -7.9016 C   0  0  0  0  0  0  0  0  0  0  0  0
  -19.7249  -37.5104   -9.2647 C   0  0  0  0  0  0  0  0  0  0  0  0
  -20.9946  -37.3573   -9.8504 C   0  0  0  0  0  0  0  0  0  0  0  0
  -22.1001  -37.1626   -9.0584 C   0  0  0  0  0  0  0  0  0  0  0  0
  -21.9301  -37.1241   -7.6900 C   0  0  0  0  0  0  0  0  0  0  0  0
  -20.6600  -37.2790   -7.1202 C   0  0  0  0  0  0  0  0  0  0  0  0
  -21.1259  -37.4022  -11.2251 O   0  0  0  0  0  0  0  0  0  0  0  0
  -22.2034  -36.7799  -11.8660 C   0  0  0  0  0  0  0  0  0  0  0  0
  -16.1449  -39.0053   -6.8863 C   0  0  2  0  0  0  0  0  0  0  0  0
  -15.7212  -37.6894   -6.6593 O   0  0  0  0  0  0  0  0  0  0  0  0
  -15.2746  -39.5719   -7.9728 C   0  0  0  0  0  0  0  0  0  0  0  0
  -13.9401  -39.8946   -7.5777 N   0  0  0  0  0  0  0  0  0  0  0  0
  -13.0922  -40.2186   -8.7355 C   0  0  0  0  0  0  0  0  0  0  0  0
  -12.2655  -41.4977   -8.5992 C   0  0  0  0  0  0  0  0  0  0  0  0
  -11.6109  -40.1565   -8.5694 C   0  0  0  0  0  0  0  0  0  0  0  0
  -13.6390  -39.9049  -10.0742 C   0  0  0  0  0  0  0  0  0  0  0  0
  -13.5625  -38.6351  -10.5994 C   0  0  0  0  0  0  0  0  0  0  0  0
  -14.0644  -38.3255  -11.8492 C   0  0  0  0  0  0  0  0  0  0  0  0
  -14.6660  -39.2957  -12.6170 C   0  0  0  0  0  0  0  0  0  0  0  0
  -14.7553  -40.5727  -12.1188 C   0  0  0  0  0  0  0  0  0  0  0  0
  -14.2394  -40.8687  -10.8453 C   0  0  0  0  0  0  0  0  0  0  0  0
  -13.9808  -36.9390  -12.4015 C   0  0  0  0  0  0  0  0  0  0  0  0
  -14.5865  -35.9624  -11.4301 C   0  0  0  0  0  0  0  0  0  0  0  0
  -14.7854  -36.8568  -13.7029 C   0  0  0  0  0  0  0  0  0  0  0  0
  1  2  1  0
  2  3  1  0
  3  4  1  0
  4  5  1  0
  5  6  2  0
  6  7  1  0
  7  8  1  0
  8  9  1  0
  9 10  1  0
  7 11  2  0
 11 12  1  0
 12 13  2  0
 12 14  1  0
 14 15  2  0
 14 16  1  0
 16 17  1  0
 17 18  1  1
 18 19  1  0
 19 20  2  0
 20 21  1  0
 21 22  2  0
 22 23  1  0
 23 24  2  0
 21 25  1  0
 25 26  1  0
 17 27  1  0
 27 28  1  6
 27 29  1  0
 29 30  1  0
 30 31  1  0
 31 32  1  0
 32 33  1  0
 31 34  1  0
 34 35  2  0
 35 36  1  0
 36 37  2  0
 37 38  1  0
 38 39  2  0
 36 40  1  0
 40 41  1  0
 40 42  1  0
 13  5  1  0
 24 19  1  0
 33 31  1  0
 39 34  1  0
M  END
$$$$
