
     RDKit          3D

 42 45  0  0  0  0  0  0  0  0999 V2000
  -23.5883  -32.6185  -10.7494 C   0  0  0  0  0  0  0  0  0  0  0  0
  -23.3156  -33.9144  -11.5195 C   0  0  0  0  0  0  0  0  0  0  0  0
  -22.7737  -34.9151  -10.5448 C   0  0  0  0  0  0  0  0  0  0  0  0
  -21.3643  -35.1373  -10.6113 N   0  0  0  0  0  0  0  0  0  0  0  0
  -20.8250  -36.3522  -11.0549 C   0  0  0  0  0  0  0  0  0  0  0  0
  -21.4168  -37.0638  -12.0650 C   0  0  0  0  0  0  0  0  0  0  0  0
  -20.8754  -38.2454  -12.5134 C   0  0  0  0  0  0  0  0  0  0  0  0
  -21.5029  -39.0523  -13.5877 C   0  0  0  0  0  0  0  0  0  0  0  0
  -21.2056  -38.5944  -14.8640 O   0  0  0  0  0  0  0  0  0  0  0  0
  -22.2846  -37.8253  -15.2738 C   0  0  0  0  0  0  0  0  0  0  0  0
  -19.7142  -38.7299  -11.9401 C   0  0  0  0  0  0  0  0  0  0  0  0
  -19.1011  -38.0468  -10.9327 C   0  0  0  0  0  0  0  0  0  0  0  0
  -19.6451  -36.8709  -10.4898 C   0  0  0  0  0  0  0  0  0  0  0  0
  -17.8676  -38.5488  -10.3186 C   0  0  0  0  0  0  0  0  0  0  0  0
  -17.0894  -39.2726  -11.0362 O   0  0  0  0  0  0  0  0  0  0  0  0
  -17.4678  -38.3018   -8.9981 N   0  0  0  0  0  0  0  0  0  0  0  0
  -16.1438  -38.4439   -8.4307 C   0  0  1  0  0  0  0  0  0  0  0  0
  -15.6350  -37.0930   -8.1248 C   0  0  0  0  0  0  0  0  0  0  0  0
  -15.5405  -36.1325   -9.2168 C   0  0  0  0  0  0  0  0  0  0  0  0
  -15.8386  -34.8049   -9.0162 C   0  0  0  0  0  0  0  0  0  0  0  0
  -15.7633  -33.8619  -10.0572 C   0  0  0  0  0  0  0  0  0  0  0  0
  -15.3854  -34.2557  -11.3179 C   0  0  0  0  0  0  0  0  0  0  0  0
  -15.0843  -35.5851  -11.5289 C   0  0  0  0  0  0  0  0  0  0  0  0
  -15.1624  -36.5132  -10.4828 C   0  0  0  0  0  0  0  0  0  0  0  0
  -16.0721  -32.5384   -9.8076 O   0  0  0  0  0  0  0  0  0  0  0  0
  -15.6930  -31.9248   -8.6080 C   0  0  0  0  0  0  0  0  0  0  0  0
  -16.0558  -39.4451   -7.2987 C   0  0  2  0  0  0  0  0  0  0  0  0
  -14.7076  -39.5383   -6.9294 O   0  0  0  0  0  0  0  0  0  0  0  0
  -16.4558  -40.7792   -7.8635 C   0  0  0  0  0  0  0  0  0  0  0  0
  -17.1251  -41.6510   -6.9507 N   0  0  0  0  0  0  0  0  0  0  0  0
  -17.5803  -42.8849   -7.6098 C   0  0  0  0  0  0  0  0  0  0  0  0
  -16.4806  -43.7072   -8.2826 C   0  0  0  0  0  0  0  0  0  0  0  0
  -17.4912  -42.9694   -9.0966 C   0  0  0  0  0  0  0  0  0  0  0  0
  -18.6767  -43.6298   -6.9520 C   0  0  0  0  0  0  0  0  0  0  0  0
  -19.3093  -43.1345   -5.8347 C   0  0  0  0  0  0  0  0  0  0  0  0
  -20.3373  -43.8150   -5.2101 C   0  0  0  0  0  0  0  0  0  0  0  0
  -20.7643  -45.0289   -5.6967 C   0  0  0  0  0  0  0  0  0  0  0  0
  -20.1520  -45.5472   -6.8117 C   0  0  0  0  0  0  0  0  0  0  0  0
  -19.1078  -44.8409   -7.4332 C   0  0  0  0  0  0  0  0  0  0  0  0
  -21.0083  -43.2668   -3.9921 C   0  0  0  0  0  0  0  0  0  0  0  0
  -19.9808  -42.9465   -2.9405 C   0  0  0  0  0  0  0  0  0  0  0  0
  -21.9535  -44.3226   -3.4092 C   0  0  0  0  0  0  0  0  0  0  0  0
  1  2  1  0
  2  3  1  0
  3  4  1  0
  4  5  1  0
  5  6  2  0
  6  7  1  0
  7  8  1  0
  8  9  1  0
  9 10  1  0
  7 11  2  0
 11 12  1  0
 12 13  2  0
 12 14  1  0
 14 15  2  0
 14 16  1  0
 16 17  1  0
 17 18  1  1
 18 19  1  0
 19 20  2  0
 20 21  1  0
 21 22  2  0
 22 23  1  0
 23 24  2  0
 21 25  1  0
 25 26  1  0
 17 27  1  0
 27 28  1  6
 27 29  1  0
 29 30  1  0
 30 31  1  0
 31 32  1  0
 32 33  1  0
 31 34  1  0
 34 35  2  0
 35 36  1  0
 36 37  2  0
 37 38  1  0
 38 39  2  0
 36 40  1  0
 40 41  1  0
 40 42  1  0
 13  5  1  0
 24 19  1  0
 33 31  1  0
 39 34  1  0
M  END
$$$$
