
     RDKit          3D

 42 45  0  0  0  0  0  0  0  0999 V2000
  -23.3708  -40.3564   -4.2692 C   0  0  0  0  0  0  0  0  0  0  0  0
  -23.0827  -41.6976   -4.9511 C   0  0  0  0  0  0  0  0  0  0  0  0
  -23.3860  -41.5383   -6.4098 C   0  0  0  0  0  0  0  0  0  0  0  0
  -23.1144  -42.6810   -7.2226 N   0  0  0  0  0  0  0  0  0  0  0  0
  -21.8126  -43.1642   -7.4121 C   0  0  0  0  0  0  0  0  0  0  0  0
  -21.5332  -44.5024   -7.3234 C   0  0  0  0  0  0  0  0  0  0  0  0
  -20.2595  -44.9775   -7.5297 C   0  0  0  0  0  0  0  0  0  0  0  0
  -19.9181  -46.4161   -7.4179 C   0  0  0  0  0  0  0  0  0  0  0  0
  -19.2256  -46.7281   -6.2558 O   0  0  0  0  0  0  0  0  0  0  0  0
  -17.9160  -46.9908   -6.6297 C   0  0  0  0  0  0  0  0  0  0  0  0
  -19.2384  -44.0957   -7.8321 C   0  0  0  0  0  0  0  0  0  0  0  0
  -19.4826  -42.7583   -7.9268 C   0  0  0  0  0  0  0  0  0  0  0  0
  -20.7529  -42.2908   -7.7198 C   0  0  0  0  0  0  0  0  0  0  0  0
  -18.4086  -41.8134   -8.2498 C   0  0  0  0  0  0  0  0  0  0  0  0
  -17.4589  -42.2188   -9.0101 O   0  0  0  0  0  0  0  0  0  0  0  0
  -18.3337  -40.4920   -7.7887 N   0  0  0  0  0  0  0  0  0  0  0  0
  -17.3211  -39.5029   -8.0908 C   0  0  1  0  0  0  0  0  0  0  0  0
  -17.9427  -38.1693   -7.9776 C   0  0  0  0  0  0  0  0  0  0  0  0
  -19.2590  -37.9739   -8.5718 C   0  0  0  0  0  0  0  0  0  0  0  0
  -19.8667  -38.9797   -9.2863 C   0  0  0  0  0  0  0  0  0  0  0  0
  -21.1324  -38.8106   -9.8762 C   0  0  0  0  0  0  0  0  0  0  0  0
  -21.7978  -37.6155   -9.7496 C   0  0  0  0  0  0  0  0  0  0  0  0
  -21.1964  -36.6007   -9.0346 C   0  0  0  0  0  0  0  0  0  0  0  0
  -19.9361  -36.7832   -8.4515 C   0  0  0  0  0  0  0  0  0  0  0  0
  -21.7035  -39.8505  -10.5847 O   0  0  0  0  0  0  0  0  0  0  0  0
  -21.3361  -40.1049  -11.9111 C   0  0  0  0  0  0  0  0  0  0  0  0
  -16.0259  -39.6849   -7.3285 C   0  0  2  0  0  0  0  0  0  0  0  0
  -15.3696  -38.4472   -7.3215 O   0  0  0  0  0  0  0  0  0  0  0  0
  -15.1781  -40.6338   -8.1283 C   0  0  0  0  0  0  0  0  0  0  0  0
  -13.7677  -40.4411   -8.0060 N   0  0  0  0  0  0  0  0  0  0  0  0
  -13.0195  -41.2677   -8.9657 C   0  0  0  0  0  0  0  0  0  0  0  0
  -13.8350  -42.3596   -9.6589 C   0  0  0  0  0  0  0  0  0  0  0  0
  -12.7993  -42.7072   -8.6417 C   0  0  0  0  0  0  0  0  0  0  0  0
  -11.9801  -40.5859   -9.7685 C   0  0  0  0  0  0  0  0  0  0  0  0
  -11.4416  -41.1736  -10.8904 C   0  0  0  0  0  0  0  0  0  0  0  0
  -10.4731  -40.5496  -11.6537 C   0  0  0  0  0  0  0  0  0  0  0  0
  -10.0115  -39.3010  -11.3065 C   0  0  0  0  0  0  0  0  0  0  0  0
  -10.5320  -38.6895  -10.1921 C   0  0  0  0  0  0  0  0  0  0  0  0
  -11.5162  -39.3398   -9.4277 C   0  0  0  0  0  0  0  0  0  0  0  0
   -9.8924  -41.2056  -12.8648 C   0  0  0  0  0  0  0  0  0  0  0  0
   -9.2011  -40.1801  -13.7220 C   0  0  0  0  0  0  0  0  0  0  0  0
  -11.0173  -41.8251  -13.7006 C   0  0  0  0  0  0  0  0  0  0  0  0
  1  2  1  0
  2  3  1  0
  3  4  1  0
  4  5  1  0
  5  6  2  0
  6  7  1  0
  7  8  1  0
  8  9  1  0
  9 10  1  0
  7 11  2  0
 11 12  1  0
 12 13  2  0
 12 14  1  0
 14 15  2  0
 14 16  1  0
 16 17  1  0
 17 18  1  1
 18 19  1  0
 19 20  2  0
 20 21  1  0
 21 22  2  0
 22 23  1  0
 23 24  2  0
 21 25  1  0
 25 26  1  0
 17 27  1  0
 27 28  1  6
 27 29  1  0
 29 30  1  0
 30 31  1  0
 31 32  1  0
 32 33  1  0
 31 34  1  0
 34 35  2  0
 35 36  1  0
 36 37  2  0
 37 38  1  0
 38 39  2  0
 36 40  1  0
 40 41  1  0
 40 42  1  0
 13  5  1  0
 24 19  1  0
 33 31  1  0
 39 34  1  0
M  END
$$$$
