
     RDKit          3D

 42 45  0  0  0  0  0  0  0  0999 V2000
  -24.0473  -43.4871   -8.6126 C   0  0  0  0  0  0  0  0  0  0  0  0
  -23.6532  -42.7130   -9.8745 C   0  0  0  0  0  0  0  0  0  0  0  0
  -22.1601  -42.7642   -9.9894 C   0  0  0  0  0  0  0  0  0  0  0  0
  -21.5973  -41.9812  -11.0432 N   0  0  0  0  0  0  0  0  0  0  0  0
  -20.2137  -41.9010  -11.2502 C   0  0  0  0  0  0  0  0  0  0  0  0
  -19.6713  -42.0831  -12.4950 C   0  0  0  0  0  0  0  0  0  0  0  0
  -18.3155  -41.9839  -12.7008 C   0  0  0  0  0  0  0  0  0  0  0  0
  -17.6936  -42.1987  -14.0297 C   0  0  0  0  0  0  0  0  0  0  0  0
  -17.2706  -43.5049  -14.2341 O   0  0  0  0  0  0  0  0  0  0  0  0
  -15.9531  -43.5698  -13.8054 C   0  0  0  0  0  0  0  0  0  0  0  0
  -17.4790  -41.6958  -11.6383 C   0  0  0  0  0  0  0  0  0  0  0  0
  -17.9864  -41.5100  -10.3871 C   0  0  0  0  0  0  0  0  0  0  0  0
  -19.3374  -41.6105  -10.1880 C   0  0  0  0  0  0  0  0  0  0  0  0
  -17.1099  -41.2010   -9.2527 C   0  0  0  0  0  0  0  0  0  0  0  0
  -16.4848  -42.1710   -8.6935 O   0  0  0  0  0  0  0  0  0  0  0  0
  -16.9001  -39.9203   -8.7234 N   0  0  0  0  0  0  0  0  0  0  0  0
  -15.8241  -39.4824   -7.8598 C   0  0  1  0  0  0  0  0  0  0  0  0
  -14.9813  -38.5447   -8.6266 C   0  0  0  0  0  0  0  0  0  0  0  0
  -14.3225  -39.0406   -9.8282 C   0  0  0  0  0  0  0  0  0  0  0  0
  -13.5629  -38.2041  -10.6124 C   0  0  0  0  0  0  0  0  0  0  0  0
  -12.9256  -38.6584  -11.7812 C   0  0  0  0  0  0  0  0  0  0  0  0
  -13.0529  -39.9696  -12.1705 C   0  0  0  0  0  0  0  0  0  0  0  0
  -13.8125  -40.8164  -11.3903 C   0  0  0  0  0  0  0  0  0  0  0  0
  -14.4408  -40.3508  -10.2283 C   0  0  0  0  0  0  0  0  0  0  0  0
  -12.1721  -37.7807  -12.5371 O   0  0  0  0  0  0  0  0  0  0  0  0
  -10.9961  -37.2183  -12.0275 C   0  0  0  0  0  0  0  0  0  0  0  0
  -16.2769  -38.9904   -6.5017 C   0  0  2  0  0  0  0  0  0  0  0  0
  -15.1957  -39.1399   -5.6233 O   0  0  0  0  0  0  0  0  0  0  0  0
  -17.3596  -39.9238   -6.0377 C   0  0  0  0  0  0  0  0  0  0  0  0
  -18.3140  -39.3517   -5.1416 N   0  0  0  0  0  0  0  0  0  0  0  0
  -19.3776  -40.3072   -4.7953 C   0  0  0  0  0  0  0  0  0  0  0  0
  -19.6366  -40.4785   -3.2981 C   0  0  0  0  0  0  0  0  0  0  0  0
  -18.9979  -41.5679   -4.0940 C   0  0  0  0  0  0  0  0  0  0  0  0
  -20.5507  -40.3581   -5.6958 C   0  0  0  0  0  0  0  0  0  0  0  0
  -20.7784  -39.3750   -6.6315 C   0  0  0  0  0  0  0  0  0  0  0  0
  -21.8666  -39.4088   -7.4828 C   0  0  0  0  0  0  0  0  0  0  0  0
  -22.7693  -40.4449   -7.4169 C   0  0  0  0  0  0  0  0  0  0  0  0
  -22.5666  -41.4412   -6.4932 C   0  0  0  0  0  0  0  0  0  0  0  0
  -21.4543  -41.3897   -5.6354 C   0  0  0  0  0  0  0  0  0  0  0  0
  -22.1040  -38.3283   -8.4880 C   0  0  0  0  0  0  0  0  0  0  0  0
  -20.7895  -37.7657   -8.9567 C   0  0  0  0  0  0  0  0  0  0  0  0
  -22.8903  -37.1862   -7.8362 C   0  0  0  0  0  0  0  0  0  0  0  0
  1  2  1  0
  2  3  1  0
  3  4  1  0
  4  5  1  0
  5  6  2  0
  6  7  1  0
  7  8  1  0
  8  9  1  0
  9 10  1  0
  7 11  2  0
 11 12  1  0
 12 13  2  0
 12 14  1  0
 14 15  2  0
 14 16  1  0
 16 17  1  0
 17 18  1  6
 18 19  1  0
 19 20  2  0
 20 21  1  0
 21 22  2  0
 22 23  1  0
 23 24  2  0
 21 25  1  0
 25 26  1  0
 17 27  1  0
 27 28  1  1
 27 29  1  0
 29 30  1  0
 30 31  1  0
 31 32  1  0
 32 33  1  0
 31 34  1  0
 34 35  2  0
 35 36  1  0
 36 37  2  0
 37 38  1  0
 38 39  2  0
 36 40  1  0
 40 41  1  0
 40 42  1  0
 13  5  1  0
 24 19  1  0
 33 31  1  0
 39 34  1  0
M  END
$$$$
