
     RDKit          3D

 42 45  0  0  0  0  0  0  0  0999 V2000
  -14.8990  -31.5251  -12.5648 C   0  0  0  0  0  0  0  0  0  0  0  0
  -13.8981  -32.6493  -12.8496 C   0  0  0  0  0  0  0  0  0  0  0  0
  -13.5569  -33.2942  -11.5408 C   0  0  0  0  0  0  0  0  0  0  0  0
  -14.4383  -34.3367  -11.1208 N   0  0  0  0  0  0  0  0  0  0  0  0
  -14.0329  -35.6773  -11.0748 C   0  0  0  0  0  0  0  0  0  0  0  0
  -12.7283  -36.0315  -11.2968 C   0  0  0  0  0  0  0  0  0  0  0  0
  -12.3276  -37.3451  -11.2311 C   0  0  0  0  0  0  0  0  0  0  0  0
  -10.9292  -37.7653  -11.4894 C   0  0  0  0  0  0  0  0  0  0  0  0
  -10.7864  -38.5190  -12.6464 O   0  0  0  0  0  0  0  0  0  0  0  0
   -9.4258  -38.7182  -12.8279 C   0  0  0  0  0  0  0  0  0  0  0  0
  -13.2514  -38.3309  -10.9366 C   0  0  0  0  0  0  0  0  0  0  0  0
  -14.5572  -38.0122  -10.7114 C   0  0  0  0  0  0  0  0  0  0  0  0
  -14.9505  -36.7024  -10.7787 C   0  0  0  0  0  0  0  0  0  0  0  0
  -15.5457  -39.0483  -10.3953 C   0  0  0  0  0  0  0  0  0  0  0  0
  -16.7748  -38.8128  -10.6751 O   0  0  0  0  0  0  0  0  0  0  0  0
  -15.2541  -40.2852   -9.8041 N   0  0  0  0  0  0  0  0  0  0  0  0
  -16.1122  -41.4468   -9.7076 C   0  0  1  0  0  0  0  0  0  0  0  0
  -15.3658  -42.6061  -10.2334 C   0  0  0  0  0  0  0  0  0  0  0  0
  -14.6171  -42.4349  -11.4720 C   0  0  0  0  0  0  0  0  0  0  0  0
  -13.2435  -42.3661  -11.4620 C   0  0  0  0  0  0  0  0  0  0  0  0
  -12.5007  -42.1920  -12.6438 C   0  0  0  0  0  0  0  0  0  0  0  0
  -13.1441  -42.0835  -13.8527 C   0  0  0  0  0  0  0  0  0  0  0  0
  -14.5217  -42.1514  -13.8728 C   0  0  0  0  0  0  0  0  0  0  0  0
  -15.2487  -42.3261  -12.6885 C   0  0  0  0  0  0  0  0  0  0  0  0
  -11.1216  -42.1292  -12.5842 O   0  0  0  0  0  0  0  0  0  0  0  0
  -10.3476  -42.1855  -13.7491 C   0  0  0  0  0  0  0  0  0  0  0  0
  -16.7448  -41.6421   -8.3462 C   0  0  2  0  0  0  0  0  0  0  0  0
  -17.4998  -42.8209   -8.4034 O   0  0  0  0  0  0  0  0  0  0  0  0
  -17.7080  -40.5060   -8.1452 C   0  0  0  0  0  0  0  0  0  0  0  0
  -18.5744  -40.6348   -7.0165 N   0  0  0  0  0  0  0  0  0  0  0  0
  -19.5224  -39.5135   -6.9263 C   0  0  0  0  0  0  0  0  0  0  0  0
  -19.1357  -38.2684   -7.7252 C   0  0  0  0  0  0  0  0  0  0  0  0
  -19.0834  -38.2674   -6.2334 C   0  0  0  0  0  0  0  0  0  0  0  0
  -20.9604  -39.8563   -6.8603 C   0  0  0  0  0  0  0  0  0  0  0  0
  -21.5148  -40.4032   -5.7256 C   0  0  0  0  0  0  0  0  0  0  0  0
  -22.8562  -40.7258   -5.6454 C   0  0  0  0  0  0  0  0  0  0  0  0
  -23.6897  -40.5057   -6.7175 C   0  0  0  0  0  0  0  0  0  0  0  0
  -23.1641  -39.9595   -7.8630 C   0  0  0  0  0  0  0  0  0  0  0  0
  -21.7972  -39.6382   -7.9262 C   0  0  0  0  0  0  0  0  0  0  0  0
  -23.4409  -41.3271   -4.4081 C   0  0  0  0  0  0  0  0  0  0  0  0
  -23.2868  -40.3754   -3.2528 C   0  0  0  0  0  0  0  0  0  0  0  0
  -22.6824  -42.6107   -4.0548 C   0  0  0  0  0  0  0  0  0  0  0  0
  1  2  1  0
  2  3  1  0
  3  4  1  0
  4  5  1  0
  5  6  2  0
  6  7  1  0
  7  8  1  0
  8  9  1  0
  9 10  1  0
  7 11  2  0
 11 12  1  0
 12 13  2  0
 12 14  1  0
 14 15  2  0
 14 16  1  0
 16 17  1  0
 17 18  1  1
 18 19  1  0
 19 20  2  0
 20 21  1  0
 21 22  2  0
 22 23  1  0
 23 24  2  0
 21 25  1  0
 25 26  1  0
 17 27  1  0
 27 28  1  6
 27 29  1  0
 29 30  1  0
 30 31  1  0
 31 32  1  0
 32 33  1  0
 31 34  1  0
 34 35  2  0
 35 36  1  0
 36 37  2  0
 37 38  1  0
 38 39  2  0
 36 40  1  0
 40 41  1  0
 40 42  1  0
 13  5  1  0
 24 19  1  0
 33 31  1  0
 39 34  1  0
M  END
$$$$
