
     RDKit          3D

 42 45  0  0  0  0  0  0  0  0999 V2000
  -23.4249  -43.0411  -12.2674 C   0  0  0  0  0  0  0  0  0  0  0  0
  -23.7499  -43.8689  -11.0200 C   0  0  0  0  0  0  0  0  0  0  0  0
  -22.4541  -44.3706  -10.4592 C   0  0  0  0  0  0  0  0  0  0  0  0
  -22.4676  -44.6841   -9.0658 N   0  0  0  0  0  0  0  0  0  0  0  0
  -21.8350  -43.8704   -8.1162 C   0  0  0  0  0  0  0  0  0  0  0  0
  -22.1409  -43.9660   -6.7842 C   0  0  0  0  0  0  0  0  0  0  0  0
  -21.5049  -43.1817   -5.8511 C   0  0  0  0  0  0  0  0  0  0  0  0
  -21.8286  -43.2427   -4.4053 C   0  0  0  0  0  0  0  0  0  0  0  0
  -23.1926  -43.2539   -4.1474 O   0  0  0  0  0  0  0  0  0  0  0  0
  -23.4739  -42.0970   -3.4359 C   0  0  0  0  0  0  0  0  0  0  0  0
  -20.5392  -42.2789   -6.2564 C   0  0  0  0  0  0  0  0  0  0  0  0
  -20.2122  -42.1584   -7.5739 C   0  0  0  0  0  0  0  0  0  0  0  0
  -20.8493  -42.9418   -8.4988 C   0  0  0  0  0  0  0  0  0  0  0  0
  -19.1877  -41.2068   -8.0158 C   0  0  0  0  0  0  0  0  0  0  0  0
  -18.8611  -41.2069   -9.2559 O   0  0  0  0  0  0  0  0  0  0  0  0
  -18.5284  -40.2906   -7.1849 N   0  0  0  0  0  0  0  0  0  0  0  0
  -17.7929  -39.1071   -7.5767 C   0  0  1  0  0  0  0  0  0  0  0  0
  -18.5783  -37.9283   -7.1627 C   0  0  0  0  0  0  0  0  0  0  0  0
  -19.8936  -37.7366   -7.7602 C   0  0  0  0  0  0  0  0  0  0  0  0
  -21.0385  -37.9490   -7.0283 C   0  0  0  0  0  0  0  0  0  0  0  0
  -22.3184  -37.7791   -7.5867 C   0  0  0  0  0  0  0  0  0  0  0  0
  -22.4525  -37.3923   -8.8980 C   0  0  0  0  0  0  0  0  0  0  0  0
  -21.3099  -37.1767   -9.6401 C   0  0  0  0  0  0  0  0  0  0  0  0
  -20.0417  -37.3486   -9.0710 C   0  0  0  0  0  0  0  0  0  0  0  0
  -23.4401  -38.0038   -6.8118 O   0  0  0  0  0  0  0  0  0  0  0  0
  -23.3237  -38.4121   -5.4781 C   0  0  0  0  0  0  0  0  0  0  0  0
  -16.3411  -39.1061   -7.1481 C   0  0  2  0  0  0  0  0  0  0  0  0
  -15.8133  -37.8487   -7.4691 O   0  0  0  0  0  0  0  0  0  0  0  0
  -15.6324  -40.1180   -8.0041 C   0  0  0  0  0  0  0  0  0  0  0  0
  -14.2561  -40.3293   -7.6839 N   0  0  0  0  0  0  0  0  0  0  0  0
  -13.5354  -40.9879   -8.7843 C   0  0  0  0  0  0  0  0  0  0  0  0
  -12.0338  -41.1707   -8.5616 C   0  0  0  0  0  0  0  0  0  0  0  0
  -12.5451  -40.1885   -9.5626 C   0  0  0  0  0  0  0  0  0  0  0  0
  -14.2502  -42.0672   -9.5013 C   0  0  0  0  0  0  0  0  0  0  0  0
  -14.8630  -43.0949   -8.8212 C   0  0  0  0  0  0  0  0  0  0  0  0
  -15.5378  -44.1086   -9.4745 C   0  0  0  0  0  0  0  0  0  0  0  0
  -15.6167  -44.1191  -10.8480 C   0  0  0  0  0  0  0  0  0  0  0  0
  -15.0155  -43.1051  -11.5530 C   0  0  0  0  0  0  0  0  0  0  0  0
  -14.3331  -42.0827  -10.8713 C   0  0  0  0  0  0  0  0  0  0  0  0
  -16.1909  -45.2223   -8.7212 C   0  0  0  0  0  0  0  0  0  0  0  0
  -17.1345  -45.9689   -9.6247 C   0  0  0  0  0  0  0  0  0  0  0  0
  -17.0155  -44.6447   -7.5661 C   0  0  0  0  0  0  0  0  0  0  0  0
  1  2  1  0
  2  3  1  0
  3  4  1  0
  4  5  1  0
  5  6  2  0
  6  7  1  0
  7  8  1  0
  8  9  1  0
  9 10  1  0
  7 11  2  0
 11 12  1  0
 12 13  2  0
 12 14  1  0
 14 15  2  0
 14 16  1  0
 16 17  1  0
 17 18  1  1
 18 19  1  0
 19 20  2  0
 20 21  1  0
 21 22  2  0
 22 23  1  0
 23 24  2  0
 21 25  1  0
 25 26  1  0
 17 27  1  0
 27 28  1  6
 27 29  1  0
 29 30  1  0
 30 31  1  0
 31 32  1  0
 32 33  1  0
 31 34  1  0
 34 35  2  0
 35 36  1  0
 36 37  2  0
 37 38  1  0
 38 39  2  0
 36 40  1  0
 40 41  1  0
 40 42  1  0
 13  5  1  0
 24 19  1  0
 33 31  1  0
 39 34  1  0
M  END
$$$$
