
     RDKit          3D

 42 45  0  0  0  0  0  0  0  0999 V2000
  -22.6759  -43.8504   -0.6178 C   0  0  0  0  0  0  0  0  0  0  0  0
  -21.3077  -43.8101   -1.3057 C   0  0  0  0  0  0  0  0  0  0  0  0
  -21.5116  -43.2690   -2.6881 C   0  0  0  0  0  0  0  0  0  0  0  0
  -20.3291  -43.1420   -3.4792 N   0  0  0  0  0  0  0  0  0  0  0  0
  -20.3702  -43.1408   -4.8799 C   0  0  0  0  0  0  0  0  0  0  0  0
  -21.0236  -44.1270   -5.5709 C   0  0  0  0  0  0  0  0  0  0  0  0
  -21.0808  -44.1137   -6.9445 C   0  0  0  0  0  0  0  0  0  0  0  0
  -21.7587  -45.1776   -7.7240 C   0  0  0  0  0  0  0  0  0  0  0  0
  -23.0776  -44.8759   -8.0345 O   0  0  0  0  0  0  0  0  0  0  0  0
  -23.1273  -44.6656   -9.4046 C   0  0  0  0  0  0  0  0  0  0  0  0
  -20.4710  -43.0910   -7.6473 C   0  0  0  0  0  0  0  0  0  0  0  0
  -19.8120  -42.0953   -6.9903 C   0  0  0  0  0  0  0  0  0  0  0  0
  -19.7579  -42.1140   -5.6223 C   0  0  0  0  0  0  0  0  0  0  0  0
  -19.1639  -41.0036   -7.7243 C   0  0  0  0  0  0  0  0  0  0  0  0
  -19.0055  -41.1397   -8.9895 O   0  0  0  0  0  0  0  0  0  0  0  0
  -18.6965  -39.8137   -7.1496 N   0  0  0  0  0  0  0  0  0  0  0  0
  -18.4328  -38.5531   -7.8101 C   0  0  1  0  0  0  0  0  0  0  0  0
  -19.2574  -37.5184   -7.1567 C   0  0  0  0  0  0  0  0  0  0  0  0
  -20.7070  -37.6483   -7.2322 C   0  0  0  0  0  0  0  0  0  0  0  0
  -21.4469  -37.9543   -6.1140 C   0  0  0  0  0  0  0  0  0  0  0  0
  -22.8457  -38.0937   -6.1649 C   0  0  0  0  0  0  0  0  0  0  0  0
  -23.5122  -37.9256   -7.3543 C   0  0  0  0  0  0  0  0  0  0  0  0
  -22.7788  -37.6184   -8.4814 C   0  0  0  0  0  0  0  0  0  0  0  0
  -21.3864  -37.4814   -8.4160 C   0  0  0  0  0  0  0  0  0  0  0  0
  -23.5468  -38.4016   -5.0147 O   0  0  0  0  0  0  0  0  0  0  0  0
  -22.8811  -38.6224   -3.8034 C   0  0  0  0  0  0  0  0  0  0  0  0
  -16.9629  -38.2206   -7.9531 C   0  0  2  0  0  0  0  0  0  0  0  0
  -16.8494  -37.2654   -8.9716 O   0  0  0  0  0  0  0  0  0  0  0  0
  -16.2777  -39.4685   -8.4349 C   0  0  0  0  0  0  0  0  0  0  0  0
  -15.6730  -39.3715   -9.7257 N   0  0  0  0  0  0  0  0  0  0  0  0
  -14.2162  -39.5659   -9.6610 C   0  0  0  0  0  0  0  0  0  0  0  0
  -13.7640  -40.9750   -9.2767 C   0  0  0  0  0  0  0  0  0  0  0  0
  -13.5944  -39.8322   -8.3314 C   0  0  0  0  0  0  0  0  0  0  0  0
  -13.3993  -38.8411  -10.6596 C   0  0  0  0  0  0  0  0  0  0  0  0
  -12.0261  -38.8091  -10.5741 C   0  0  0  0  0  0  0  0  0  0  0  0
  -11.2477  -38.1405  -11.4998 C   0  0  0  0  0  0  0  0  0  0  0  0
  -11.8349  -37.4755  -12.5514 C   0  0  0  0  0  0  0  0  0  0  0  0
  -13.2039  -37.4915  -12.6628 C   0  0  0  0  0  0  0  0  0  0  0  0
  -13.9792  -38.1766  -11.7114 C   0  0  0  0  0  0  0  0  0  0  0  0
   -9.7576  -38.1084  -11.3877 C   0  0  0  0  0  0  0  0  0  0  0  0
   -9.3498  -37.2711  -10.2058 C   0  0  0  0  0  0  0  0  0  0  0  0
   -9.1635  -37.4592  -12.6420 C   0  0  0  0  0  0  0  0  0  0  0  0
  1  2  1  0
  2  3  1  0
  3  4  1  0
  4  5  1  0
  5  6  2  0
  6  7  1  0
  7  8  1  0
  8  9  1  0
  9 10  1  0
  7 11  2  0
 11 12  1  0
 12 13  2  0
 12 14  1  0
 14 15  2  0
 14 16  1  0
 16 17  1  0
 17 18  1  1
 18 19  1  0
 19 20  2  0
 20 21  1  0
 21 22  2  0
 22 23  1  0
 23 24  2  0
 21 25  1  0
 25 26  1  0
 17 27  1  0
 27 28  1  6
 27 29  1  0
 29 30  1  0
 30 31  1  0
 31 32  1  0
 32 33  1  0
 31 34  1  0
 34 35  2  0
 35 36  1  0
 36 37  2  0
 37 38  1  0
 38 39  2  0
 36 40  1  0
 40 41  1  0
 40 42  1  0
 13  5  1  0
 24 19  1  0
 33 31  1  0
 39 34  1  0
M  END
$$$$
