
     RDKit          3D

 29 30  0  2  0  0  0  0  0  0999 V2000
   17.6566    8.6234   -2.6081 C   0  0  0  0  0  0  0  0  0  0  0  0
   17.2969    8.4054   -1.3023 C   0  0  0  0  0  0  0  0  0  0  0  0
   17.7541    7.2976   -0.6420 C   0  0  0  0  0  0  0  0  0  0  0  0
   18.5932    6.3441   -1.2388 C   0  0  0  0  0  0  0  0  0  0  0  0
   18.9225    6.6077   -2.5417 C   0  0  0  0  0  0  0  0  0  0  0  0
   18.4763    7.7244   -3.2453 C   0  0  0  0  0  0  0  0  0  0  0  0
   19.0298    5.2015   -0.4664 C   0  0  0  0  0  0  0  0  0  0  0  0
   19.2236    5.0963    0.9753 C   0  0  0  0  0  0  0  0  0  0  0  0
   19.2913    4.1109   -1.1147 O   0  0  0  0  0  0  0  0  0  0  0  0
   19.6520    3.8824    1.4802 O   0  0  0  0  0  0  0  0  0  0  0  0
   19.9076    3.7746    2.8535 C   0  0  0  0  0  0  0  0  0  0  0  0
   18.9032    3.7679    3.7704 C   0  0  0  0  0  0  0  0  0  0  0  0
   19.1810    3.6611    5.1103 C   0  0  0  0  0  0  0  0  0  0  0  0
   20.4593    3.5559    5.6099 C   0  0  0  0  0  0  0  0  0  0  0  0
   21.4770    3.5629    4.6779 C   0  0  0  0  0  0  0  0  0  0  0  0
   21.2151    3.6704    3.3159 C   0  0  0  0  0  0  0  0  0  0  0  0
   20.7129    3.4420    7.0368 C   0  0  0  0  0  0  0  0  0  0  0  0
   20.9551    4.7343    7.7672 C   0  0  1  0  0  0  0  0  0  0  0  0
   21.2153    4.5806    9.2072 C   0  0  0  0  0  0  0  0  0  0  0  0
   20.1498    4.6401   10.1261 N   0  0  0  0  0  0  0  0  0  0  0  0
   22.3727    4.3970    9.6333 O   0  0  0  0  0  0  0  0  0  0  0  0
   20.3709    4.4731   11.5520 C   0  0  0  0  0  0  0  0  0  0  0  0
   21.8860    5.5454    7.1350 O   0  0  0  0  0  0  0  0  0  0  0  0
   22.1702    6.7081    7.7994 C   0  0  0  0  0  0  0  0  0  0  0  0
   21.0537    7.6925    7.5162 C   0  0  0  0  0  0  0  0  0  0  0  0
   16.4690    9.2812   -0.6045 O   0  0  0  0  0  0  0  0  0  0  0  0
   16.0833    9.0926    0.7253 C   0  0  0  0  0  0  0  0  0  0  0  0
   18.8920    4.8588    9.6591 O   0  0  0  0  0  0  0  0  0  0  0  0
   18.0690    3.7542    9.8494 C   0  0  0  0  0  0  0  0  0  0  0  0
 26 27  1  0
  2 26  1  0
 28 29  1  0
 20 28  1  0
  1  2  2  0
  2  3  1  0
  3  4  2  0
  4  5  1  0
  5  6  2  0
  6  1  1  0
  4  7  1  0
  7  8  1  0
  7  9  2  0
  8 10  1  0
 10 11  1  0
 11 12  2  0
 12 13  1  0
 13 14  2  0
 14 15  1  0
 15 16  2  0
 16 11  1  0
 14 17  1  0
 18 17  1  6
 18 19  1  0
 19 20  1  0
 19 21  2  0
 20 22  1  0
 18 23  1  0
 23 24  1  0
 24 25  1  0
M  STY  2   1 SUP   2 SUP
M  SLB  2   1   1   2   2
M  SAL   1  2  26  27
M  SBL   1  1   2
M  SMT   1 OCH3
M  SBV   1   2    0.7144    0.4125
M  SAL   2  2  28  29
M  SBL   2  1   4
M  SMT   2 OCH3
M  SBV   2   4   -0.7144   -0.4125
M  END
$$$$
