
     RDKit          3D

 29 30  0  2  0  0  0  0  0  0999 V2000
   23.5875    2.8827    4.8961 C   0  0  0  0  0  0  0  0  0  0  0  0
   22.3211    2.6133    5.3493 C   0  0  0  0  0  0  0  0  0  0  0  0
   21.2435    3.2370    4.7817 C   0  0  0  0  0  0  0  0  0  0  0  0
   21.3609    4.1625    3.7334 C   0  0  0  0  0  0  0  0  0  0  0  0
   22.6448    4.3963    3.3180 C   0  0  0  0  0  0  0  0  0  0  0  0
   23.7650    3.7803    3.8719 C   0  0  0  0  0  0  0  0  0  0  0  0
   20.1677    4.7754    3.1918 C   0  0  0  0  0  0  0  0  0  0  0  0
   19.7579    4.8964    1.7972 C   0  0  0  0  0  0  0  0  0  0  0  0
   19.3319    5.2950    4.0341 O   0  0  0  0  0  0  0  0  0  0  0  0
   18.6072    5.6129    1.5245 O   0  0  0  0  0  0  0  0  0  0  0  0
   18.5221    6.3199    0.3180 C   0  0  0  0  0  0  0  0  0  0  0  0
   17.6818    7.3784    0.1660 C   0  0  0  0  0  0  0  0  0  0  0  0
   17.6177    8.0540   -1.0271 C   0  0  0  0  0  0  0  0  0  0  0  0
   18.3772    7.7198   -2.1254 C   0  0  0  0  0  0  0  0  0  0  0  0
   19.2292    6.6455   -1.9691 C   0  0  0  0  0  0  0  0  0  0  0  0
   19.3079    5.9484   -0.7677 C   0  0  0  0  0  0  0  0  0  0  0  0
   18.2826    8.4619   -3.3718 C   0  0  0  0  0  0  0  0  0  0  0  0
   17.3157    7.9200   -4.3884 C   0  0  1  0  0  0  0  0  0  0  0  0
   16.0119    7.5199   -3.8362 C   0  0  0  0  0  0  0  0  0  0  0  0
   15.1932    8.4732   -3.2004 N   0  0  0  0  0  0  0  0  0  0  0  0
   15.6143    6.3410   -3.9214 O   0  0  0  0  0  0  0  0  0  0  0  0
   13.9891    8.0815   -2.4888 C   0  0  0  0  0  0  0  0  0  0  0  0
   17.2007    8.7294   -5.5091 O   0  0  0  0  0  0  0  0  0  0  0  0
   17.7259    8.1925   -6.6535 C   0  0  0  0  0  0  0  0  0  0  0  0
   16.5798    7.6532   -7.4850 C   0  0  0  0  0  0  0  0  0  0  0  0
   22.0791    1.7133    6.3841 O   0  0  0  0  0  0  0  0  0  0  0  0
   20.8212    1.1746    6.6671 C   0  0  0  0  0  0  0  0  0  0  0  0
   15.5459    9.7847   -3.2595 O   0  0  0  0  0  0  0  0  0  0  0  0
   16.7986    9.9591   -3.8376 C   0  0  0  0  0  0  0  0  0  0  0  0
 26 27  1  0
  2 26  1  0
 28 29  1  0
 20 28  1  0
  1  2  2  0
  2  3  1  0
  3  4  2  0
  4  5  1  0
  5  6  2  0
  6  1  1  0
  4  7  1  0
  7  8  1  0
  7  9  2  0
  8 10  1  0
 10 11  1  0
 11 12  2  0
 12 13  1  0
 13 14  2  0
 14 15  1  0
 15 16  2  0
 16 11  1  0
 14 17  1  0
 18 17  1  1
 18 19  1  0
 19 20  1  0
 19 21  2  0
 20 22  1  0
 18 23  1  0
 23 24  1  0
 24 25  1  0
M  STY  2   1 SUP   2 SUP
M  SLB  2   1   1   2   2
M  SAL   1  2  26  27
M  SBL   1  1   2
M  SMT   1 OCH3
M  SBV   1   2    0.7144    0.4125
M  SAL   2  2  28  29
M  SBL   2  1   4
M  SMT   2 OCH3
M  SBV   2   4   -0.7144   -0.4125
M  END
$$$$
