
     RDKit          3D

 29 30  0  2  0  0  0  0  0  0999 V2000
   16.4746   10.1296    1.9112 C   0  0  0  0  0  0  0  0  0  0  0  0
   17.5057    9.3197    1.5078 C   0  0  0  0  0  0  0  0  0  0  0  0
   17.3311    8.4610    0.4568 C   0  0  0  0  0  0  0  0  0  0  0  0
   16.1249    8.3571   -0.2529 C   0  0  0  0  0  0  0  0  0  0  0  0
   15.1282    9.1860    0.1887 C   0  0  0  0  0  0  0  0  0  0  0  0
   15.2698   10.0722    1.2544 C   0  0  0  0  0  0  0  0  0  0  0  0
   16.0276    7.4217   -1.3522 C   0  0  0  0  0  0  0  0  0  0  0  0
   16.9507    7.2224   -2.4637 C   0  0  0  0  0  0  0  0  0  0  0  0
   14.9925    6.6434   -1.3801 O   0  0  0  0  0  0  0  0  0  0  0  0
   16.4482    6.6662   -3.6256 O   0  0  0  0  0  0  0  0  0  0  0  0
   16.7878    7.2477   -4.8542 C   0  0  0  0  0  0  0  0  0  0  0  0
   16.9730    8.5886   -4.9850 C   0  0  0  0  0  0  0  0  0  0  0  0
   17.3054    9.1327   -6.2006 C   0  0  0  0  0  0  0  0  0  0  0  0
   17.4709    8.3831   -7.3431 C   0  0  0  0  0  0  0  0  0  0  0  0
   17.2824    7.0227   -7.2083 C   0  0  0  0  0  0  0  0  0  0  0  0
   16.9453    6.4530   -5.9847 C   0  0  0  0  0  0  0  0  0  0  0  0
   17.8257    8.9966   -8.6123 C   0  0  0  0  0  0  0  0  0  0  0  0
   16.6943    9.2064   -9.5808 C   0  0  1  0  0  0  0  0  0  0  0  0
   16.0159   10.5057   -9.4528 C   0  0  0  0  0  0  0  0  0  0  0  0
   14.6857   10.6524   -9.8912 N   0  0  0  0  0  0  0  0  0  0  0  0
   16.6024   11.4890   -8.9586 O   0  0  0  0  0  0  0  0  0  0  0  0
   14.0207   11.9436   -9.8704 C   0  0  0  0  0  0  0  0  0  0  0  0
   17.0417    8.9066  -10.8899 O   0  0  0  0  0  0  0  0  0  0  0  0
   17.2282    9.9998  -11.6924 C   0  0  0  0  0  0  0  0  0  0  0  0
   18.6884   10.3958  -11.6100 C   0  0  0  0  0  0  0  0  0  0  0  0
   18.7491    9.3336    2.1347 O   0  0  0  0  0  0  0  0  0  0  0  0
   18.9316    9.6075    3.4928 C   0  0  0  0  0  0  0  0  0  0  0  0
   14.0187    9.5568  -10.3416 O   0  0  0  0  0  0  0  0  0  0  0  0
   12.6856    9.5624   -9.9457 C   0  0  0  0  0  0  0  0  0  0  0  0
 26 27  1  0
  2 26  1  0
 28 29  1  0
 20 28  1  0
  1  2  2  0
  2  3  1  0
  3  4  2  0
  4  5  1  0
  5  6  2  0
  6  1  1  0
  4  7  1  0
  7  8  1  0
  7  9  2  0
  8 10  1  0
 10 11  1  0
 11 12  2  0
 12 13  1  0
 13 14  2  0
 14 15  1  0
 15 16  2  0
 16 11  1  0
 14 17  1  0
 18 17  1  1
 18 19  1  0
 19 20  1  0
 19 21  2  0
 20 22  1  0
 18 23  1  0
 23 24  1  0
 24 25  1  0
M  STY  2   1 SUP   2 SUP
M  SLB  2   1   1   2   2
M  SAL   1  2  26  27
M  SBL   1  1   2
M  SMT   1 OCH3
M  SBV   1   2    0.7144    0.4125
M  SAL   2  2  28  29
M  SBL   2  1   4
M  SMT   2 OCH3
M  SBV   2   4   -0.7144   -0.4125
M  END
$$$$
