
     RDKit          3D

 29 30  0  2  0  0  0  0  0  0999 V2000
   17.5067    9.3332   -9.5018 C   0  0  0  0  0  0  0  0  0  0  0  0
   16.7196    8.2339   -9.2696 C   0  0  0  0  0  0  0  0  0  0  0  0
   16.5772    7.7501   -7.9975 C   0  0  0  0  0  0  0  0  0  0  0  0
   17.2069    8.3287   -6.8848 C   0  0  0  0  0  0  0  0  0  0  0  0
   17.9804    9.4223   -7.1699 C   0  0  0  0  0  0  0  0  0  0  0  0
   18.1485    9.9424   -8.4515 C   0  0  0  0  0  0  0  0  0  0  0  0
   17.0011    7.7518   -5.5743 C   0  0  0  0  0  0  0  0  0  0  0  0
   16.6508    8.4233   -4.3278 C   0  0  0  0  0  0  0  0  0  0  0  0
   17.1395    6.4689   -5.4614 O   0  0  0  0  0  0  0  0  0  0  0  0
   15.8265    7.7510   -3.4444 O   0  0  0  0  0  0  0  0  0  0  0  0
   15.3914    8.4137   -2.2891 C   0  0  0  0  0  0  0  0  0  0  0  0
   14.1576    8.1956   -1.7602 C   0  0  0  0  0  0  0  0  0  0  0  0
   13.7560    8.8583   -0.6272 C   0  0  0  0  0  0  0  0  0  0  0  0
   14.5495    9.7656    0.0376 C   0  0  0  0  0  0  0  0  0  0  0  0
   15.8010    9.9854   -0.5007 C   0  0  0  0  0  0  0  0  0  0  0  0
   16.2256    9.3234   -1.6482 C   0  0  0  0  0  0  0  0  0  0  0  0
   14.0888   10.4457    1.2370 C   0  0  0  0  0  0  0  0  0  0  0  0
   13.6245   11.8642    1.0517 C   0  0  1  0  0  0  0  0  0  0  0  0
   12.7816   12.0792   -0.1350 C   0  0  0  0  0  0  0  0  0  0  0  0
   11.3898   11.8798   -0.0563 N   0  0  0  0  0  0  0  0  0  0  0  0
   13.2814   12.4380   -1.2197 O   0  0  0  0  0  0  0  0  0  0  0  0
   10.5268   12.1111   -1.2015 C   0  0  0  0  0  0  0  0  0  0  0  0
   13.0799   12.4091    2.2053 O   0  0  0  0  0  0  0  0  0  0  0  0
   13.9701   13.1013    2.9813 C   0  0  0  0  0  0  0  0  0  0  0  0
   14.1077   14.4953    2.4037 C   0  0  0  0  0  0  0  0  0  0  0  0
   16.0447    7.5747  -10.2939 O   0  0  0  0  0  0  0  0  0  0  0  0
   15.6778    8.1805  -11.4984 C   0  0  0  0  0  0  0  0  0  0  0  0
   10.8523   11.4619    1.1204 O   0  0  0  0  0  0  0  0  0  0  0  0
   10.4158   12.5285    1.8987 C   0  0  0  0  0  0  0  0  0  0  0  0
 26 27  1  0
  2 26  1  0
 28 29  1  0
 20 28  1  0
  1  2  2  0
  2  3  1  0
  3  4  2  0
  4  5  1  0
  5  6  2  0
  6  1  1  0
  4  7  1  0
  7  8  1  0
  7  9  2  0
  8 10  1  0
 10 11  1  0
 11 12  2  0
 12 13  1  0
 13 14  2  0
 14 15  1  0
 15 16  2  0
 16 11  1  0
 14 17  1  0
 18 17  1  1
 18 19  1  0
 19 20  1  0
 19 21  2  0
 20 22  1  0
 18 23  1  0
 23 24  1  0
 24 25  1  0
M  STY  2   1 SUP   2 SUP
M  SLB  2   1   1   2   2
M  SAL   1  2  26  27
M  SBL   1  1   2
M  SMT   1 OCH3
M  SBV   1   2    0.7144    0.4125
M  SAL   2  2  28  29
M  SBL   2  1   4
M  SMT   2 OCH3
M  SBV   2   4   -0.7144   -0.4125
M  END
$$$$
