
     RDKit          3D

 29 30  0  2  0  0  0  0  0  0999 V2000
   15.8193    8.3941  -11.1199 C   0  0  0  0  0  0  0  0  0  0  0  0
   15.9619    9.7504  -10.9713 C   0  0  0  0  0  0  0  0  0  0  0  0
   15.9364   10.3088   -9.7223 C   0  0  0  0  0  0  0  0  0  0  0  0
   15.7683    9.5543   -8.5511 C   0  0  0  0  0  0  0  0  0  0  0  0
   15.6306    8.2069   -8.7536 C   0  0  0  0  0  0  0  0  0  0  0  0
   15.6515    7.6038  -10.0094 C   0  0  0  0  0  0  0  0  0  0  0  0
   15.7536   10.2270   -7.2705 C   0  0  0  0  0  0  0  0  0  0  0  0
   15.9148    9.6548   -5.9386 C   0  0  0  0  0  0  0  0  0  0  0  0
   15.5752   11.5100   -7.2753 O   0  0  0  0  0  0  0  0  0  0  0  0
   16.5106    8.4109   -5.8405 O   0  0  0  0  0  0  0  0  0  0  0  0
   17.0720    8.0257   -4.6160 C   0  0  0  0  0  0  0  0  0  0  0  0
   17.0325    6.7368   -4.1840 C   0  0  0  0  0  0  0  0  0  0  0  0
   17.5902    6.3861   -2.9798 C   0  0  0  0  0  0  0  0  0  0  0  0
   18.2124    7.2868   -2.1454 C   0  0  0  0  0  0  0  0  0  0  0  0
   18.2513    8.5941   -2.5856 C   0  0  0  0  0  0  0  0  0  0  0  0
   17.6916    8.9687   -3.8028 C   0  0  0  0  0  0  0  0  0  0  0  0
   18.7936    6.8757   -0.8779 C   0  0  0  0  0  0  0  0  0  0  0  0
   17.9781    7.1786    0.3489 C   0  0  1  0  0  0  0  0  0  0  0  0
   16.6004    6.6635    0.3069 C   0  0  0  0  0  0  0  0  0  0  0  0
   15.5238    7.5015    0.6559 N   0  0  0  0  0  0  0  0  0  0  0  0
   16.3660    5.4875   -0.0352 O   0  0  0  0  0  0  0  0  0  0  0  0
   14.1727    6.9836    0.7827 C   0  0  0  0  0  0  0  0  0  0  0  0
   18.6368    6.8598    1.5273 O   0  0  0  0  0  0  0  0  0  0  0  0
   18.8934    7.9298    2.3416 C   0  0  0  0  0  0  0  0  0  0  0  0
   19.6851    8.9452    1.5428 C   0  0  0  0  0  0  0  0  0  0  0  0
   16.1351   10.6020  -12.0595 O   0  0  0  0  0  0  0  0  0  0  0  0
   16.9968   10.3341  -13.1264 C   0  0  0  0  0  0  0  0  0  0  0  0
   15.7643    8.8211    0.8768 O   0  0  0  0  0  0  0  0  0  0  0  0
   15.2735    9.2383    2.1093 C   0  0  0  0  0  0  0  0  0  0  0  0
 26 27  1  0
  2 26  1  0
 28 29  1  0
 20 28  1  0
  1  2  2  0
  2  3  1  0
  3  4  2  0
  4  5  1  0
  5  6  2  0
  6  1  1  0
  4  7  1  0
  7  8  1  0
  7  9  2  0
  8 10  1  0
 10 11  1  0
 11 12  2  0
 12 13  1  0
 13 14  2  0
 14 15  1  0
 15 16  2  0
 16 11  1  0
 14 17  1  0
 18 17  1  6
 18 19  1  0
 19 20  1  0
 19 21  2  0
 20 22  1  0
 18 23  1  0
 23 24  1  0
 24 25  1  0
M  STY  2   1 SUP   2 SUP
M  SLB  2   1   1   2   2
M  SAL   1  2  26  27
M  SBL   1  1   2
M  SMT   1 OCH3
M  SBV   1   2    0.7144    0.4125
M  SAL   2  2  28  29
M  SBL   2  1   4
M  SMT   2 OCH3
M  SBV   2   4   -0.7144   -0.4125
M  END
$$$$
