
     RDKit          3D

 29 30  0  2  0  0  0  0  0  0999 V2000
   16.9714    9.3898  -11.6735 C   0  0  0  0  0  0  0  0  0  0  0  0
   15.6940    8.9798  -11.3870 C   0  0  0  0  0  0  0  0  0  0  0  0
   15.3262    8.7407  -10.0908 C   0  0  0  0  0  0  0  0  0  0  0  0
   16.2037    8.8945   -9.0065 C   0  0  0  0  0  0  0  0  0  0  0  0
   17.4654    9.3050   -9.3457 C   0  0  0  0  0  0  0  0  0  0  0  0
   17.8751    9.5578  -10.6531 C   0  0  0  0  0  0  0  0  0  0  0  0
   15.7307    8.6197   -7.6673 C   0  0  0  0  0  0  0  0  0  0  0  0
   16.5088    8.3523   -6.4630 C   0  0  0  0  0  0  0  0  0  0  0  0
   14.4489    8.6023   -7.4817 O   0  0  0  0  0  0  0  0  0  0  0  0
   16.0600    8.8952   -5.2732 O   0  0  0  0  0  0  0  0  0  0  0  0
   16.6912    8.5210   -4.0796 C   0  0  0  0  0  0  0  0  0  0  0  0
   17.7003    7.6095   -4.0585 C   0  0  0  0  0  0  0  0  0  0  0  0
   18.3018    7.2604   -2.8751 C   0  0  0  0  0  0  0  0  0  0  0  0
   17.9386    7.7917   -1.6584 C   0  0  0  0  0  0  0  0  0  0  0  0
   16.9144    8.7163   -1.6820 C   0  0  0  0  0  0  0  0  0  0  0  0
   16.2927    9.0827   -2.8713 C   0  0  0  0  0  0  0  0  0  0  0  0
   18.6020    7.3979   -0.4263 C   0  0  0  0  0  0  0  0  0  0  0  0
   17.9786    6.2496    0.3186 C   0  0  1  0  0  0  0  0  0  0  0  0
   18.4351    6.1067    1.7101 C   0  0  0  0  0  0  0  0  0  0  0  0
   19.7940    5.8587    1.9841 N   0  0  0  0  0  0  0  0  0  0  0  0
   17.6334    6.2018    2.6606 O   0  0  0  0  0  0  0  0  0  0  0  0
   20.7678    5.7206    0.9153 C   0  0  0  0  0  0  0  0  0  0  0  0
   16.5971    6.2146    0.1985 O   0  0  0  0  0  0  0  0  0  0  0  0
   15.9467    7.2457    0.8211 C   0  0  0  0  0  0  0  0  0  0  0  0
   16.3528    7.2402    2.2809 C   0  0  0  0  0  0  0  0  0  0  0  0
   14.7347    8.7923  -12.3788 O   0  0  0  0  0  0  0  0  0  0  0  0
   14.9801    8.9772  -13.7420 C   0  0  0  0  0  0  0  0  0  0  0  0
   20.1927    5.7482    3.2790 O   0  0  0  0  0  0  0  0  0  0  0  0
   19.8658    4.5087    3.8180 C   0  0  0  0  0  0  0  0  0  0  0  0
 26 27  1  0
  2 26  1  0
 28 29  1  0
 20 28  1  0
  1  2  2  0
  2  3  1  0
  3  4  2  0
  4  5  1  0
  5  6  2  0
  6  1  1  0
  4  7  1  0
  7  8  1  0
  7  9  2  0
  8 10  1  0
 10 11  1  0
 11 12  2  0
 12 13  1  0
 13 14  2  0
 14 15  1  0
 15 16  2  0
 16 11  1  0
 14 17  1  0
 18 17  1  1
 18 19  1  0
 19 20  1  0
 19 21  2  0
 20 22  1  0
 18 23  1  0
 23 24  1  0
 24 25  1  0
M  STY  2   1 SUP   2 SUP
M  SLB  2   1   1   2   2
M  SAL   1  2  26  27
M  SBL   1  1   2
M  SMT   1 OCH3
M  SBV   1   2    0.7144    0.4125
M  SAL   2  2  28  29
M  SBL   2  1   4
M  SMT   2 OCH3
M  SBV   2   4   -0.7144   -0.4125
M  END
$$$$
