
     RDKit          3D

 40 43  0  0  0  0  0  0  0  0999 V2000
  -24.2622  -38.4837   -6.9726 C   0  0  0  0  0  0  0  0  0  0  0  0
  -23.1782  -39.1281   -6.3629 O   0  0  0  0  0  0  0  0  0  0  0  0
  -21.8777  -38.8788   -6.8292 C   0  0  0  0  0  0  0  0  0  0  0  0
  -21.0957  -38.0806   -6.0341 C   0  0  0  0  0  0  0  0  0  0  0  0
  -19.8285  -37.8408   -6.4982 C   0  0  0  0  0  0  0  0  0  0  0  0
  -19.3135  -38.3569   -7.7087 C   0  0  0  0  0  0  0  0  0  0  0  0
  -17.8701  -37.9366   -7.8212 C   0  0  0  0  0  0  0  0  0  0  0  0
  -16.8906  -39.0891   -8.0082 C   0  0  2  0  0  0  0  0  0  0  0  0
  -17.6962  -40.2836   -8.0274 N   0  0  0  0  0  0  0  0  0  0  0  0
  -17.9032  -41.4795   -8.6928 C   0  0  0  0  0  0  0  0  0  0  0  0
  -17.5200  -41.4939   -9.9885 O   0  0  0  0  0  0  0  0  0  0  0  0
  -18.4689  -42.8252   -8.3533 C   0  0  0  0  0  0  0  0  0  0  0  0
  -17.6411  -43.8679   -8.8349 C   0  0  0  0  0  0  0  0  0  0  0  0
  -17.9713  -45.2058   -8.7410 C   0  0  0  0  0  0  0  0  0  0  0  0
  -16.9013  -46.4510   -9.3516 Cl  0  0  0  0  0  0  0  0  0  0  0  0
  -19.1290  -45.4527   -8.1654 N   0  0  0  0  0  0  0  0  0  0  0  0
  -19.9974  -44.4895   -7.6676 C   0  0  0  0  0  0  0  0  0  0  0  0
  -19.6723  -43.1700   -7.7544 C   0  0  0  0  0  0  0  0  0  0  0  0
  -21.1676  -45.1657   -7.1744 N   0  0  0  0  0  0  0  0  0  0  0  0
  -22.5635  -44.8929   -7.4779 C   0  0  0  0  0  0  0  0  0  0  0  0
  -22.7043  -43.9070   -8.6310 C   0  0  0  0  0  0  0  0  0  0  0  0
  -23.0293  -42.5074   -8.2124 C   0  0  0  0  0  0  0  0  0  0  0  0
  -22.4798  -41.4665   -9.1638 C   0  0  0  0  0  0  0  0  0  0  0  0
  -22.3838  -40.1901   -8.6483 O   0  0  0  0  0  0  0  0  0  0  0  0
  -21.3931  -39.4124   -8.0486 C   0  0  0  0  0  0  0  0  0  0  0  0
  -20.1076  -39.1454   -8.4898 C   0  0  0  0  0  0  0  0  0  0  0  0
  -15.8621  -39.1095   -6.9013 C   0  0  2  0  0  0  0  0  0  0  0  0
  -16.3750  -38.1847   -5.8888 O   0  0  0  0  0  0  0  0  0  0  0  0
  -14.5359  -38.5277   -7.1712 C   0  0  0  0  0  0  0  0  0  0  0  0
  -14.0909  -38.2726   -8.4732 N   0  0  0  0  0  0  0  0  0  0  0  0
  -13.3717  -39.3211   -9.1490 C   0  0  0  0  0  0  0  0  0  0  0  0
  -13.2317  -39.1061  -10.5894 C   0  0  0  0  0  0  0  0  0  0  0  0
  -12.5366  -38.0395  -11.1049 C   0  0  0  0  0  0  0  0  0  0  0  0
  -12.4236  -37.8465  -12.4867 C   0  0  0  0  0  0  0  0  0  0  0  0
  -13.0311  -38.7585  -13.3261 C   0  0  0  0  0  0  0  0  0  0  0  0
  -13.7333  -39.8357  -12.8311 C   0  0  0  0  0  0  0  0  0  0  0  0
  -13.8186  -39.9868  -11.4644 C   0  0  0  0  0  0  0  0  0  0  0  0
  -11.6762  -36.7129  -13.0883 C   0  0  0  0  0  0  0  0  0  0  0  0
  -12.6097  -35.8620  -13.9604 C   0  0  0  0  0  0  0  0  0  0  0  0
  -10.6129  -37.2594  -14.0476 C   0  0  0  0  0  0  0  0  0  0  0  0
  1  2  1  0
  2  3  1  0
  3  4  2  0
  4  5  1  0
  5  6  2  0
  6  7  1  0
  8  7  1  1
  8  9  1  0
  9 10  1  0
 10 11  2  0
 10 12  1  0
 12 13  2  0
 13 14  1  0
 14 15  1  0
 14 16  2  0
 16 17  1  0
 17 18  2  0
 17 19  1  0
 19 20  1  0
 20 21  1  0
 21 22  1  0
 22 23  1  0
 23 24  1  0
 24 25  1  0
 25 26  2  0
  8 27  1  0
 27 28  1  1
 27 29  1  0
 29 30  1  0
 30 31  1  0
 31 32  1  0
 32 33  2  0
 33 34  1  0
 34 35  2  0
 35 36  1  0
 36 37  2  0
 34 38  1  0
 38 39  1  0
 38 40  1  0
 18 12  1  0
 25  3  1  0
 26  6  1  0
 37 32  1  0
M  END
$$$$
