
     RDKit          3D

 40 43  0  0  0  0  0  0  0  0999 V2000
  -18.7591  -40.1162  -14.7606 C   0  0  0  0  0  0  0  0  0  0  0  0
  -19.3279  -40.2431  -13.4868 O   0  0  0  0  0  0  0  0  0  0  0  0
  -18.5518  -39.9516  -12.3538 C   0  0  0  0  0  0  0  0  0  0  0  0
  -18.4460  -38.6252  -12.0215 C   0  0  0  0  0  0  0  0  0  0  0  0
  -17.6848  -38.3499  -10.9154 C   0  0  0  0  0  0  0  0  0  0  0  0
  -17.0309  -39.3301  -10.1353 C   0  0  0  0  0  0  0  0  0  0  0  0
  -16.3712  -38.6383   -8.9696 C   0  0  0  0  0  0  0  0  0  0  0  0
  -16.7800  -39.1761   -7.6035 C   0  0  2  0  0  0  0  0  0  0  0  0
  -17.7144  -40.2402   -7.8694 N   0  0  0  0  0  0  0  0  0  0  0  0
  -18.0529  -41.5388   -7.5304 C   0  0  0  0  0  0  0  0  0  0  0  0
  -17.0378  -42.2969   -7.0607 O   0  0  0  0  0  0  0  0  0  0  0  0
  -19.2966  -42.3748   -7.5486 C   0  0  0  0  0  0  0  0  0  0  0  0
  -19.4513  -43.0937   -6.3387 C   0  0  0  0  0  0  0  0  0  0  0  0
  -20.4615  -44.0108   -6.1230 C   0  0  0  0  0  0  0  0  0  0  0  0
  -20.6031  -44.8654   -4.6005 Cl  0  0  0  0  0  0  0  0  0  0  0  0
  -21.2855  -44.1773   -7.1358 N   0  0  0  0  0  0  0  0  0  0  0  0
  -21.2030  -43.5129   -8.3530 C   0  0  0  0  0  0  0  0  0  0  0  0
  -20.2111  -42.6048   -8.5668 C   0  0  0  0  0  0  0  0  0  0  0  0
  -22.2495  -44.0181   -9.2011 N   0  0  0  0  0  0  0  0  0  0  0  0
  -22.1445  -44.5270  -10.5595 C   0  0  0  0  0  0  0  0  0  0  0  0
  -20.6914  -44.7197  -10.9752 C   0  0  0  0  0  0  0  0  0  0  0  0
  -20.1524  -43.6395  -11.8598 C   0  0  0  0  0  0  0  0  0  0  0  0
  -18.6650  -43.4225  -11.6831 C   0  0  0  0  0  0  0  0  0  0  0  0
  -18.1881  -42.2116  -12.1422 O   0  0  0  0  0  0  0  0  0  0  0  0
  -17.9094  -40.9597  -11.5938 C   0  0  0  0  0  0  0  0  0  0  0  0
  -17.1433  -40.6449  -10.4836 C   0  0  0  0  0  0  0  0  0  0  0  0
  -17.3831  -38.0839   -6.7510 C   0  0  2  0  0  0  0  0  0  0  0  0
  -16.5198  -36.9197   -6.9580 O   0  0  0  0  0  0  0  0  0  0  0  0
  -17.3192  -38.2276   -5.2862 C   0  0  0  0  0  0  0  0  0  0  0  0
  -18.4699  -38.2096   -4.4900 N   0  0  0  0  0  0  0  0  0  0  0  0
  -19.0613  -39.4763   -4.1450 C   0  0  0  0  0  0  0  0  0  0  0  0
  -20.3031  -39.7623   -4.8636 C   0  0  0  0  0  0  0  0  0  0  0  0
  -21.0290  -40.9069   -4.6414 C   0  0  0  0  0  0  0  0  0  0  0  0
  -22.2094  -41.1663   -5.3477 C   0  0  0  0  0  0  0  0  0  0  0  0
  -22.6308  -40.2394   -6.2797 C   0  0  0  0  0  0  0  0  0  0  0  0
  -21.9185  -39.0844   -6.5189 C   0  0  0  0  0  0  0  0  0  0  0  0
  -20.7627  -38.8698   -5.8006 C   0  0  0  0  0  0  0  0  0  0  0  0
  -23.0298  -42.3858   -5.1350 C   0  0  0  0  0  0  0  0  0  0  0  0
  -22.8760  -43.3455   -6.3232 C   0  0  0  0  0  0  0  0  0  0  0  0
  -24.5134  -42.0013   -5.1151 C   0  0  0  0  0  0  0  0  0  0  0  0
  1  2  1  0
  2  3  1  0
  3  4  2  0
  4  5  1  0
  5  6  2  0
  6  7  1  0
  8  7  1  6
  8  9  1  0
  9 10  1  0
 10 11  2  0
 10 12  1  0
 12 13  2  0
 13 14  1  0
 14 15  1  0
 14 16  2  0
 16 17  1  0
 17 18  2  0
 17 19  1  0
 19 20  1  0
 20 21  1  0
 21 22  1  0
 22 23  1  0
 23 24  1  0
 24 25  1  0
 25 26  2  0
  8 27  1  0
 27 28  1  1
 27 29  1  0
 29 30  1  0
 30 31  1  0
 31 32  1  0
 32 33  2  0
 33 34  1  0
 34 35  2  0
 35 36  1  0
 36 37  2  0
 34 38  1  0
 38 39  1  0
 38 40  1  0
 18 12  1  0
 25  3  1  0
 26  6  1  0
 37 32  1  0
M  END
$$$$
