
     RDKit          3D

 40 43  0  0  0  0  0  0  0  0999 V2000
  -23.6817  -39.4051   -4.5252 C   0  0  0  0  0  0  0  0  0  0  0  0
  -23.0191  -40.2986   -5.3765 O   0  0  0  0  0  0  0  0  0  0  0  0
  -21.9281  -39.8463   -6.1355 C   0  0  0  0  0  0  0  0  0  0  0  0
  -21.1333  -38.8991   -5.5423 C   0  0  0  0  0  0  0  0  0  0  0  0
  -20.0720  -38.4618   -6.2914 C   0  0  0  0  0  0  0  0  0  0  0  0
  -19.7731  -38.9233   -7.5932 C   0  0  0  0  0  0  0  0  0  0  0  0
  -18.4924  -38.2660   -8.0410 C   0  0  0  0  0  0  0  0  0  0  0  0
  -17.3983  -39.2394   -8.4631 C   0  0  2  0  0  0  0  0  0  0  0  0
  -17.9646  -40.5541   -8.2998 N   0  0  0  0  0  0  0  0  0  0  0  0
  -18.1098  -41.7900   -8.9061 C   0  0  0  0  0  0  0  0  0  0  0  0
  -18.0444  -41.7829  -10.2557 O   0  0  0  0  0  0  0  0  0  0  0  0
  -18.3363  -43.2002   -8.4522 C   0  0  0  0  0  0  0  0  0  0  0  0
  -17.4755  -44.1016   -9.1237 C   0  0  0  0  0  0  0  0  0  0  0  0
  -17.5358  -45.4723   -8.9642 C   0  0  0  0  0  0  0  0  0  0  0  0
  -16.4381  -46.5359   -9.8199 Cl  0  0  0  0  0  0  0  0  0  0  0  0
  -18.4650  -45.8940   -8.1327 N   0  0  0  0  0  0  0  0  0  0  0  0
  -19.3469  -45.0773   -7.4364 C   0  0  0  0  0  0  0  0  0  0  0  0
  -19.2867  -43.7253   -7.5880 C   0  0  0  0  0  0  0  0  0  0  0  0
  -20.2324  -45.9267   -6.6853 N   0  0  0  0  0  0  0  0  0  0  0  0
  -21.6862  -45.9077   -6.6477 C   0  0  0  0  0  0  0  0  0  0  0  0
  -22.2631  -45.0006   -7.7274 C   0  0  0  0  0  0  0  0  0  0  0  0
  -22.7201  -43.6638   -7.2335 C   0  0  0  0  0  0  0  0  0  0  0  0
  -22.5993  -42.5774   -8.2803 C   0  0  0  0  0  0  0  0  0  0  0  0
  -22.6095  -41.2865   -7.7927 O   0  0  0  0  0  0  0  0  0  0  0  0
  -21.6573  -40.3305   -7.4389 C   0  0  0  0  0  0  0  0  0  0  0  0
  -20.5779  -39.8625   -8.1699 C   0  0  0  0  0  0  0  0  0  0  0  0
  -16.1517  -39.0453   -7.6313 C   0  0  2  0  0  0  0  0  0  0  0  0
  -16.1133  -37.6126   -7.3325 O   0  0  0  0  0  0  0  0  0  0  0  0
  -14.8434  -39.2348   -8.2814 C   0  0  0  0  0  0  0  0  0  0  0  0
  -14.6762  -40.0979   -9.3701 N   0  0  0  0  0  0  0  0  0  0  0  0
  -15.1369  -39.6445  -10.6567 C   0  0  0  0  0  0  0  0  0  0  0  0
  -14.6147  -38.3330  -11.0412 C   0  0  0  0  0  0  0  0  0  0  0  0
  -15.4399  -37.2876  -11.3767 C   0  0  0  0  0  0  0  0  0  0  0  0
  -14.9192  -36.0436  -11.7519 C   0  0  0  0  0  0  0  0  0  0  0  0
  -13.5476  -35.8897  -11.7778 C   0  0  0  0  0  0  0  0  0  0  0  0
  -12.7010  -36.9246  -11.4451 C   0  0  0  0  0  0  0  0  0  0  0  0
  -13.2569  -38.1316  -11.0816 C   0  0  0  0  0  0  0  0  0  0  0  0
  -15.7727  -34.8838  -12.1150 C   0  0  0  0  0  0  0  0  0  0  0  0
  -15.0834  -33.5703  -11.7201 C   0  0  0  0  0  0  0  0  0  0  0  0
  -17.0639  -34.9270  -11.2901 C   0  0  0  0  0  0  0  0  0  0  0  0
  1  2  1  0
  2  3  1  0
  3  4  2  0
  4  5  1  0
  5  6  2  0
  6  7  1  0
  8  7  1  1
  8  9  1  0
  9 10  1  0
 10 11  2  0
 10 12  1  0
 12 13  2  0
 13 14  1  0
 14 15  1  0
 14 16  2  0
 16 17  1  0
 17 18  2  0
 17 19  1  0
 19 20  1  0
 20 21  1  0
 21 22  1  0
 22 23  1  0
 23 24  1  0
 24 25  1  0
 25 26  2  0
  8 27  1  0
 27 28  1  6
 27 29  1  0
 29 30  1  0
 30 31  1  0
 31 32  1  0
 32 33  2  0
 33 34  1  0
 34 35  2  0
 35 36  1  0
 36 37  2  0
 34 38  1  0
 38 39  1  0
 38 40  1  0
 18 12  1  0
 25  3  1  0
 26  6  1  0
 37 32  1  0
M  END
$$$$
