
     RDKit          3D

 40 43  0  0  0  0  0  0  0  0999 V2000
  -24.2866  -38.6254   -4.3499 C   0  0  0  0  0  0  0  0  0  0  0  0
  -23.5612  -39.7192   -4.8392 O   0  0  0  0  0  0  0  0  0  0  0  0
  -22.4948  -39.4978   -5.7252 C   0  0  0  0  0  0  0  0  0  0  0  0
  -21.5772  -38.5545   -5.3391 C   0  0  0  0  0  0  0  0  0  0  0  0
  -20.5410  -38.3434   -6.2111 C   0  0  0  0  0  0  0  0  0  0  0  0
  -20.3827  -39.0250   -7.4388 C   0  0  0  0  0  0  0  0  0  0  0  0
  -19.0865  -38.5734   -8.0621 C   0  0  0  0  0  0  0  0  0  0  0  0
  -18.1172  -39.7029   -8.3898 C   0  0  2  0  0  0  0  0  0  0  0  0
  -18.7833  -40.9150   -7.9858 N   0  0  0  0  0  0  0  0  0  0  0  0
  -19.0820  -42.2084   -8.3782 C   0  0  0  0  0  0  0  0  0  0  0  0
  -19.1181  -42.4135   -9.7133 O   0  0  0  0  0  0  0  0  0  0  0  0
  -19.3970  -43.5036   -7.6933 C   0  0  0  0  0  0  0  0  0  0  0  0
  -18.6719  -44.5773   -8.2641 C   0  0  0  0  0  0  0  0  0  0  0  0
  -18.8405  -45.8950   -7.8856 C   0  0  0  0  0  0  0  0  0  0  0  0
  -17.9084  -47.1798   -8.6265 Cl  0  0  0  0  0  0  0  0  0  0  0  0
  -19.7380  -46.0912   -6.9430 N   0  0  0  0  0  0  0  0  0  0  0  0
  -20.4897  -45.0949   -6.3330 C   0  0  0  0  0  0  0  0  0  0  0  0
  -20.3222  -43.7945   -6.7007 C   0  0  0  0  0  0  0  0  0  0  0  0
  -21.3874  -45.7283   -5.4043 N   0  0  0  0  0  0  0  0  0  0  0  0
  -22.8269  -45.5603   -5.2821 C   0  0  0  0  0  0  0  0  0  0  0  0
  -23.4013  -44.7759   -6.4552 C   0  0  0  0  0  0  0  0  0  0  0  0
  -23.7004  -43.3410   -6.1529 C   0  0  0  0  0  0  0  0  0  0  0  0
  -23.5635  -42.4441   -7.3644 C   0  0  0  0  0  0  0  0  0  0  0  0
  -23.4232  -41.0993   -7.0883 O   0  0  0  0  0  0  0  0  0  0  0  0
  -22.3666  -40.1993   -6.9491 C   0  0  0  0  0  0  0  0  0  0  0  0
  -21.3082  -39.9571   -7.8092 C   0  0  0  0  0  0  0  0  0  0  0  0
  -16.7994  -39.5084   -7.6765 C   0  0  2  0  0  0  0  0  0  0  0  0
  -16.3310  -38.1866   -8.0970 O   0  0  0  0  0  0  0  0  0  0  0  0
  -15.6600  -40.3531   -8.0746 C   0  0  0  0  0  0  0  0  0  0  0  0
  -14.3636  -40.1170   -7.6033 N   0  0  0  0  0  0  0  0  0  0  0  0
  -13.7420  -38.8683   -7.9602 C   0  0  0  0  0  0  0  0  0  0  0  0
  -13.6618  -38.6410   -9.4032 C   0  0  0  0  0  0  0  0  0  0  0  0
  -13.9591  -37.4254   -9.9691 C   0  0  0  0  0  0  0  0  0  0  0  0
  -13.8862  -37.2321  -11.3536 C   0  0  0  0  0  0  0  0  0  0  0  0
  -13.5061  -38.2985  -12.1435 C   0  0  0  0  0  0  0  0  0  0  0  0
  -13.2032  -39.5267  -11.5974 C   0  0  0  0  0  0  0  0  0  0  0  0
  -13.2882  -39.6718  -10.2300 C   0  0  0  0  0  0  0  0  0  0  0  0
  -14.1909  -35.9343  -12.0080 C   0  0  0  0  0  0  0  0  0  0  0  0
  -13.5786  -34.7767  -11.2070 C   0  0  0  0  0  0  0  0  0  0  0  0
  -15.7043  -35.6932  -11.9748 C   0  0  0  0  0  0  0  0  0  0  0  0
  1  2  1  0
  2  3  1  0
  3  4  2  0
  4  5  1  0
  5  6  2  0
  6  7  1  0
  8  7  1  1
  8  9  1  0
  9 10  1  0
 10 11  2  0
 10 12  1  0
 12 13  2  0
 13 14  1  0
 14 15  1  0
 14 16  2  0
 16 17  1  0
 17 18  2  0
 17 19  1  0
 19 20  1  0
 20 21  1  0
 21 22  1  0
 22 23  1  0
 23 24  1  0
 24 25  1  0
 25 26  2  0
  8 27  1  0
 27 28  1  6
 27 29  1  0
 29 30  1  0
 30 31  1  0
 31 32  1  0
 32 33  2  0
 33 34  1  0
 34 35  2  0
 35 36  1  0
 36 37  2  0
 34 38  1  0
 38 39  1  0
 38 40  1  0
 18 12  1  0
 25  3  1  0
 26  6  1  0
 37 32  1  0
M  END
$$$$
