
     RDKit          3D

 40 43  0  0  0  0  0  0  0  0999 V2000
  -22.8688  -37.9726   -3.9094 C   0  0  0  0  0  0  0  0  0  0  0  0
  -22.5221  -38.9176   -4.8835 O   0  0  0  0  0  0  0  0  0  0  0  0
  -21.5030  -38.6184   -5.8016 C   0  0  0  0  0  0  0  0  0  0  0  0
  -20.4855  -37.8262   -5.3348 C   0  0  0  0  0  0  0  0  0  0  0  0
  -19.4963  -37.5375   -6.2385 C   0  0  0  0  0  0  0  0  0  0  0  0
  -19.4789  -37.9995   -7.5739 C   0  0  0  0  0  0  0  0  0  0  0  0
  -18.1942  -37.5373   -8.2132 C   0  0  0  0  0  0  0  0  0  0  0  0
  -17.3476  -38.6564   -8.8077 C   0  0  2  0  0  0  0  0  0  0  0  0
  -18.0844  -39.8707   -8.5655 N   0  0  0  0  0  0  0  0  0  0  0  0
  -18.5165  -41.0492   -9.1490 C   0  0  0  0  0  0  0  0  0  0  0  0
  -18.6594  -41.0107  -10.4921 O   0  0  0  0  0  0  0  0  0  0  0  0
  -18.8923  -42.4200   -8.6738 C   0  0  0  0  0  0  0  0  0  0  0  0
  -18.3001  -43.4238   -9.4776 C   0  0  0  0  0  0  0  0  0  0  0  0
  -18.5529  -44.7724   -9.3189 C   0  0  0  0  0  0  0  0  0  0  0  0
  -17.7840  -45.9678  -10.3427 Cl  0  0  0  0  0  0  0  0  0  0  0  0
  -19.3982  -45.0690   -8.3545 N   0  0  0  0  0  0  0  0  0  0  0  0
  -20.0207  -44.1462   -7.5234 C   0  0  0  0  0  0  0  0  0  0  0  0
  -19.7697  -42.8163   -7.6743 C   0  0  0  0  0  0  0  0  0  0  0  0
  -20.9039  -44.8693   -6.6477 N   0  0  0  0  0  0  0  0  0  0  0  0
  -22.3127  -44.6241   -6.3823 C   0  0  0  0  0  0  0  0  0  0  0  0
  -22.8969  -43.6049   -7.3525 C   0  0  0  0  0  0  0  0  0  0  0  0
  -23.0533  -42.2290   -6.7848 C   0  0  0  0  0  0  0  0  0  0  0  0
  -22.9234  -41.1431   -7.8310 C   0  0  0  0  0  0  0  0  0  0  0  0
  -22.6524  -39.8822   -7.3401 O   0  0  0  0  0  0  0  0  0  0  0  0
  -21.5169  -39.0985   -7.1343 C   0  0  0  0  0  0  0  0  0  0  0  0
  -20.5023  -38.7828   -8.0228 C   0  0  0  0  0  0  0  0  0  0  0  0
  -15.9730  -38.6858   -8.1807 C   0  0  2  0  0  0  0  0  0  0  0  0
  -15.7538  -37.3269   -7.6817 O   0  0  0  0  0  0  0  0  0  0  0  0
  -14.8070  -38.8549   -9.0650 C   0  0  0  0  0  0  0  0  0  0  0  0
  -13.9424  -39.9491   -8.9485 N   0  0  0  0  0  0  0  0  0  0  0  0
  -13.9523  -40.9220  -10.0099 C   0  0  0  0  0  0  0  0  0  0  0  0
  -13.4396  -40.4121  -11.2817 C   0  0  0  0  0  0  0  0  0  0  0  0
  -13.1308  -39.0866  -11.4663 C   0  0  0  0  0  0  0  0  0  0  0  0
  -12.6513  -38.6174  -12.6949 C   0  0  0  0  0  0  0  0  0  0  0  0
  -12.4948  -39.5233  -13.7247 C   0  0  0  0  0  0  0  0  0  0  0  0
  -12.7981  -40.8575  -13.5618 C   0  0  0  0  0  0  0  0  0  0  0  0
  -13.2668  -41.2753  -12.3356 C   0  0  0  0  0  0  0  0  0  0  0  0
  -12.2978  -37.1956  -12.9375 C   0  0  0  0  0  0  0  0  0  0  0  0
  -11.4298  -36.6591  -11.7907 C   0  0  0  0  0  0  0  0  0  0  0  0
  -13.5727  -36.3450  -12.9118 C   0  0  0  0  0  0  0  0  0  0  0  0
  1  2  1  0
  2  3  1  0
  3  4  2  0
  4  5  1  0
  5  6  2  0
  6  7  1  0
  8  7  1  1
  8  9  1  0
  9 10  1  0
 10 11  2  0
 10 12  1  0
 12 13  2  0
 13 14  1  0
 14 15  1  0
 14 16  2  0
 16 17  1  0
 17 18  2  0
 17 19  1  0
 19 20  1  0
 20 21  1  0
 21 22  1  0
 22 23  1  0
 23 24  1  0
 24 25  1  0
 25 26  2  0
  8 27  1  0
 27 28  1  6
 27 29  1  0
 29 30  1  0
 30 31  1  0
 31 32  1  0
 32 33  2  0
 33 34  1  0
 34 35  2  0
 35 36  1  0
 36 37  2  0
 34 38  1  0
 38 39  1  0
 38 40  1  0
 18 12  1  0
 25  3  1  0
 26  6  1  0
 37 32  1  0
M  END
$$$$
