
     RDKit          3D

 40 43  0  0  0  0  0  0  0  0999 V2000
  -21.0213  -39.7612  -14.3839 C   0  0  0  0  0  0  0  0  0  0  0  0
  -21.2162  -39.9015  -13.0040 O   0  0  0  0  0  0  0  0  0  0  0  0
  -20.1326  -39.7100  -12.1322 C   0  0  0  0  0  0  0  0  0  0  0  0
  -20.0325  -38.4678  -11.5597 C   0  0  0  0  0  0  0  0  0  0  0  0
  -18.9705  -38.2892  -10.7120 C   0  0  0  0  0  0  0  0  0  0  0  0
  -18.0136  -39.2856  -10.4143 C   0  0  0  0  0  0  0  0  0  0  0  0
  -17.0615  -38.7293   -9.3864 C   0  0  0  0  0  0  0  0  0  0  0  0
  -16.9425  -39.5667   -8.1186 C   0  0  2  0  0  0  0  0  0  0  0  0
  -17.8198  -40.6929   -8.3139 N   0  0  0  0  0  0  0  0  0  0  0  0
  -17.9155  -42.0680   -8.1879 C   0  0  0  0  0  0  0  0  0  0  0  0
  -16.7421  -42.7362   -8.2391 O   0  0  0  0  0  0  0  0  0  0  0  0
  -19.0190  -43.0658   -8.0073 C   0  0  0  0  0  0  0  0  0  0  0  0
  -18.6987  -44.0114   -7.0034 C   0  0  0  0  0  0  0  0  0  0  0  0
  -19.4979  -45.0956   -6.6973 C   0  0  0  0  0  0  0  0  0  0  0  0
  -19.0493  -46.2288   -5.4391 Cl  0  0  0  0  0  0  0  0  0  0  0  0
  -20.5967  -45.1954   -7.4150 N   0  0  0  0  0  0  0  0  0  0  0  0
  -20.9827  -44.3124   -8.4155 C   0  0  0  0  0  0  0  0  0  0  0  0
  -20.1992  -43.2399   -8.7162 C   0  0  0  0  0  0  0  0  0  0  0  0
  -22.2068  -44.8053   -8.9884 N   0  0  0  0  0  0  0  0  0  0  0  0
  -22.5211  -45.0318  -10.3902 C   0  0  0  0  0  0  0  0  0  0  0  0
  -21.2806  -44.9204  -11.2679 C   0  0  0  0  0  0  0  0  0  0  0  0
  -21.1613  -43.6257  -12.0092 C   0  0  0  0  0  0  0  0  0  0  0  0
  -19.7243  -43.2210  -12.2580 C   0  0  0  0  0  0  0  0  0  0  0  0
  -19.5318  -41.8878  -12.5577 O   0  0  0  0  0  0  0  0  0  0  0  0
  -19.1908  -40.7315  -11.8559 C   0  0  0  0  0  0  0  0  0  0  0  0
  -18.1261  -40.5146  -10.9970 C   0  0  0  0  0  0  0  0  0  0  0  0
  -17.3139  -38.7562   -6.8985 C   0  0  2  0  0  0  0  0  0  0  0  0
  -16.9301  -37.3814   -7.2242 O   0  0  0  0  0  0  0  0  0  0  0  0
  -16.5525  -38.9769   -5.6569 C   0  0  0  0  0  0  0  0  0  0  0  0
  -16.9196  -39.9572   -4.7281 N   0  0  0  0  0  0  0  0  0  0  0  0
  -18.0070  -39.6542   -3.8341 C   0  0  0  0  0  0  0  0  0  0  0  0
  -19.2260  -40.4148   -4.1097 C   0  0  0  0  0  0  0  0  0  0  0  0
  -20.0960  -40.0625   -5.1125 C   0  0  0  0  0  0  0  0  0  0  0  0
  -21.2626  -40.7980   -5.3526 C   0  0  0  0  0  0  0  0  0  0  0  0
  -21.5213  -41.8932   -4.5532 C   0  0  0  0  0  0  0  0  0  0  0  0
  -20.6626  -42.2648   -3.5417 C   0  0  0  0  0  0  0  0  0  0  0  0
  -19.5261  -41.5123   -3.3410 C   0  0  0  0  0  0  0  0  0  0  0  0
  -22.2273  -40.4588   -6.4296 C   0  0  0  0  0  0  0  0  0  0  0  0
  -22.6197  -38.9771   -6.3463 C   0  0  0  0  0  0  0  0  0  0  0  0
  -23.5298  -41.2354   -6.2061 C   0  0  0  0  0  0  0  0  0  0  0  0
  1  2  1  0
  2  3  1  0
  3  4  2  0
  4  5  1  0
  5  6  2  0
  6  7  1  0
  8  7  1  6
  8  9  1  0
  9 10  1  0
 10 11  2  0
 10 12  1  0
 12 13  2  0
 13 14  1  0
 14 15  1  0
 14 16  2  0
 16 17  1  0
 17 18  2  0
 17 19  1  0
 19 20  1  0
 20 21  1  0
 21 22  1  0
 22 23  1  0
 23 24  1  0
 24 25  1  0
 25 26  2  0
  8 27  1  0
 27 28  1  6
 27 29  1  0
 29 30  1  0
 30 31  1  0
 31 32  1  0
 32 33  2  0
 33 34  1  0
 34 35  2  0
 35 36  1  0
 36 37  2  0
 34 38  1  0
 38 39  1  0
 38 40  1  0
 18 12  1  0
 25  3  1  0
 26  6  1  0
 37 32  1  0
M  END
$$$$
