
     RDKit          3D

 40 43  0  0  0  0  0  0  0  0999 V2000
  -15.7730  -35.7767  -14.0883 C   0  0  0  0  0  0  0  0  0  0  0  0
  -16.7900  -36.2129  -13.2295 O   0  0  0  0  0  0  0  0  0  0  0  0
  -16.4489  -36.8205  -12.0107 C   0  0  0  0  0  0  0  0  0  0  0  0
  -16.0570  -35.9743  -11.0050 C   0  0  0  0  0  0  0  0  0  0  0  0
  -15.7238  -36.5763   -9.8196 C   0  0  0  0  0  0  0  0  0  0  0  0
  -15.7635  -37.9713   -9.5967 C   0  0  0  0  0  0  0  0  0  0  0  0
  -15.4074  -38.2259   -8.1542 C   0  0  0  0  0  0  0  0  0  0  0  0
  -16.4497  -39.0227   -7.3786 C   0  0  2  0  0  0  0  0  0  0  0  0
  -17.5027  -39.3043   -8.3209 N   0  0  0  0  0  0  0  0  0  0  0  0
  -18.3409  -40.2994   -8.7935 C   0  0  0  0  0  0  0  0  0  0  0  0
  -17.8784  -41.5610   -8.6501 O   0  0  0  0  0  0  0  0  0  0  0  0
  -19.6829  -40.3617   -9.4576 C   0  0  0  0  0  0  0  0  0  0  0  0
  -20.5034  -41.3534   -8.8681 C   0  0  0  0  0  0  0  0  0  0  0  0
  -21.7565  -41.6855   -9.3450 C   0  0  0  0  0  0  0  0  0  0  0  0
  -22.7270  -42.9194   -8.5677 Cl  0  0  0  0  0  0  0  0  0  0  0  0
  -22.1446  -41.0082  -10.4048 N   0  0  0  0  0  0  0  0  0  0  0  0
  -21.4015  -40.0220  -11.0412 C   0  0  0  0  0  0  0  0  0  0  0  0
  -20.1678  -39.6891  -10.5705 C   0  0  0  0  0  0  0  0  0  0  0  0
  -22.1534  -39.5731  -12.1826 N   0  0  0  0  0  0  0  0  0  0  0  0
  -21.7136  -39.4534  -13.5637 C   0  0  0  0  0  0  0  0  0  0  0  0
  -20.3558  -40.1104  -13.7785 C   0  0  0  0  0  0  0  0  0  0  0  0
  -19.2079  -39.1522  -13.8429 C   0  0  0  0  0  0  0  0  0  0  0  0
  -17.9122  -39.7526  -13.3415 C   0  0  0  0  0  0  0  0  0  0  0  0
  -16.9368  -38.8406  -12.9935 O   0  0  0  0  0  0  0  0  0  0  0  0
  -16.4999  -38.2234  -11.8213 C   0  0  0  0  0  0  0  0  0  0  0  0
  -16.1513  -38.7986  -10.6105 C   0  0  0  0  0  0  0  0  0  0  0  0
  -16.9451  -38.2440   -6.1820 C   0  0  2  0  0  0  0  0  0  0  0  0
  -16.1548  -38.7386   -5.0531 O   0  0  0  0  0  0  0  0  0  0  0  0
  -18.3146  -38.4988   -5.7030 C   0  0  0  0  0  0  0  0  0  0  0  0
  -18.6372  -39.6365   -4.9546 N   0  0  0  0  0  0  0  0  0  0  0  0
  -19.7772  -39.5566   -4.0787 C   0  0  0  0  0  0  0  0  0  0  0  0
  -20.7987  -40.5691   -4.3471 C   0  0  0  0  0  0  0  0  0  0  0  0
  -20.4952  -41.9051   -4.4453 C   0  0  0  0  0  0  0  0  0  0  0  0
  -21.4864  -42.8566   -4.7132 C   0  0  0  0  0  0  0  0  0  0  0  0
  -22.7852  -42.4191   -4.8781 C   0  0  0  0  0  0  0  0  0  0  0  0
  -23.1124  -41.0840   -4.7837 C   0  0  0  0  0  0  0  0  0  0  0  0
  -22.1051  -40.1824   -4.5184 C   0  0  0  0  0  0  0  0  0  0  0  0
  -21.2059  -44.3110   -4.8205 C   0  0  0  0  0  0  0  0  0  0  0  0
  -20.1354  -44.5699   -5.8899 C   0  0  0  0  0  0  0  0  0  0  0  0
  -22.4614  -45.0335   -5.3216 C   0  0  0  0  0  0  0  0  0  0  0  0
  1  2  1  0
  2  3  1  0
  3  4  2  0
  4  5  1  0
  5  6  2  0
  6  7  1  0
  8  7  1  6
  8  9  1  0
  9 10  1  0
 10 11  2  0
 10 12  1  0
 12 13  2  0
 13 14  1  0
 14 15  1  0
 14 16  2  0
 16 17  1  0
 17 18  2  0
 17 19  1  0
 19 20  1  0
 20 21  1  0
 21 22  1  0
 22 23  1  0
 23 24  1  0
 24 25  1  0
 25 26  2  0
  8 27  1  0
 27 28  1  1
 27 29  1  0
 29 30  1  0
 30 31  1  0
 31 32  1  0
 32 33  2  0
 33 34  1  0
 34 35  2  0
 35 36  1  0
 36 37  2  0
 34 38  1  0
 38 39  1  0
 38 40  1  0
 18 12  1  0
 25  3  1  0
 26  6  1  0
 37 32  1  0
M  END
$$$$
