
     RDKit          3D

 40 43  0  0  0  0  0  0  0  0999 V2000
  -24.2185  -37.6631   -6.3992 C   0  0  0  0  0  0  0  0  0  0  0  0
  -23.2244  -38.5951   -6.0749 O   0  0  0  0  0  0  0  0  0  0  0  0
  -22.0167  -38.5913   -6.7908 C   0  0  0  0  0  0  0  0  0  0  0  0
  -21.0983  -37.6437   -6.4172 C   0  0  0  0  0  0  0  0  0  0  0  0
  -19.9233  -37.6460   -7.1228 C   0  0  0  0  0  0  0  0  0  0  0  0
  -19.6284  -38.5427   -8.1745 C   0  0  0  0  0  0  0  0  0  0  0  0
  -18.2174  -38.2780   -8.6345 C   0  0  0  0  0  0  0  0  0  0  0  0
  -17.3035  -39.4971   -8.5992 C   0  0  2  0  0  0  0  0  0  0  0  0
  -18.1215  -40.5812   -8.1179 N   0  0  0  0  0  0  0  0  0  0  0  0
  -18.4583  -41.9063   -8.3339 C   0  0  0  0  0  0  0  0  0  0  0  0
  -18.2989  -42.3438   -9.6024 O   0  0  0  0  0  0  0  0  0  0  0  0
  -18.9821  -43.0405   -7.5062 C   0  0  0  0  0  0  0  0  0  0  0  0
  -18.2654  -44.2353   -7.7579 C   0  0  0  0  0  0  0  0  0  0  0  0
  -18.5984  -45.4538   -7.1990 C   0  0  0  0  0  0  0  0  0  0  0  0
  -17.6681  -46.8971   -7.5454 Cl  0  0  0  0  0  0  0  0  0  0  0  0
  -19.6468  -45.4316   -6.4035 N   0  0  0  0  0  0  0  0  0  0  0  0
  -20.4022  -44.3046   -6.1054 C   0  0  0  0  0  0  0  0  0  0  0  0
  -20.0735  -43.1010   -6.6511 C   0  0  0  0  0  0  0  0  0  0  0  0
  -21.4843  -44.7144   -5.2505 N   0  0  0  0  0  0  0  0  0  0  0  0
  -22.9065  -44.4521   -5.4050 C   0  0  0  0  0  0  0  0  0  0  0  0
  -23.2220  -43.8600   -6.7729 C   0  0  0  0  0  0  0  0  0  0  0  0
  -23.4476  -42.3805   -6.7698 C   0  0  0  0  0  0  0  0  0  0  0  0
  -23.0480  -41.7222   -8.0728 C   0  0  0  0  0  0  0  0  0  0  0  0
  -22.8444  -40.3590   -8.0052 O   0  0  0  0  0  0  0  0  0  0  0  0
  -21.7535  -39.5053   -7.8405 C   0  0  0  0  0  0  0  0  0  0  0  0
  -20.5561  -39.4760   -8.5361 C   0  0  0  0  0  0  0  0  0  0  0  0
  -16.1040  -39.2481   -7.7147 C   0  0  2  0  0  0  0  0  0  0  0  0
  -16.2349  -37.8563   -7.2796 O   0  0  0  0  0  0  0  0  0  0  0  0
  -14.7699  -39.2259   -8.3392 C   0  0  0  0  0  0  0  0  0  0  0  0
  -13.7290  -40.0466   -7.8904 N   0  0  0  0  0  0  0  0  0  0  0  0
  -12.5081  -40.0514   -8.6535 C   0  0  0  0  0  0  0  0  0  0  0  0
  -12.7040  -40.3252  -10.0773 C   0  0  0  0  0  0  0  0  0  0  0  0
  -12.3166  -41.5102  -10.6536 C   0  0  0  0  0  0  0  0  0  0  0  0
  -12.5037  -41.7477  -12.0204 C   0  0  0  0  0  0  0  0  0  0  0  0
  -13.0903  -40.7570  -12.7820 C   0  0  0  0  0  0  0  0  0  0  0  0
  -13.4866  -39.5607  -12.2249 C   0  0  0  0  0  0  0  0  0  0  0  0
  -13.2834  -39.3699  -10.8757 C   0  0  0  0  0  0  0  0  0  0  0  0
  -12.1078  -43.0158  -12.6843 C   0  0  0  0  0  0  0  0  0  0  0  0
  -13.0014  -43.2804  -13.9040 C   0  0  0  0  0  0  0  0  0  0  0  0
  -12.3659  -44.1885  -11.7317 C   0  0  0  0  0  0  0  0  0  0  0  0
  1  2  1  0
  2  3  1  0
  3  4  2  0
  4  5  1  0
  5  6  2  0
  6  7  1  0
  8  7  1  1
  8  9  1  0
  9 10  1  0
 10 11  2  0
 10 12  1  0
 12 13  2  0
 13 14  1  0
 14 15  1  0
 14 16  2  0
 16 17  1  0
 17 18  2  0
 17 19  1  0
 19 20  1  0
 20 21  1  0
 21 22  1  0
 22 23  1  0
 23 24  1  0
 24 25  1  0
 25 26  2  0
  8 27  1  0
 27 28  1  6
 27 29  1  0
 29 30  1  0
 30 31  1  0
 31 32  1  0
 32 33  2  0
 33 34  1  0
 34 35  2  0
 35 36  1  0
 36 37  2  0
 34 38  1  0
 38 39  1  0
 38 40  1  0
 18 12  1  0
 25  3  1  0
 26  6  1  0
 37 32  1  0
M  END
$$$$
