
     RDKit          3D

 40 43  0  0  0  0  0  0  0  0999 V2000
  -22.9086  -40.0492   -2.9520 C   0  0  0  0  0  0  0  0  0  0  0  0
  -21.9354  -40.7936   -3.6308 O   0  0  0  0  0  0  0  0  0  0  0  0
  -21.2295  -40.2010   -4.6898 C   0  0  0  0  0  0  0  0  0  0  0  0
  -20.3666  -39.1913   -4.3479 C   0  0  0  0  0  0  0  0  0  0  0  0
  -19.6835  -38.6173   -5.3883 C   0  0  0  0  0  0  0  0  0  0  0  0
  -19.8230  -39.0024   -6.7408 C   0  0  0  0  0  0  0  0  0  0  0  0
  -18.8493  -38.1952   -7.5610 C   0  0  0  0  0  0  0  0  0  0  0  0
  -17.8907  -39.0291   -8.4026 C   0  0  2  0  0  0  0  0  0  0  0  0
  -18.2397  -40.4025   -8.1417 N   0  0  0  0  0  0  0  0  0  0  0  0
  -18.4759  -41.6274   -8.7416 C   0  0  0  0  0  0  0  0  0  0  0  0
  -18.8927  -41.5712  -10.0257 O   0  0  0  0  0  0  0  0  0  0  0  0
  -18.3971  -43.0673   -8.3338 C   0  0  0  0  0  0  0  0  0  0  0  0
  -17.7504  -43.8476   -9.3225 C   0  0  0  0  0  0  0  0  0  0  0  0
  -17.6245  -45.2209   -9.2451 C   0  0  0  0  0  0  0  0  0  0  0  0
  -16.8076  -46.1307  -10.4995 Cl  0  0  0  0  0  0  0  0  0  0  0  0
  -18.1570  -45.7676   -8.1727 N   0  0  0  0  0  0  0  0  0  0  0  0
  -18.8068  -45.0745   -7.1592 C   0  0  0  0  0  0  0  0  0  0  0  0
  -18.9283  -43.7201   -7.2304 C   0  0  0  0  0  0  0  0  0  0  0  0
  -19.2879  -46.0388   -6.2060 N   0  0  0  0  0  0  0  0  0  0  0  0
  -20.6297  -46.1805   -5.6633 C   0  0  0  0  0  0  0  0  0  0  0  0
  -21.6315  -45.3089   -6.4104 C   0  0  0  0  0  0  0  0  0  0  0  0
  -22.0050  -44.0464   -5.6989 C   0  0  0  0  0  0  0  0  0  0  0  0
  -22.3621  -42.9213   -6.6461 C   0  0  0  0  0  0  0  0  0  0  0  0
  -22.3175  -41.6550   -6.0994 O   0  0  0  0  0  0  0  0  0  0  0  0
  -21.3936  -40.6119   -6.0355 C   0  0  0  0  0  0  0  0  0  0  0  0
  -20.6900  -40.0059   -7.0632 C   0  0  0  0  0  0  0  0  0  0  0  0
  -16.4540  -38.7256   -8.0459 C   0  0  2  0  0  0  0  0  0  0  0  0
  -16.3782  -37.2647   -7.9842 O   0  0  0  0  0  0  0  0  0  0  0  0
  -15.4107  -39.0219   -9.0429 C   0  0  0  0  0  0  0  0  0  0  0  0
  -15.7051  -39.1564  -10.4044 N   0  0  0  0  0  0  0  0  0  0  0  0
  -14.8468  -40.0036  -11.1911 C   0  0  0  0  0  0  0  0  0  0  0  0
  -13.7174  -39.2983  -11.7972 C   0  0  0  0  0  0  0  0  0  0  0  0
  -13.7811  -37.9676  -12.1313 C   0  0  0  0  0  0  0  0  0  0  0  0
  -12.6921  -37.3144  -12.7203 C   0  0  0  0  0  0  0  0  0  0  0  0
  -11.5443  -38.0427  -12.9599 C   0  0  0  0  0  0  0  0  0  0  0  0
  -11.4581  -39.3784  -12.6328 C   0  0  0  0  0  0  0  0  0  0  0  0
  -12.5539  -39.9808  -12.0547 C   0  0  0  0  0  0  0  0  0  0  0  0
  -12.7134  -35.8764  -13.0910 C   0  0  0  0  0  0  0  0  0  0  0  0
  -14.1078  -35.2833  -12.8458 C   0  0  0  0  0  0  0  0  0  0  0  0
  -12.4744  -35.7383  -14.5987 C   0  0  0  0  0  0  0  0  0  0  0  0
  1  2  1  0
  2  3  1  0
  3  4  2  0
  4  5  1  0
  5  6  2  0
  6  7  1  0
  8  7  1  1
  8  9  1  0
  9 10  1  0
 10 11  2  0
 10 12  1  0
 12 13  2  0
 13 14  1  0
 14 15  1  0
 14 16  2  0
 16 17  1  0
 17 18  2  0
 17 19  1  0
 19 20  1  0
 20 21  1  0
 21 22  1  0
 22 23  1  0
 23 24  1  0
 24 25  1  0
 25 26  2  0
  8 27  1  0
 27 28  1  6
 27 29  1  0
 29 30  1  0
 30 31  1  0
 31 32  1  0
 32 33  2  0
 33 34  1  0
 34 35  2  0
 35 36  1  0
 36 37  2  0
 34 38  1  0
 38 39  1  0
 38 40  1  0
 18 12  1  0
 25  3  1  0
 26  6  1  0
 37 32  1  0
M  END
$$$$
