
     RDKit          3D

 40 43  0  0  0  0  0  0  0  0999 V2000
  -23.0577  -40.1302   -3.3427 C   0  0  0  0  0  0  0  0  0  0  0  0
  -23.1738  -40.1283   -4.7386 O   0  0  0  0  0  0  0  0  0  0  0  0
  -22.0665  -39.7646   -5.5214 C   0  0  0  0  0  0  0  0  0  0  0  0
  -21.1835  -38.8878   -4.9448 C   0  0  0  0  0  0  0  0  0  0  0  0
  -20.1069  -38.5366   -5.7170 C   0  0  0  0  0  0  0  0  0  0  0  0
  -19.8760  -39.0167   -7.0259 C   0  0  0  0  0  0  0  0  0  0  0  0
  -18.5560  -38.4654   -7.5015 C   0  0  0  0  0  0  0  0  0  0  0  0
  -17.5552  -39.5239   -7.9495 C   0  0  2  0  0  0  0  0  0  0  0  0
  -18.2239  -40.7882   -7.7754 N   0  0  0  0  0  0  0  0  0  0  0  0
  -18.4836  -42.0060   -8.3801 C   0  0  0  0  0  0  0  0  0  0  0  0
  -18.4480  -41.9998   -9.7308 O   0  0  0  0  0  0  0  0  0  0  0  0
  -18.8150  -43.3943   -7.9233 C   0  0  0  0  0  0  0  0  0  0  0  0
  -18.0463  -44.3611   -8.6153 C   0  0  0  0  0  0  0  0  0  0  0  0
  -18.2154  -45.7228   -8.4565 C   0  0  0  0  0  0  0  0  0  0  0  0
  -17.2282  -46.8701   -9.3383 Cl  0  0  0  0  0  0  0  0  0  0  0  0
  -19.1573  -46.0695   -7.6049 N   0  0  0  0  0  0  0  0  0  0  0  0
  -19.9534  -45.1855   -6.8877 C   0  0  0  0  0  0  0  0  0  0  0  0
  -19.7858  -43.8425   -7.0386 C   0  0  0  0  0  0  0  0  0  0  0  0
  -20.8887  -45.9618   -6.1181 N   0  0  0  0  0  0  0  0  0  0  0  0
  -22.3348  -45.8236   -6.0478 C   0  0  0  0  0  0  0  0  0  0  0  0
  -22.8592  -44.8686   -7.1129 C   0  0  0  0  0  0  0  0  0  0  0  0
  -23.1938  -43.5005   -6.6068 C   0  0  0  0  0  0  0  0  0  0  0  0
  -23.0075  -42.4243   -7.6545 C   0  0  0  0  0  0  0  0  0  0  0  0
  -22.9007  -41.1385   -7.1649 O   0  0  0  0  0  0  0  0  0  0  0  0
  -21.8655  -40.2651   -6.8312 C   0  0  0  0  0  0  0  0  0  0  0  0
  -20.7679  -39.8849   -7.5857 C   0  0  0  0  0  0  0  0  0  0  0  0
  -16.2787  -39.4356   -7.1457 C   0  0  2  0  0  0  0  0  0  0  0  0
  -15.8107  -38.0600   -7.3253 O   0  0  0  0  0  0  0  0  0  0  0  0
  -15.1071  -40.1970   -7.6122 C   0  0  0  0  0  0  0  0  0  0  0  0
  -14.3859  -39.8211   -8.7511 N   0  0  0  0  0  0  0  0  0  0  0  0
  -14.6988  -38.5487   -9.3480 C   0  0  0  0  0  0  0  0  0  0  0  0
  -15.8154  -38.5992  -10.2919 C   0  0  0  0  0  0  0  0  0  0  0  0
  -16.7968  -37.6385  -10.3149 C   0  0  0  0  0  0  0  0  0  0  0  0
  -17.8625  -37.7114  -11.2195 C   0  0  0  0  0  0  0  0  0  0  0  0
  -17.9059  -38.7783  -12.0944 C   0  0  0  0  0  0  0  0  0  0  0  0
  -16.9323  -39.7533  -12.0890 C   0  0  0  0  0  0  0  0  0  0  0  0
  -15.9015  -39.6414  -11.1819 C   0  0  0  0  0  0  0  0  0  0  0  0
  -18.9409  -36.6924  -11.2853 C   0  0  0  0  0  0  0  0  0  0  0  0
  -20.2484  -37.2628  -10.7184 C   0  0  0  0  0  0  0  0  0  0  0  0
  -19.2434  -36.3687  -12.7527 C   0  0  0  0  0  0  0  0  0  0  0  0
  1  2  1  0
  2  3  1  0
  3  4  2  0
  4  5  1  0
  5  6  2  0
  6  7  1  0
  8  7  1  1
  8  9  1  0
  9 10  1  0
 10 11  2  0
 10 12  1  0
 12 13  2  0
 13 14  1  0
 14 15  1  0
 14 16  2  0
 16 17  1  0
 17 18  2  0
 17 19  1  0
 19 20  1  0
 20 21  1  0
 21 22  1  0
 22 23  1  0
 23 24  1  0
 24 25  1  0
 25 26  2  0
  8 27  1  0
 27 28  1  6
 27 29  1  0
 29 30  1  0
 30 31  1  0
 31 32  1  0
 32 33  2  0
 33 34  1  0
 34 35  2  0
 35 36  1  0
 36 37  2  0
 34 38  1  0
 38 39  1  0
 38 40  1  0
 18 12  1  0
 25  3  1  0
 26  6  1  0
 37 32  1  0
M  END
$$$$
