
     RDKit          3D

 40 43  0  0  0  0  0  0  0  0999 V2000
  -24.3784  -38.7622   -5.5046 C   0  0  0  0  0  0  0  0  0  0  0  0
  -23.3322  -39.6924   -5.4578 O   0  0  0  0  0  0  0  0  0  0  0  0
  -22.1256  -39.4057   -6.1158 C   0  0  0  0  0  0  0  0  0  0  0  0
  -21.2499  -38.5939   -5.4411 C   0  0  0  0  0  0  0  0  0  0  0  0
  -20.0758  -38.3176   -6.0919 C   0  0  0  0  0  0  0  0  0  0  0  0
  -19.7413  -38.8103   -7.3734 C   0  0  0  0  0  0  0  0  0  0  0  0
  -18.3432  -38.3519   -7.7018 C   0  0  0  0  0  0  0  0  0  0  0  0
  -17.3764  -39.4770   -8.0513 C   0  0  2  0  0  0  0  0  0  0  0  0
  -18.1459  -40.6918   -7.9605 N   0  0  0  0  0  0  0  0  0  0  0  0
  -18.4240  -41.8873   -8.6004 C   0  0  0  0  0  0  0  0  0  0  0  0
  -18.2450  -41.8811   -9.9397 O   0  0  0  0  0  0  0  0  0  0  0  0
  -18.8975  -43.2498   -8.1940 C   0  0  0  0  0  0  0  0  0  0  0  0
  -18.1288  -44.2668   -8.8098 C   0  0  0  0  0  0  0  0  0  0  0  0
  -18.4079  -45.6135   -8.6823 C   0  0  0  0  0  0  0  0  0  0  0  0
  -17.4148  -46.8256   -9.4654 Cl  0  0  0  0  0  0  0  0  0  0  0  0
  -19.4565  -45.8950   -7.9383 N   0  0  0  0  0  0  0  0  0  0  0  0
  -20.2610  -44.9587   -7.3011 C   0  0  0  0  0  0  0  0  0  0  0  0
  -19.9854  -43.6306   -7.4211 C   0  0  0  0  0  0  0  0  0  0  0  0
  -21.3242  -45.6690   -6.6418 N   0  0  0  0  0  0  0  0  0  0  0  0
  -22.7565  -45.4301   -6.7234 C   0  0  0  0  0  0  0  0  0  0  0  0
  -23.0974  -44.4389   -7.8291 C   0  0  0  0  0  0  0  0  0  0  0  0
  -23.3880  -43.0516   -7.3486 C   0  0  0  0  0  0  0  0  0  0  0  0
  -23.0174  -41.9891   -8.3608 C   0  0  0  0  0  0  0  0  0  0  0  0
  -22.8741  -40.7149   -7.8509 O   0  0  0  0  0  0  0  0  0  0  0  0
  -21.8220  -39.9167   -7.4016 C   0  0  0  0  0  0  0  0  0  0  0  0
  -20.6269  -39.6128   -8.0323 C   0  0  0  0  0  0  0  0  0  0  0  0
  -16.1893  -39.4797   -7.1163 C   0  0  2  0  0  0  0  0  0  0  0  0
  -15.7661  -38.0805   -7.0353 O   0  0  0  0  0  0  0  0  0  0  0  0
  -14.9460  -40.1264   -7.5702 C   0  0  0  0  0  0  0  0  0  0  0  0
  -14.1314  -39.5550   -8.5543 N   0  0  0  0  0  0  0  0  0  0  0  0
  -13.5061  -40.4430   -9.4997 C   0  0  0  0  0  0  0  0  0  0  0  0
  -13.1613  -39.8038  -10.7697 C   0  0  0  0  0  0  0  0  0  0  0  0
  -12.5978  -38.5526  -10.8288 C   0  0  0  0  0  0  0  0  0  0  0  0
  -12.2853  -37.9546  -12.0553 C   0  0  0  0  0  0  0  0  0  0  0  0
  -12.5584  -38.6554  -13.2128 C   0  0  0  0  0  0  0  0  0  0  0  0
  -13.1233  -39.9117  -13.1772 C   0  0  0  0  0  0  0  0  0  0  0  0
  -13.4142  -40.4619  -11.9481 C   0  0  0  0  0  0  0  0  0  0  0  0
  -11.6686  -36.6082  -12.1668 C   0  0  0  0  0  0  0  0  0  0  0  0
  -11.4525  -36.2415  -13.6416 C   0  0  0  0  0  0  0  0  0  0  0  0
  -10.2665  -36.6403  -11.5483 C   0  0  0  0  0  0  0  0  0  0  0  0
  1  2  1  0
  2  3  1  0
  3  4  2  0
  4  5  1  0
  5  6  2  0
  6  7  1  0
  8  7  1  1
  8  9  1  0
  9 10  1  0
 10 11  2  0
 10 12  1  0
 12 13  2  0
 13 14  1  0
 14 15  1  0
 14 16  2  0
 16 17  1  0
 17 18  2  0
 17 19  1  0
 19 20  1  0
 20 21  1  0
 21 22  1  0
 22 23  1  0
 23 24  1  0
 24 25  1  0
 25 26  2  0
  8 27  1  0
 27 28  1  6
 27 29  1  0
 29 30  1  0
 30 31  1  0
 31 32  1  0
 32 33  2  0
 33 34  1  0
 34 35  2  0
 35 36  1  0
 36 37  2  0
 34 38  1  0
 38 39  1  0
 38 40  1  0
 18 12  1  0
 25  3  1  0
 26  6  1  0
 37 32  1  0
M  END
$$$$
