
     RDKit          3D

 40 43  0  0  0  0  0  0  0  0999 V2000
  -24.3586  -39.3722   -5.8733 C   0  0  0  0  0  0  0  0  0  0  0  0
  -24.1923  -40.3944   -6.8165 O   0  0  0  0  0  0  0  0  0  0  0  0
  -23.0971  -40.3508   -7.6937 C   0  0  0  0  0  0  0  0  0  0  0  0
  -22.4925  -39.1287   -7.8418 C   0  0  0  0  0  0  0  0  0  0  0  0
  -21.4258  -39.0950   -8.7017 C   0  0  0  0  0  0  0  0  0  0  0  0
  -20.9417  -40.2159   -9.4133 C   0  0  0  0  0  0  0  0  0  0  0  0
  -19.7165  -39.7900  -10.1816 C   0  0  0  0  0  0  0  0  0  0  0  0
  -18.4708  -40.6188   -9.8917 C   0  0  2  0  0  0  0  0  0  0  0  0
  -18.8790  -41.6081   -8.9270 N   0  0  0  0  0  0  0  0  0  0  0  0
  -18.8045  -42.9529   -8.6077 C   0  0  0  0  0  0  0  0  0  0  0  0
  -18.6056  -43.7851   -9.6535 O   0  0  0  0  0  0  0  0  0  0  0  0
  -18.8943  -43.7773   -7.3593 C   0  0  0  0  0  0  0  0  0  0  0  0
  -17.8630  -44.7458   -7.3068 C   0  0  0  0  0  0  0  0  0  0  0  0
  -17.7643  -45.6982   -6.3113 C   0  0  0  0  0  0  0  0  0  0  0  0
  -16.4602  -46.8677   -6.2984 Cl  0  0  0  0  0  0  0  0  0  0  0  0
  -18.7109  -45.6469   -5.3982 N   0  0  0  0  0  0  0  0  0  0  0  0
  -19.7549  -44.7306   -5.3776 C   0  0  0  0  0  0  0  0  0  0  0  0
  -19.8521  -43.7875   -6.3551 C   0  0  0  0  0  0  0  0  0  0  0  0
  -20.5960  -45.0481   -4.2545 N   0  0  0  0  0  0  0  0  0  0  0  0
  -22.0368  -45.2452   -4.2324 C   0  0  0  0  0  0  0  0  0  0  0  0
  -22.6131  -45.3270   -5.6404 C   0  0  0  0  0  0  0  0  0  0  0  0
  -23.2836  -44.0734   -6.1084 C   0  0  0  0  0  0  0  0  0  0  0  0
  -23.1975  -43.8852   -7.6077 C   0  0  0  0  0  0  0  0  0  0  0  0
  -23.4204  -42.5982   -8.0531 O   0  0  0  0  0  0  0  0  0  0  0  0
  -22.6377  -41.4945   -8.3920 C   0  0  0  0  0  0  0  0  0  0  0  0
  -21.5587  -41.4231   -9.2575 C   0  0  0  0  0  0  0  0  0  0  0  0
  -17.3487  -39.7467   -9.3781 C   0  0  2  0  0  0  0  0  0  0  0  0
  -16.7207  -39.1897  -10.5776 O   0  0  0  0  0  0  0  0  0  0  0  0
  -16.1973  -40.4007   -8.7326 C   0  0  0  0  0  0  0  0  0  0  0  0
  -14.8883  -40.2158   -9.1916 N   0  0  0  0  0  0  0  0  0  0  0  0
  -14.7128  -39.8353  -10.5691 C   0  0  0  0  0  0  0  0  0  0  0  0
  -15.3442  -38.5613  -10.9137 C   0  0  0  0  0  0  0  0  0  0  0  0
  -15.3819  -37.5039  -10.0379 C   0  0  0  0  0  0  0  0  0  0  0  0
  -16.0006  -36.2968  -10.3838 C   0  0  0  0  0  0  0  0  0  0  0  0
  -16.5766  -36.1920  -11.6339 C   0  0  0  0  0  0  0  0  0  0  0  0
  -16.5505  -37.2397  -12.5284 C   0  0  0  0  0  0  0  0  0  0  0  0
  -15.9306  -38.4091  -12.1460 C   0  0  0  0  0  0  0  0  0  0  0  0
  -16.0587  -35.1256   -9.4725 C   0  0  0  0  0  0  0  0  0  0  0  0
  -14.6419  -34.6905   -9.0728 C   0  0  0  0  0  0  0  0  0  0  0  0
  -16.7405  -35.5362   -8.1625 C   0  0  0  0  0  0  0  0  0  0  0  0
  1  2  1  0
  2  3  1  0
  3  4  2  0
  4  5  1  0
  5  6  2  0
  6  7  1  0
  8  7  1  1
  8  9  1  0
  9 10  1  0
 10 11  2  0
 10 12  1  0
 12 13  2  0
 13 14  1  0
 14 15  1  0
 14 16  2  0
 16 17  1  0
 17 18  2  0
 17 19  1  0
 19 20  1  0
 20 21  1  0
 21 22  1  0
 22 23  1  0
 23 24  1  0
 24 25  1  0
 25 26  2  0
  8 27  1  0
 27 28  1  6
 27 29  1  0
 29 30  1  0
 30 31  1  0
 31 32  1  0
 32 33  2  0
 33 34  1  0
 34 35  2  0
 35 36  1  0
 36 37  2  0
 34 38  1  0
 38 39  1  0
 38 40  1  0
 18 12  1  0
 25  3  1  0
 26  6  1  0
 37 32  1  0
M  END
$$$$
