
     RDKit          3D

 29 30  0  2  0  0  0  0  0  0999 V2000
   17.1252    9.7748  -11.7855 C   0  0  0  0  0  0  0  0  0  0  0  0
   15.7758    9.5718  -11.6445 C   0  0  0  0  0  0  0  0  0  0  0  0
   15.2576    9.2383  -10.4227 C   0  0  0  0  0  0  0  0  0  0  0  0
   16.0476    9.0874   -9.2728 C   0  0  0  0  0  0  0  0  0  0  0  0
   17.3865    9.3006   -9.4667 C   0  0  0  0  0  0  0  0  0  0  0  0
   17.9491    9.6412  -10.6949 C   0  0  0  0  0  0  0  0  0  0  0  0
   15.4162    8.7327   -8.0204 C   0  0  0  0  0  0  0  0  0  0  0  0
   16.0366    8.4980   -6.7215 C   0  0  0  0  0  0  0  0  0  0  0  0
   14.1279    8.5986   -8.0216 O   0  0  0  0  0  0  0  0  0  0  0  0
   15.3277    8.8684   -5.5935 O   0  0  0  0  0  0  0  0  0  0  0  0
   15.8276    8.5112   -4.3344 C   0  0  0  0  0  0  0  0  0  0  0  0
   15.7858    7.2283   -3.8849 C   0  0  0  0  0  0  0  0  0  0  0  0
   16.2827    6.9052   -2.6468 C   0  0  0  0  0  0  0  0  0  0  0  0
   16.8435    7.8288   -1.7941 C   0  0  0  0  0  0  0  0  0  0  0  0
   16.8849    9.1299   -2.2521 C   0  0  0  0  0  0  0  0  0  0  0  0
   16.3864    9.4767   -3.5037 C   0  0  0  0  0  0  0  0  0  0  0  0
   17.3613    7.4467   -0.4907 C   0  0  0  0  0  0  0  0  0  0  0  0
   18.5753    6.5589   -0.4995 C   0  0  1  0  0  0  0  0  0  0  0  0
   18.5043    5.4205    0.4300 C   0  0  0  0  0  0  0  0  0  0  0  0
   18.7037    5.6234    1.8093 N   0  0  0  0  0  0  0  0  0  0  0  0
   18.2685    4.2683    0.0155 O   0  0  0  0  0  0  0  0  0  0  0  0
   18.7457    4.5084    2.7392 C   0  0  0  0  0  0  0  0  0  0  0  0
   18.9627    6.1868   -1.7785 O   0  0  0  0  0  0  0  0  0  0  0  0
   20.3000    6.3333   -2.0318 C   0  0  0  0  0  0  0  0  0  0  0  0
   20.5721    7.8051   -2.2671 C   0  0  0  0  0  0  0  0  0  0  0  0
   14.8915    9.6930  -12.7133 O   0  0  0  0  0  0  0  0  0  0  0  0
   15.1216    9.1454  -13.9782 C   0  0  0  0  0  0  0  0  0  0  0  0
   18.8591    6.8929    2.2700 O   0  0  0  0  0  0  0  0  0  0  0  0
   20.1107    7.0863    2.8443 C   0  0  0  0  0  0  0  0  0  0  0  0
 26 27  1  0
  2 26  1  0
 28 29  1  0
 20 28  1  0
  1  2  2  0
  2  3  1  0
  3  4  2  0
  4  5  1  0
  5  6  2  0
  6  1  1  0
  4  7  1  0
  7  8  1  0
  7  9  2  0
  8 10  1  0
 10 11  1  0
 11 12  2  0
 12 13  1  0
 13 14  2  0
 14 15  1  0
 15 16  2  0
 16 11  1  0
 14 17  1  0
 18 17  1  6
 18 19  1  0
 19 20  1  0
 19 21  2  0
 20 22  1  0
 18 23  1  0
 23 24  1  0
 24 25  1  0
M  STY  2   1 SUP   2 SUP
M  SLB  2   1   1   2   2
M  SAL   1  2  26  27
M  SBL   1  1   2
M  SMT   1 OCH3
M  SBV   1   2    0.7144    0.4125
M  SAL   2  2  28  29
M  SBL   2  1   4
M  SMT   2 OCH3
M  SBV   2   4   -0.7144   -0.4125
M  END
$$$$
