
     RDKit          3D

 29 30  0  2  0  0  0  0  0  0999 V2000
   20.4412    5.0290    4.4266 C   0  0  0  0  0  0  0  0  0  0  0  0
   20.0848    3.8899    3.7503 C   0  0  0  0  0  0  0  0  0  0  0  0
   19.6849    3.9661    2.4439 C   0  0  0  0  0  0  0  0  0  0  0  0
   19.6158    5.1751    1.7349 C   0  0  0  0  0  0  0  0  0  0  0  0
   19.9816    6.2816    2.4543 C   0  0  0  0  0  0  0  0  0  0  0  0
   20.3937    6.2422    3.7846 C   0  0  0  0  0  0  0  0  0  0  0  0
   19.1818    5.1640    0.3549 C   0  0  0  0  0  0  0  0  0  0  0  0
   18.3112    6.1098   -0.3342 C   0  0  0  0  0  0  0  0  0  0  0  0
   19.6072    4.1965   -0.3939 O   0  0  0  0  0  0  0  0  0  0  0  0
   17.9820    5.8403   -1.6499 O   0  0  0  0  0  0  0  0  0  0  0  0
   17.0962    6.6992   -2.3137 C   0  0  0  0  0  0  0  0  0  0  0  0
   17.1068    8.0424   -2.1014 C   0  0  0  0  0  0  0  0  0  0  0  0
   16.2278    8.8617   -2.7650 C   0  0  0  0  0  0  0  0  0  0  0  0
   15.2983    8.3975   -3.6679 C   0  0  0  0  0  0  0  0  0  0  0  0
   15.2892    7.0342   -3.8819 C   0  0  0  0  0  0  0  0  0  0  0  0
   16.1721    6.1880   -3.2187 C   0  0  0  0  0  0  0  0  0  0  0  0
   14.3856    9.2979   -4.3530 C   0  0  0  0  0  0  0  0  0  0  0  0
   14.9083    9.9315   -5.6129 C   0  0  1  0  0  0  0  0  0  0  0  0
   15.1823    8.9826   -6.7035 C   0  0  0  0  0  0  0  0  0  0  0  0
   16.5052    8.5821   -6.9735 N   0  0  0  0  0  0  0  0  0  0  0  0
   14.2562    8.5218   -7.4000 O   0  0  0  0  0  0  0  0  0  0  0  0
   16.8160    7.6980   -8.0832 C   0  0  0  0  0  0  0  0  0  0  0  0
   14.1531   11.0204   -6.0231 O   0  0  0  0  0  0  0  0  0  0  0  0
   14.7233   11.7628   -7.0219 C   0  0  0  0  0  0  0  0  0  0  0  0
   15.4644   12.9181   -6.3801 C   0  0  0  0  0  0  0  0  0  0  0  0
   20.1129    2.6325    4.3481 O   0  0  0  0  0  0  0  0  0  0  0  0
   20.4948    2.4108    5.6738 C   0  0  0  0  0  0  0  0  0  0  0  0
   17.5050    9.0381   -6.1732 O   0  0  0  0  0  0  0  0  0  0  0  0
   17.9777   10.2779   -6.5895 C   0  0  0  0  0  0  0  0  0  0  0  0
 26 27  1  0
  2 26  1  0
 28 29  1  0
 20 28  1  0
  1  2  2  0
  2  3  1  0
  3  4  2  0
  4  5  1  0
  5  6  2  0
  6  1  1  0
  4  7  1  0
  7  8  1  0
  7  9  2  0
  8 10  1  0
 10 11  1  0
 11 12  2  0
 12 13  1  0
 13 14  2  0
 14 15  1  0
 15 16  2  0
 16 11  1  0
 14 17  1  0
 18 17  1  1
 18 19  1  0
 19 20  1  0
 19 21  2  0
 20 22  1  0
 18 23  1  0
 23 24  1  0
 24 25  1  0
M  STY  2   1 SUP   2 SUP
M  SLB  2   1   1   2   2
M  SAL   1  2  26  27
M  SBL   1  1   2
M  SMT   1 OCH3
M  SBV   1   2    0.7144    0.4125
M  SAL   2  2  28  29
M  SBL   2  1   4
M  SMT   2 OCH3
M  SBV   2   4   -0.7144   -0.4125
M  END
$$$$
