
     RDKit          3D

 29 30  0  2  0  0  0  0  0  0999 V2000
   15.4058    8.9054  -11.3597 C   0  0  0  0  0  0  0  0  0  0  0  0
   16.4875    9.6318  -10.9305 C   0  0  0  0  0  0  0  0  0  0  0  0
   17.0148    9.4058   -9.6882 C   0  0  0  0  0  0  0  0  0  0  0  0
   16.4996    8.4473   -8.8021 C   0  0  0  0  0  0  0  0  0  0  0  0
   15.4212    7.7499   -9.2777 C   0  0  0  0  0  0  0  0  0  0  0  0
   14.8581    7.9529  -10.5358 C   0  0  0  0  0  0  0  0  0  0  0  0
   17.1194    8.2740   -7.5065 C   0  0  0  0  0  0  0  0  0  0  0  0
   16.8668    7.2434   -6.5059 C   0  0  0  0  0  0  0  0  0  0  0  0
   18.0241    9.1343   -7.1608 O   0  0  0  0  0  0  0  0  0  0  0  0
   17.6110    7.2811   -5.3412 O   0  0  0  0  0  0  0  0  0  0  0  0
   17.0474    7.8635   -4.1983 C   0  0  0  0  0  0  0  0  0  0  0  0
   15.7175    7.7711   -3.9292 C   0  0  0  0  0  0  0  0  0  0  0  0
   15.1908    8.3511   -2.8021 C   0  0  0  0  0  0  0  0  0  0  0  0
   15.9478    9.0483   -1.8880 C   0  0  0  0  0  0  0  0  0  0  0  0
   17.2969    9.1409   -2.1630 C   0  0  0  0  0  0  0  0  0  0  0  0
   17.8490    8.5598   -3.3000 C   0  0  0  0  0  0  0  0  0  0  0  0
   15.3529    9.6465   -0.7042 C   0  0  0  0  0  0  0  0  0  0  0  0
   14.1171   10.4721   -0.9345 C   0  0  1  0  0  0  0  0  0  0  0  0
   13.4205   10.8821    0.2950 C   0  0  0  0  0  0  0  0  0  0  0  0
   12.6319    9.9533    1.0013 N   0  0  0  0  0  0  0  0  0  0  0  0
   13.5162   12.0477    0.7276 O   0  0  0  0  0  0  0  0  0  0  0  0
   12.0388   10.2864    2.2846 C   0  0  0  0  0  0  0  0  0  0  0  0
   14.3276   11.5262   -1.8114 O   0  0  0  0  0  0  0  0  0  0  0  0
   13.1920   12.2001   -2.1721 C   0  0  0  0  0  0  0  0  0  0  0  0
   13.3360   13.6369   -1.7130 C   0  0  0  0  0  0  0  0  0  0  0  0
   17.0852   10.6102  -11.7210 O   0  0  0  0  0  0  0  0  0  0  0  0
   18.3156   11.2030  -11.4257 C   0  0  0  0  0  0  0  0  0  0  0  0
   12.4275    8.7222    0.4623 O   0  0  0  0  0  0  0  0  0  0  0  0
   12.9864    7.7156    1.2421 C   0  0  0  0  0  0  0  0  0  0  0  0
 26 27  1  0
  2 26  1  0
 28 29  1  0
 20 28  1  0
  1  2  2  0
  2  3  1  0
  3  4  2  0
  4  5  1  0
  5  6  2  0
  6  1  1  0
  4  7  1  0
  7  8  1  0
  7  9  2  0
  8 10  1  0
 10 11  1  0
 11 12  2  0
 12 13  1  0
 13 14  2  0
 14 15  1  0
 15 16  2  0
 16 11  1  0
 14 17  1  0
 18 17  1  1
 18 19  1  0
 19 20  1  0
 19 21  2  0
 20 22  1  0
 18 23  1  0
 23 24  1  0
 24 25  1  0
M  STY  2   1 SUP   2 SUP
M  SLB  2   1   1   2   2
M  SAL   1  2  26  27
M  SBL   1  1   2
M  SMT   1 OCH3
M  SBV   1   2    0.7144    0.4125
M  SAL   2  2  28  29
M  SBL   2  1   4
M  SMT   2 OCH3
M  SBV   2   4   -0.7144   -0.4125
M  END
$$$$
