
     RDKit          3D

 29 30  0  2  0  0  0  0  0  0999 V2000
   14.0410   11.5787    0.6006 C   0  0  0  0  0  0  0  0  0  0  0  0
   13.4310   10.3666    0.8018 C   0  0  0  0  0  0  0  0  0  0  0  0
   13.9881    9.2263    0.2901 C   0  0  0  0  0  0  0  0  0  0  0  0
   15.1807    9.2238   -0.4496 C   0  0  0  0  0  0  0  0  0  0  0  0
   15.7493   10.4577   -0.6221 C   0  0  0  0  0  0  0  0  0  0  0  0
   15.2110   11.6389   -0.1160 C   0  0  0  0  0  0  0  0  0  0  0  0
   15.6994    7.9711   -0.9540 C   0  0  0  0  0  0  0  0  0  0  0  0
   16.6207    7.7463   -2.0621 C   0  0  0  0  0  0  0  0  0  0  0  0
   15.3116    6.8861   -0.3621 O   0  0  0  0  0  0  0  0  0  0  0  0
   16.1360    7.0908   -3.1790 O   0  0  0  0  0  0  0  0  0  0  0  0
   16.5366    7.5312   -4.4472 C   0  0  0  0  0  0  0  0  0  0  0  0
   16.7590    6.6625   -5.4697 C   0  0  0  0  0  0  0  0  0  0  0  0
   17.1510    7.1204   -6.7029 C   0  0  0  0  0  0  0  0  0  0  0  0
   17.3421    8.4536   -6.9871 C   0  0  0  0  0  0  0  0  0  0  0  0
   17.1160    9.3334   -5.9482 C   0  0  0  0  0  0  0  0  0  0  0  0
   16.7183    8.8883   -4.6916 C   0  0  0  0  0  0  0  0  0  0  0  0
   17.7556    8.8997   -8.3074 C   0  0  0  0  0  0  0  0  0  0  0  0
   16.6894    8.8922   -9.3682 C   0  0  1  0  0  0  0  0  0  0  0  0
   15.7594   10.0306   -9.3051 C   0  0  0  0  0  0  0  0  0  0  0  0
   14.4033    9.8163   -8.9914 N   0  0  0  0  0  0  0  0  0  0  0  0
   16.1532   11.1930   -9.5265 O   0  0  0  0  0  0  0  0  0  0  0  0
   13.4512   10.9129   -8.9635 C   0  0  0  0  0  0  0  0  0  0  0  0
   17.1966    8.6807  -10.6419 O   0  0  0  0  0  0  0  0  0  0  0  0
   16.5909    9.4176  -11.6238 C   0  0  0  0  0  0  0  0  0  0  0  0
   17.4713   10.6147  -11.9195 C   0  0  0  0  0  0  0  0  0  0  0  0
   12.2441   10.2432    1.5196 O   0  0  0  0  0  0  0  0  0  0  0  0
   11.9717   10.9445    2.6972 C   0  0  0  0  0  0  0  0  0  0  0  0
   13.9866    8.5533   -8.7103 O   0  0  0  0  0  0  0  0  0  0  0  0
   12.7739    8.5468   -8.0299 C   0  0  0  0  0  0  0  0  0  0  0  0
 26 27  1  0
  2 26  1  0
 28 29  1  0
 20 28  1  0
  1  2  2  0
  2  3  1  0
  3  4  2  0
  4  5  1  0
  5  6  2  0
  6  1  1  0
  4  7  1  0
  7  8  1  0
  7  9  2  0
  8 10  1  0
 10 11  1  0
 11 12  2  0
 12 13  1  0
 13 14  2  0
 14 15  1  0
 15 16  2  0
 16 11  1  0
 14 17  1  0
 18 17  1  1
 18 19  1  0
 19 20  1  0
 19 21  2  0
 20 22  1  0
 18 23  1  0
 23 24  1  0
 24 25  1  0
M  STY  2   1 SUP   2 SUP
M  SLB  2   1   1   2   2
M  SAL   1  2  26  27
M  SBL   1  1   2
M  SMT   1 OCH3
M  SBV   1   2    0.7144    0.4125
M  SAL   2  2  28  29
M  SBL   2  1   4
M  SMT   2 OCH3
M  SBV   2   4   -0.7144   -0.4125
M  END
$$$$
