
     RDKit          3D

 29 30  0  2  0  0  0  0  0  0999 V2000
   13.8262    6.2487    2.7880 C   0  0  0  0  0  0  0  0  0  0  0  0
   14.9991    5.5412    2.8635 C   0  0  0  0  0  0  0  0  0  0  0  0
   15.9070    5.6095    1.8420 C   0  0  0  0  0  0  0  0  0  0  0  0
   15.7033    6.3828    0.6888 C   0  0  0  0  0  0  0  0  0  0  0  0
   14.5184    7.0691    0.6624 C   0  0  0  0  0  0  0  0  0  0  0  0
   13.5712    7.0235    1.6831 C   0  0  0  0  0  0  0  0  0  0  0  0
   16.7169    6.3973   -0.3432 C   0  0  0  0  0  0  0  0  0  0  0  0
   16.7490    7.1727   -1.5781 C   0  0  0  0  0  0  0  0  0  0  0  0
   17.7461    5.6288   -0.1760 O   0  0  0  0  0  0  0  0  0  0  0  0
   17.8200    6.9801   -2.4312 O   0  0  0  0  0  0  0  0  0  0  0  0
   17.8112    7.6150   -3.6800 C   0  0  0  0  0  0  0  0  0  0  0  0
   17.8555    8.9694   -3.7951 C   0  0  0  0  0  0  0  0  0  0  0  0
   17.8457    9.5663   -5.0311 C   0  0  0  0  0  0  0  0  0  0  0  0
   17.7920    8.8586   -6.2105 C   0  0  0  0  0  0  0  0  0  0  0  0
   17.7471    7.4845   -6.0916 C   0  0  0  0  0  0  0  0  0  0  0  0
   17.7561    6.8615   -4.8477 C   0  0  0  0  0  0  0  0  0  0  0  0
   17.7859    9.5277   -7.5011 C   0  0  0  0  0  0  0  0  0  0  0  0
   16.4976   10.2011   -7.8869 C   0  0  1  0  0  0  0  0  0  0  0  0
   15.6577    9.4245   -8.8123 C   0  0  0  0  0  0  0  0  0  0  0  0
   15.7668    9.6269  -10.2017 N   0  0  0  0  0  0  0  0  0  0  0  0
   14.8431    8.5824   -8.3854 O   0  0  0  0  0  0  0  0  0  0  0  0
   15.5899   10.9430  -10.7903 C   0  0  0  0  0  0  0  0  0  0  0  0
   15.7919   10.6829   -6.7941 O   0  0  0  0  0  0  0  0  0  0  0  0
   15.5567   12.0312   -6.8198 C   0  0  0  0  0  0  0  0  0  0  0  0
   14.4237   12.2891   -7.7922 C   0  0  0  0  0  0  0  0  0  0  0  0
   15.3127    4.7392    3.9579 O   0  0  0  0  0  0  0  0  0  0  0  0
   16.4513    3.9322    4.0289 C   0  0  0  0  0  0  0  0  0  0  0  0
   16.0437    8.5620  -11.0001 O   0  0  0  0  0  0  0  0  0  0  0  0
   14.9003    8.0637  -11.6148 C   0  0  0  0  0  0  0  0  0  0  0  0
 26 27  1  0
  2 26  1  0
 28 29  1  0
 20 28  1  0
  1  2  2  0
  2  3  1  0
  3  4  2  0
  4  5  1  0
  5  6  2  0
  6  1  1  0
  4  7  1  0
  7  8  1  0
  7  9  2  0
  8 10  1  0
 10 11  1  0
 11 12  2  0
 12 13  1  0
 13 14  2  0
 14 15  1  0
 15 16  2  0
 16 11  1  0
 14 17  1  0
 18 17  1  1
 18 19  1  0
 19 20  1  0
 19 21  2  0
 20 22  1  0
 18 23  1  0
 23 24  1  0
 24 25  1  0
M  STY  2   1 SUP   2 SUP
M  SLB  2   1   1   2   2
M  SAL   1  2  26  27
M  SBL   1  1   2
M  SMT   1 OCH3
M  SBV   1   2    0.7144    0.4125
M  SAL   2  2  28  29
M  SBL   2  1   4
M  SMT   2 OCH3
M  SBV   2   4   -0.7144   -0.4125
M  END
$$$$
