
     RDKit          3D

 29 30  0  2  0  0  0  0  0  0999 V2000
   19.0997    8.2312    3.4759 C   0  0  0  0  0  0  0  0  0  0  0  0
   19.2309    6.8687    3.3853 C   0  0  0  0  0  0  0  0  0  0  0  0
   19.0851    6.2457    2.1757 C   0  0  0  0  0  0  0  0  0  0  0  0
   18.8012    6.9382    0.9886 C   0  0  0  0  0  0  0  0  0  0  0  0
   18.6801    8.2947    1.1328 C   0  0  0  0  0  0  0  0  0  0  0  0
   18.8218    8.9627    2.3473 C   0  0  0  0  0  0  0  0  0  0  0  0
   18.6634    6.1994   -0.2475 C   0  0  0  0  0  0  0  0  0  0  0  0
   17.7985    6.4832   -1.3871 C   0  0  0  0  0  0  0  0  0  0  0  0
   19.3931    5.1388   -0.3903 O   0  0  0  0  0  0  0  0  0  0  0  0
   18.3990    6.6828   -2.6166 O   0  0  0  0  0  0  0  0  0  0  0  0
   17.6115    7.1207   -3.6894 C   0  0  0  0  0  0  0  0  0  0  0  0
   17.3565    6.3248   -4.7623 C   0  0  0  0  0  0  0  0  0  0  0  0
   16.5816    6.7785   -5.8004 C   0  0  0  0  0  0  0  0  0  0  0  0
   16.0219    8.0357   -5.8310 C   0  0  0  0  0  0  0  0  0  0  0  0
   16.2820    8.8418   -4.7415 C   0  0  0  0  0  0  0  0  0  0  0  0
   17.0649    8.3996   -3.6800 C   0  0  0  0  0  0  0  0  0  0  0  0
   15.2044    8.4789   -6.9484 C   0  0  0  0  0  0  0  0  0  0  0  0
   15.9371    9.1650   -8.0683 C   0  0  1  0  0  0  0  0  0  0  0  0
   15.0649    9.7446   -9.1019 C   0  0  0  0  0  0  0  0  0  0  0  0
   15.2238    9.3690  -10.4499 N   0  0  0  0  0  0  0  0  0  0  0  0
   14.1791   10.5702   -8.8039 O   0  0  0  0  0  0  0  0  0  0  0  0
   14.1905    9.6343  -11.4355 C   0  0  0  0  0  0  0  0  0  0  0  0
   16.9023   10.0536   -7.6175 O   0  0  0  0  0  0  0  0  0  0  0  0
   17.8700   10.3555   -8.5374 C   0  0  0  0  0  0  0  0  0  0  0  0
   18.7233    9.1199   -8.7402 C   0  0  0  0  0  0  0  0  0  0  0  0
   19.5120    6.0748    4.4943 O   0  0  0  0  0  0  0  0  0  0  0  0
   19.1226    4.7379    4.6118 C   0  0  0  0  0  0  0  0  0  0  0  0
   16.3718    8.7457  -10.8264 O   0  0  0  0  0  0  0  0  0  0  0  0
   16.7843    7.8073   -9.8868 C   0  0  0  0  0  0  0  0  0  0  0  0
 26 27  1  0
  2 26  1  0
 28 29  1  0
 20 28  1  0
  1  2  2  0
  2  3  1  0
  3  4  2  0
  4  5  1  0
  5  6  2  0
  6  1  1  0
  4  7  1  0
  7  8  1  0
  7  9  2  0
  8 10  1  0
 10 11  1  0
 11 12  2  0
 12 13  1  0
 13 14  2  0
 14 15  1  0
 15 16  2  0
 16 11  1  0
 14 17  1  0
 18 17  1  1
 18 19  1  0
 19 20  1  0
 19 21  2  0
 20 22  1  0
 18 23  1  0
 23 24  1  0
 24 25  1  0
M  STY  2   1 SUP   2 SUP
M  SLB  2   1   1   2   2
M  SAL   1  2  26  27
M  SBL   1  1   2
M  SMT   1 OCH3
M  SBV   1   2    0.7144    0.4125
M  SAL   2  2  28  29
M  SBL   2  1   4
M  SMT   2 OCH3
M  SBV   2   4   -0.7144   -0.4125
M  END
$$$$
