
     RDKit          3D

 29 30  0  2  0  0  0  0  0  0999 V2000
   16.8955    9.7122   -9.9951 C   0  0  0  0  0  0  0  0  0  0  0  0
   15.7427    9.1904   -9.4652 C   0  0  0  0  0  0  0  0  0  0  0  0
   15.7303    8.7241   -8.1788 C   0  0  0  0  0  0  0  0  0  0  0  0
   16.8594    8.7488   -7.3459 C   0  0  0  0  0  0  0  0  0  0  0  0
   17.9833    9.2788   -7.9217 C   0  0  0  0  0  0  0  0  0  0  0  0
   18.0330    9.7628   -9.2273 C   0  0  0  0  0  0  0  0  0  0  0  0
   16.7572    8.2345   -5.9977 C   0  0  0  0  0  0  0  0  0  0  0  0
   17.8201    7.7508   -5.1239 C   0  0  0  0  0  0  0  0  0  0  0  0
   15.5759    8.1847   -5.4687 O   0  0  0  0  0  0  0  0  0  0  0  0
   17.9233    8.3122   -3.8645 O   0  0  0  0  0  0  0  0  0  0  0  0
   18.2663    7.4888   -2.7841 C   0  0  0  0  0  0  0  0  0  0  0  0
   17.4842    6.4430   -2.4043 C   0  0  0  0  0  0  0  0  0  0  0  0
   17.8434    5.6516   -1.3418 C   0  0  0  0  0  0  0  0  0  0  0  0
   18.9882    5.8523   -0.6044 C   0  0  0  0  0  0  0  0  0  0  0  0
   19.7803    6.9139   -0.9914 C   0  0  0  0  0  0  0  0  0  0  0  0
   19.4328    7.7271   -2.0654 C   0  0  0  0  0  0  0  0  0  0  0  0
   19.3357    4.9901    0.5133 C   0  0  0  0  0  0  0  0  0  0  0  0
   18.4629    5.1093    1.7323 C   0  0  1  0  0  0  0  0  0  0  0  0
   18.8451    4.2246    2.8441 C   0  0  0  0  0  0  0  0  0  0  0  0
   17.8517    3.6398    3.6530 N   0  0  0  0  0  0  0  0  0  0  0  0
   20.0439    3.9805    3.0858 O   0  0  0  0  0  0  0  0  0  0  0  0
   18.1390    2.4871    4.4888 C   0  0  0  0  0  0  0  0  0  0  0  0
   18.2698    6.4237    2.1316 O   0  0  0  0  0  0  0  0  0  0  0  0
   19.2211    6.9011    2.9925 C   0  0  0  0  0  0  0  0  0  0  0  0
   20.4743    7.1885    2.1908 C   0  0  0  0  0  0  0  0  0  0  0  0
   14.5592    9.1130  -10.1950 O   0  0  0  0  0  0  0  0  0  0  0  0
   14.5098    8.8968  -11.5746 C   0  0  0  0  0  0  0  0  0  0  0  0
   16.6011    4.1725    3.6444 O   0  0  0  0  0  0  0  0  0  0  0  0
   16.4470    5.1494    4.6220 C   0  0  0  0  0  0  0  0  0  0  0  0
 26 27  1  0
  2 26  1  0
 28 29  1  0
 20 28  1  0
  1  2  2  0
  2  3  1  0
  3  4  2  0
  4  5  1  0
  5  6  2  0
  6  1  1  0
  4  7  1  0
  7  8  1  0
  7  9  2  0
  8 10  1  0
 10 11  1  0
 11 12  2  0
 12 13  1  0
 13 14  2  0
 14 15  1  0
 15 16  2  0
 16 11  1  0
 14 17  1  0
 18 17  1  6
 18 19  1  0
 19 20  1  0
 19 21  2  0
 20 22  1  0
 18 23  1  0
 23 24  1  0
 24 25  1  0
M  STY  2   1 SUP   2 SUP
M  SLB  2   1   1   2   2
M  SAL   1  2  26  27
M  SBL   1  1   2
M  SMT   1 OCH3
M  SBV   1   2    0.7144    0.4125
M  SAL   2  2  28  29
M  SBL   2  1   4
M  SMT   2 OCH3
M  SBV   2   4   -0.7144   -0.4125
M  END
$$$$
