
     RDKit          3D

 29 30  0  2  0  0  0  0  0  0999 V2000
   20.1846    6.4511    5.1389 C   0  0  0  0  0  0  0  0  0  0  0  0
   19.9316    5.1070    5.0323 C   0  0  0  0  0  0  0  0  0  0  0  0
   19.6649    4.5554    3.8087 C   0  0  0  0  0  0  0  0  0  0  0  0
   19.6339    5.3050    2.6228 C   0  0  0  0  0  0  0  0  0  0  0  0
   19.8928    6.6402    2.7832 C   0  0  0  0  0  0  0  0  0  0  0  0
   20.1681    7.2361    4.0122 C   0  0  0  0  0  0  0  0  0  0  0  0
   19.3432    4.6401    1.3713 C   0  0  0  0  0  0  0  0  0  0  0  0
   19.0430    5.2327    0.0728 C   0  0  0  0  0  0  0  0  0  0  0  0
   19.3422    3.3448    1.3729 O   0  0  0  0  0  0  0  0  0  0  0  0
   17.7191    5.2772   -0.3235 O   0  0  0  0  0  0  0  0  0  0  0  0
   17.4140    5.7486   -1.6071 C   0  0  0  0  0  0  0  0  0  0  0  0
   18.3764    6.2205   -2.4441 C   0  0  0  0  0  0  0  0  0  0  0  0
   18.0504    6.6766   -3.6971 C   0  0  0  0  0  0  0  0  0  0  0  0
   16.7631    6.6895   -4.1842 C   0  0  0  0  0  0  0  0  0  0  0  0
   15.7881    6.2103   -3.3333 C   0  0  0  0  0  0  0  0  0  0  0  0
   16.0990    5.7439   -2.0601 C   0  0  0  0  0  0  0  0  0  0  0  0
   16.4582    7.1786   -5.5188 C   0  0  0  0  0  0  0  0  0  0  0  0
   16.2512    8.6630   -5.6441 C   0  0  1  0  0  0  0  0  0  0  0  0
   15.7280    9.0971   -6.9490 C   0  0  0  0  0  0  0  0  0  0  0  0
   16.5922    9.6790   -7.8965 N   0  0  0  0  0  0  0  0  0  0  0  0
   14.5221    8.9580   -7.2344 O   0  0  0  0  0  0  0  0  0  0  0  0
   16.1543    9.9465   -9.2554 C   0  0  0  0  0  0  0  0  0  0  0  0
   15.5496    9.2023   -4.5758 O   0  0  0  0  0  0  0  0  0  0  0  0
   15.9206   10.4760   -4.2380 C   0  0  0  0  0  0  0  0  0  0  0  0
   17.2642   10.4017   -3.5414 C   0  0  0  0  0  0  0  0  0  0  0  0
   19.9345    4.2613    6.1386 O   0  0  0  0  0  0  0  0  0  0  0  0
   19.0911    3.1554    6.2735 C   0  0  0  0  0  0  0  0  0  0  0  0
   17.8606    9.9934   -7.5219 O   0  0  0  0  0  0  0  0  0  0  0  0
   17.8826   10.9874   -6.5497 C   0  0  0  0  0  0  0  0  0  0  0  0
 26 27  1  0
  2 26  1  0
 28 29  1  0
 20 28  1  0
  1  2  2  0
  2  3  1  0
  3  4  2  0
  4  5  1  0
  5  6  2  0
  6  1  1  0
  4  7  1  0
  7  8  1  0
  7  9  2  0
  8 10  1  0
 10 11  1  0
 11 12  2  0
 12 13  1  0
 13 14  2  0
 14 15  1  0
 15 16  2  0
 16 11  1  0
 14 17  1  0
 18 17  1  6
 18 19  1  0
 19 20  1  0
 19 21  2  0
 20 22  1  0
 18 23  1  0
 23 24  1  0
 24 25  1  0
M  STY  2   1 SUP   2 SUP
M  SLB  2   1   1   2   2
M  SAL   1  2  26  27
M  SBL   1  1   2
M  SMT   1 OCH3
M  SBV   1   2    0.7144    0.4125
M  SAL   2  2  28  29
M  SBL   2  1   4
M  SMT   2 OCH3
M  SBV   2   4   -0.7144   -0.4125
M  END
$$$$
