
     RDKit          3D

 29 30  0  2  0  0  0  0  0  0999 V2000
   18.1665    1.7719    4.6767 C   0  0  0  0  0  0  0  0  0  0  0  0
   19.0793    1.6218    3.6636 C   0  0  0  0  0  0  0  0  0  0  0  0
   19.4052    2.6892    2.8719 C   0  0  0  0  0  0  0  0  0  0  0  0
   18.8449    3.9648    3.0400 C   0  0  0  0  0  0  0  0  0  0  0  0
   17.9404    4.0617    4.0638 C   0  0  0  0  0  0  0  0  0  0  0  0
   17.5844    2.9974    4.8895 C   0  0  0  0  0  0  0  0  0  0  0  0
   19.2470    5.0377    2.1569 C   0  0  0  0  0  0  0  0  0  0  0  0
   18.9755    5.1959    0.7326 C   0  0  0  0  0  0  0  0  0  0  0  0
   19.9425    6.0017    2.6715 O   0  0  0  0  0  0  0  0  0  0  0  0
   18.0169    6.1197    0.3590 O   0  0  0  0  0  0  0  0  0  0  0  0
   17.7804    6.3331   -1.0054 C   0  0  0  0  0  0  0  0  0  0  0  0
   18.7812    6.2699   -1.9241 C   0  0  0  0  0  0  0  0  0  0  0  0
   18.5223    6.4831   -3.2551 C   0  0  0  0  0  0  0  0  0  0  0  0
   17.2673    6.7681   -3.7436 C   0  0  0  0  0  0  0  0  0  0  0  0
   16.2533    6.8318   -2.8098 C   0  0  0  0  0  0  0  0  0  0  0  0
   16.4962    6.6187   -1.4567 C   0  0  0  0  0  0  0  0  0  0  0  0
   17.0328    6.9853   -5.1617 C   0  0  0  0  0  0  0  0  0  0  0  0
   17.1074    8.4127   -5.6298 C   0  0  1  0  0  0  0  0  0  0  0  0
   16.0238    8.8122   -6.5415 C   0  0  0  0  0  0  0  0  0  0  0  0
   15.9958    8.3206   -7.8609 N   0  0  0  0  0  0  0  0  0  0  0  0
   15.1211    9.5853   -6.1642 O   0  0  0  0  0  0  0  0  0  0  0  0
   14.9615    8.7256   -8.7969 C   0  0  0  0  0  0  0  0  0  0  0  0
   17.2966    9.3123   -4.5910 O   0  0  0  0  0  0  0  0  0  0  0  0
   18.3368   10.1827   -4.7761 C   0  0  0  0  0  0  0  0  0  0  0  0
   17.9111   11.2062   -5.8091 C   0  0  0  0  0  0  0  0  0  0  0  0
   19.7020    0.4044    3.4001 O   0  0  0  0  0  0  0  0  0  0  0  0
   19.4299   -0.7748    4.0988 C   0  0  0  0  0  0  0  0  0  0  0  0
   16.9612    7.4495   -8.2572 O   0  0  0  0  0  0  0  0  0  0  0  0
   17.8522    8.0343   -9.1505 C   0  0  0  0  0  0  0  0  0  0  0  0
 26 27  1  0
  2 26  1  0
 28 29  1  0
 20 28  1  0
  1  2  2  0
  2  3  1  0
  3  4  2  0
  4  5  1  0
  5  6  2  0
  6  1  1  0
  4  7  1  0
  7  8  1  0
  7  9  2  0
  8 10  1  0
 10 11  1  0
 11 12  2  0
 12 13  1  0
 13 14  2  0
 14 15  1  0
 15 16  2  0
 16 11  1  0
 14 17  1  0
 18 17  1  1
 18 19  1  0
 19 20  1  0
 19 21  2  0
 20 22  1  0
 18 23  1  0
 23 24  1  0
 24 25  1  0
M  STY  2   1 SUP   2 SUP
M  SLB  2   1   1   2   2
M  SAL   1  2  26  27
M  SBL   1  1   2
M  SMT   1 OCH3
M  SBV   1   2    0.7144    0.4125
M  SAL   2  2  28  29
M  SBL   2  1   4
M  SMT   2 OCH3
M  SBV   2   4   -0.7144   -0.4125
M  END
$$$$
