
     RDKit          3D

 41 45  0  0  0  0  0  0  0  0999 V2000
  -15.1871  -33.3617  -11.6267 C   0  0  0  0  0  0  0  0  0  0  0  0
  -15.4059  -34.6887  -11.9011 O   0  0  0  0  0  0  0  0  0  0  0  0
  -16.1717  -35.3118  -10.9260 C   0  0  0  0  0  0  0  0  0  0  0  0
  -15.4585  -36.4843  -10.3775 C   0  0  0  0  0  0  0  0  0  0  0  0
  -14.1759  -36.8140  -10.7222 C   0  0  0  0  0  0  0  0  0  0  0  0
  -13.5062  -37.9379  -10.1935 C   0  0  0  0  0  0  0  0  0  0  0  0
  -14.1357  -38.7684   -9.2801 C   0  0  0  0  0  0  0  0  0  0  0  0
  -15.4236  -38.4640   -8.9206 C   0  0  0  0  0  0  0  0  0  0  0  0
  -16.0596  -37.3211   -9.4792 C   0  0  0  0  0  0  0  0  0  0  0  0
  -16.3858  -39.1730   -8.0507 C   0  0  0  0  0  0  0  0  0  0  0  0
  -17.0606  -38.4037   -7.2417 O   0  0  0  0  0  0  0  0  0  0  0  0
  -16.6928  -40.5568   -7.9601 N   0  0  0  0  0  0  0  0  0  0  0  0
  -16.4158  -41.5569   -8.9889 C   0  0  1  0  0  0  0  0  0  0  0  0
  -15.0830  -42.1962   -8.7277 C   0  0  0  0  0  0  0  0  0  0  0  0
  -14.2542  -42.5479   -9.9156 C   0  0  0  0  0  0  0  0  0  0  0  0
  -13.7871  -41.7807  -10.9435 C   0  0  0  0  0  0  0  0  0  0  0  0
  -12.9495  -42.3558  -11.8901 C   0  0  0  0  0  0  0  0  0  0  0  0
  -12.6051  -43.7092  -11.7792 C   0  0  0  0  0  0  0  0  0  0  0  0
  -13.0511  -44.5218  -10.7684 C   0  0  0  0  0  0  0  0  0  0  0  0
  -13.8677  -43.9142   -9.8588 C   0  0  0  0  0  0  0  0  0  0  0  0
  -12.3600  -41.7735  -12.9913 O   0  0  0  0  0  0  0  0  0  0  0  0
  -11.5612  -40.6700  -13.2495 C   0  0  0  0  0  0  0  0  0  0  0  0
  -12.1158  -39.3491  -12.7725 C   0  0  0  0  0  0  0  0  0  0  0  0
  -11.5283  -39.0158  -11.4343 C   0  0  0  0  0  0  0  0  0  0  0  0
  -12.2296  -38.0353  -10.7217 O   0  0  0  0  0  0  0  0  0  0  0  0
  -17.5383  -42.5286   -9.1333 C   0  0  2  0  0  0  0  0  0  0  0  0
  -17.6911  -42.7582  -10.5175 O   0  0  0  0  0  0  0  0  0  0  0  0
  -18.8675  -42.0788   -8.6276 C   0  0  0  0  0  0  0  0  0  0  0  0
  -18.7374  -41.8999   -7.1924 N   0  0  0  0  0  0  0  0  0  0  0  0
  -19.8843  -41.3335   -6.5512 C   0  0  0  0  0  0  0  0  0  0  0  0
  -20.1709  -41.3728   -5.1312 C   0  0  0  0  0  0  0  0  0  0  0  0
  -20.8474  -42.3845   -6.0383 C   0  0  0  0  0  0  0  0  0  0  0  0
  -20.5918  -40.2875   -7.3701 C   0  0  0  0  0  0  0  0  0  0  0  0
  -20.1855  -38.9610   -7.3760 C   0  0  0  0  0  0  0  0  0  0  0  0
  -20.8156  -37.9947   -8.1238 C   0  0  0  0  0  0  0  0  0  0  0  0
  -21.8926  -38.3197   -8.9070 C   0  0  0  0  0  0  0  0  0  0  0  0
  -22.3314  -39.6291   -8.9314 C   0  0  0  0  0  0  0  0  0  0  0  0
  -21.6816  -40.5889   -8.1696 C   0  0  0  0  0  0  0  0  0  0  0  0
  -20.3448  -36.6021   -8.0944 C   0  0  0  0  0  0  0  0  0  0  0  0
  -21.3562  -35.7555   -7.3620 C   0  0  0  0  0  0  0  0  0  0  0  0
  -20.1811  -36.0280   -9.4844 C   0  0  0  0  0  0  0  0  0  0  0  0
  1  2  1  0
  2  3  1  0
  3  4  1  0
  4  5  2  0
  5  6  1  0
  6  7  2  0
  7  8  1  0
  8  9  2  0
  8 10  1  0
 10 11  2  0
 10 12  1  0
 12 13  1  0
 13 14  1  1
 14 15  1  0
 15 16  1  0
 16 17  2  0
 17 18  1  0
 18 19  2  0
 19 20  1  0
 17 21  1  0
 21 22  1  0
 22 23  1  0
 23 24  1  0
 24 25  1  0
 13 26  1  0
 26 27  1  6
 26 28  1  0
 28 29  1  0
 29 30  1  0
 30 31  1  0
 31 32  1  0
 30 33  1  0
 33 34  2  0
 34 35  1  0
 35 36  2  0
 36 37  1  0
 37 38  2  0
 35 39  1  0
 39 40  1  0
 39 41  1  0
  9  4  1  0
 20 15  2  0
 25  6  1  0
 32 30  1  0
 38 33  1  0
M  END
$$$$
