
     RDKit          3D

 41 45  0  0  0  0  0  0  0  0999 V2000
  -21.9415  -43.3814   -3.1945 C   0  0  0  0  0  0  0  0  0  0  0  0
  -21.9596  -42.9037   -4.4813 O   0  0  0  0  0  0  0  0  0  0  0  0
  -22.2118  -43.9009   -5.4127 C   0  0  0  0  0  0  0  0  0  0  0  0
  -21.3371  -43.7407   -6.5932 C   0  0  0  0  0  0  0  0  0  0  0  0
  -20.7737  -44.7939   -7.2609 C   0  0  0  0  0  0  0  0  0  0  0  0
  -19.9379  -44.6282   -8.3856 C   0  0  0  0  0  0  0  0  0  0  0  0
  -19.6522  -43.3620   -8.8710 C   0  0  0  0  0  0  0  0  0  0  0  0
  -20.1999  -42.2879   -8.2178 C   0  0  0  0  0  0  0  0  0  0  0  0
  -21.0366  -42.5023   -7.0878 C   0  0  0  0  0  0  0  0  0  0  0  0
  -20.0345  -40.8336   -8.4249 C   0  0  0  0  0  0  0  0  0  0  0  0
  -21.1384  -40.1424   -8.3531 O   0  0  0  0  0  0  0  0  0  0  0  0
  -18.8643  -40.0719   -8.6857 N   0  0  0  0  0  0  0  0  0  0  0  0
  -17.4943  -40.4999   -8.4114 C   0  0  1  0  0  0  0  0  0  0  0  0
  -16.9141  -41.1537   -9.6318 C   0  0  0  0  0  0  0  0  0  0  0  0
  -16.0040  -42.3136   -9.4130 C   0  0  0  0  0  0  0  0  0  0  0  0
  -16.1979  -43.4964   -8.7598 C   0  0  0  0  0  0  0  0  0  0  0  0
  -15.1926  -44.4541   -8.7824 C   0  0  0  0  0  0  0  0  0  0  0  0
  -13.9986  -44.1890   -9.4656 C   0  0  0  0  0  0  0  0  0  0  0  0
  -13.7547  -43.0159  -10.1330 C   0  0  0  0  0  0  0  0  0  0  0  0
  -14.7709  -42.1057  -10.0882 C   0  0  0  0  0  0  0  0  0  0  0  0
  -15.1778  -45.7065   -8.2075 O   0  0  0  0  0  0  0  0  0  0  0  0
  -15.9788  -46.8382   -8.2211 C   0  0  0  0  0  0  0  0  0  0  0  0
  -17.4199  -46.6106   -7.8326 C   0  0  0  0  0  0  0  0  0  0  0  0
  -18.2494  -46.4431   -9.0699 C   0  0  0  0  0  0  0  0  0  0  0  0
  -19.5026  -45.8573   -8.8525 O   0  0  0  0  0  0  0  0  0  0  0  0
  -16.6649  -39.3866   -7.8657 C   0  0  2  0  0  0  0  0  0  0  0  0
  -15.6101  -39.9901   -7.1480 O   0  0  0  0  0  0  0  0  0  0  0  0
  -17.3486  -38.4599   -6.9179 C   0  0  0  0  0  0  0  0  0  0  0  0
  -18.7348  -38.8844   -6.8346 N   0  0  0  0  0  0  0  0  0  0  0  0
  -19.6656  -38.0324   -7.5091 C   0  0  0  0  0  0  0  0  0  0  0  0
  -20.5203  -37.0429   -6.8842 C   0  0  0  0  0  0  0  0  0  0  0  0
  -21.1079  -38.4001   -7.2259 C   0  0  0  0  0  0  0  0  0  0  0  0
  -19.4106  -37.8914   -8.9858 C   0  0  0  0  0  0  0  0  0  0  0  0
  -20.0666  -36.9426   -9.7567 C   0  0  0  0  0  0  0  0  0  0  0  0
  -19.8400  -36.7954  -11.1046 C   0  0  0  0  0  0  0  0  0  0  0  0
  -18.9360  -37.6021  -11.7457 C   0  0  0  0  0  0  0  0  0  0  0  0
  -18.2599  -38.5608  -11.0168 C   0  0  0  0  0  0  0  0  0  0  0  0
  -18.5030  -38.6930   -9.6576 C   0  0  0  0  0  0  0  0  0  0  0  0
  -20.5623  -35.7733  -11.8763 C   0  0  0  0  0  0  0  0  0  0  0  0
  -19.7928  -34.4770  -11.8180 C   0  0  0  0  0  0  0  0  0  0  0  0
  -21.9459  -35.5151  -11.3220 C   0  0  0  0  0  0  0  0  0  0  0  0
  1  2  1  0
  2  3  1  0
  3  4  1  0
  4  5  2  0
  5  6  1  0
  6  7  2  0
  7  8  1  0
  8  9  2  0
  8 10  1  0
 10 11  2  0
 10 12  1  0
 12 13  1  0
 13 14  1  6
 14 15  1  0
 15 16  1  0
 16 17  2  0
 17 18  1  0
 18 19  2  0
 19 20  1  0
 17 21  1  0
 21 22  1  0
 22 23  1  0
 23 24  1  0
 24 25  1  0
 13 26  1  0
 26 27  1  1
 26 28  1  0
 28 29  1  0
 29 30  1  0
 30 31  1  0
 31 32  1  0
 30 33  1  0
 33 34  2  0
 34 35  1  0
 35 36  2  0
 36 37  1  0
 37 38  2  0
 35 39  1  0
 39 40  1  0
 39 41  1  0
  9  4  1  0
 20 15  2  0
 25  6  1  0
 32 30  1  0
 38 33  1  0
M  END
$$$$
