
     RDKit          3D

 41 45  0  0  0  0  0  0  0  0999 V2000
  -17.8658  -47.6083   -9.1890 C   0  0  0  0  0  0  0  0  0  0  0  0
  -17.9877  -46.2717   -9.4768 O   0  0  0  0  0  0  0  0  0  0  0  0
  -16.7582  -45.6348   -9.5651 C   0  0  0  0  0  0  0  0  0  0  0  0
  -16.8947  -44.3386  -10.2620 C   0  0  0  0  0  0  0  0  0  0  0  0
  -16.2500  -44.0415  -11.4318 C   0  0  0  0  0  0  0  0  0  0  0  0
  -16.3862  -42.7991  -12.0867 C   0  0  0  0  0  0  0  0  0  0  0  0
  -17.2010  -41.8100  -11.5593 C   0  0  0  0  0  0  0  0  0  0  0  0
  -17.8554  -42.0792  -10.3847 C   0  0  0  0  0  0  0  0  0  0  0  0
  -17.6883  -43.3456   -9.7593 C   0  0  0  0  0  0  0  0  0  0  0  0
  -18.7179  -41.2324   -9.5336 C   0  0  0  0  0  0  0  0  0  0  0  0
  -19.7870  -41.8251   -9.0784 O   0  0  0  0  0  0  0  0  0  0  0  0
  -18.5638  -39.8788   -9.1317 N   0  0  0  0  0  0  0  0  0  0  0  0
  -17.3097  -39.1288   -9.1388 C   0  0  1  0  0  0  0  0  0  0  0  0
  -17.1687  -38.3902  -10.4381 C   0  0  0  0  0  0  0  0  0  0  0  0
  -15.7978  -38.2836  -11.0132 C   0  0  0  0  0  0  0  0  0  0  0  0
  -14.8905  -39.2442  -11.3558 C   0  0  0  0  0  0  0  0  0  0  0  0
  -13.7007  -38.8649  -11.9631 C   0  0  0  0  0  0  0  0  0  0  0  0
  -13.4489  -37.5083  -12.2062 C   0  0  0  0  0  0  0  0  0  0  0  0
  -14.3260  -36.5065  -11.8775 C   0  0  0  0  0  0  0  0  0  0  0  0
  -15.4834  -36.9251  -11.2872 C   0  0  0  0  0  0  0  0  0  0  0  0
  -12.6600  -39.6571  -12.3973 O   0  0  0  0  0  0  0  0  0  0  0  0
  -12.4998  -40.7552  -13.2286 C   0  0  0  0  0  0  0  0  0  0  0  0
  -13.3474  -41.9550  -12.8795 C   0  0  0  0  0  0  0  0  0  0  0  0
  -14.5896  -41.9489  -13.7184 C   0  0  0  0  0  0  0  0  0  0  0  0
  -15.6172  -42.7702  -13.2382 O   0  0  0  0  0  0  0  0  0  0  0  0
  -17.1743  -38.2646   -7.9305 C   0  0  2  0  0  0  0  0  0  0  0  0
  -15.8052  -38.2706   -7.5876 O   0  0  0  0  0  0  0  0  0  0  0  0
  -17.9187  -38.7088   -6.7168 C   0  0  0  0  0  0  0  0  0  0  0  0
  -19.2142  -38.0539   -6.7498 N   0  0  0  0  0  0  0  0  0  0  0  0
  -20.2627  -38.8258   -7.3433 C   0  0  0  0  0  0  0  0  0  0  0  0
  -20.1290  -39.7035   -8.4887 C   0  0  0  0  0  0  0  0  0  0  0  0
  -20.6758  -38.3040   -8.7044 C   0  0  0  0  0  0  0  0  0  0  0  0
  -21.4534  -39.0361   -6.4469 C   0  0  0  0  0  0  0  0  0  0  0  0
  -21.4425  -39.9670   -5.4183 C   0  0  0  0  0  0  0  0  0  0  0  0
  -22.5182  -40.1664   -4.5859 C   0  0  0  0  0  0  0  0  0  0  0  0
  -23.6647  -39.4332   -4.7503 C   0  0  0  0  0  0  0  0  0  0  0  0
  -23.7196  -38.4950   -5.7623 C   0  0  0  0  0  0  0  0  0  0  0  0
  -22.6231  -38.3091   -6.5912 C   0  0  0  0  0  0  0  0  0  0  0  0
  -22.4549  -41.1665   -3.5100 C   0  0  0  0  0  0  0  0  0  0  0  0
  -23.8253  -41.7662   -3.3136 C   0  0  0  0  0  0  0  0  0  0  0  0
  -22.0232  -40.5587   -2.1937 C   0  0  0  0  0  0  0  0  0  0  0  0
  1  2  1  0
  2  3  1  0
  3  4  1  0
  4  5  2  0
  5  6  1  0
  6  7  2  0
  7  8  1  0
  8  9  2  0
  8 10  1  0
 10 11  2  0
 10 12  1  0
 12 13  1  0
 13 14  1  6
 14 15  1  0
 15 16  1  0
 16 17  2  0
 17 18  1  0
 18 19  2  0
 19 20  1  0
 17 21  1  0
 21 22  1  0
 22 23  1  0
 23 24  1  0
 24 25  1  0
 13 26  1  0
 26 27  1  1
 26 28  1  0
 28 29  1  0
 29 30  1  0
 30 31  1  0
 31 32  1  0
 30 33  1  0
 33 34  2  0
 34 35  1  0
 35 36  2  0
 36 37  1  0
 37 38  2  0
 35 39  1  0
 39 40  1  0
 39 41  1  0
  9  4  1  0
 20 15  2  0
 25  6  1  0
 32 30  1  0
 38 33  1  0
M  END
$$$$
