
     RDKit          3D

 41 45  0  0  0  0  0  0  0  0999 V2000
  -20.2897  -47.1505   -6.9822 C   0  0  0  0  0  0  0  0  0  0  0  0
  -19.0108  -47.3395   -7.4437 O   0  0  0  0  0  0  0  0  0  0  0  0
  -18.1496  -46.3267   -7.0465 C   0  0  0  0  0  0  0  0  0  0  0  0
  -17.8544  -45.4235   -8.1785 C   0  0  0  0  0  0  0  0  0  0  0  0
  -16.9836  -45.7391   -9.1857 C   0  0  0  0  0  0  0  0  0  0  0  0
  -16.7078  -44.8671  -10.2604 C   0  0  0  0  0  0  0  0  0  0  0  0
  -17.3264  -43.6297  -10.3405 C   0  0  0  0  0  0  0  0  0  0  0  0
  -18.2005  -43.2856   -9.3415 C   0  0  0  0  0  0  0  0  0  0  0  0
  -18.4480  -44.1961   -8.2773 C   0  0  0  0  0  0  0  0  0  0  0  0
  -18.9499  -42.0364   -9.0899 C   0  0  0  0  0  0  0  0  0  0  0  0
  -20.1888  -42.2077   -8.7197 O   0  0  0  0  0  0  0  0  0  0  0  0
  -18.5324  -40.6820   -9.1844 N   0  0  0  0  0  0  0  0  0  0  0  0
  -17.1471  -40.2174   -9.1644 C   0  0  1  0  0  0  0  0  0  0  0  0
  -16.6300  -40.1062  -10.5693 C   0  0  0  0  0  0  0  0  0  0  0  0
  -15.2029  -40.4701  -10.7983 C   0  0  0  0  0  0  0  0  0  0  0  0
  -14.5173  -41.6218  -10.5400 C   0  0  0  0  0  0  0  0  0  0  0  0
  -13.1917  -41.7240  -10.9406 C   0  0  0  0  0  0  0  0  0  0  0  0
  -12.5803  -40.6457  -11.5934 C   0  0  0  0  0  0  0  0  0  0  0  0
  -13.2247  -39.4675  -11.8720 C   0  0  0  0  0  0  0  0  0  0  0  0
  -14.5264  -39.4128  -11.4646 C   0  0  0  0  0  0  0  0  0  0  0  0
  -12.3229  -42.7838  -10.7942 O   0  0  0  0  0  0  0  0  0  0  0  0
  -12.3104  -44.1352  -11.1043 C   0  0  0  0  0  0  0  0  0  0  0  0
  -13.4699  -44.9315  -10.5555 C   0  0  0  0  0  0  0  0  0  0  0  0
  -14.5274  -45.0633  -11.6096 C   0  0  0  0  0  0  0  0  0  0  0  0
  -15.7866  -45.4365  -11.1236 O   0  0  0  0  0  0  0  0  0  0  0  0
  -16.9924  -38.9713   -8.3592 C   0  0  2  0  0  0  0  0  0  0  0  0
  -15.9267  -39.2050   -7.4639 O   0  0  0  0  0  0  0  0  0  0  0  0
  -18.1661  -38.5742   -7.5289 C   0  0  0  0  0  0  0  0  0  0  0  0
  -18.8352  -39.7984   -7.1263 N   0  0  0  0  0  0  0  0  0  0  0  0
  -20.2643  -39.7281   -7.1206 C   0  0  0  0  0  0  0  0  0  0  0  0
  -21.1458  -40.4113   -6.1952 C   0  0  0  0  0  0  0  0  0  0  0  0
  -20.9162  -41.0211   -7.5662 C   0  0  0  0  0  0  0  0  0  0  0  0
  -20.8239  -38.5429   -7.8607 C   0  0  0  0  0  0  0  0  0  0  0  0
  -20.0516  -37.7920   -8.7350 C   0  0  0  0  0  0  0  0  0  0  0  0
  -20.5488  -36.7116   -9.4245 C   0  0  0  0  0  0  0  0  0  0  0  0
  -21.8565  -36.3326   -9.2658 C   0  0  0  0  0  0  0  0  0  0  0  0
  -22.6620  -37.0521   -8.4049 C   0  0  0  0  0  0  0  0  0  0  0  0
  -22.1409  -38.1391   -7.7187 C   0  0  0  0  0  0  0  0  0  0  0  0
  -19.6874  -35.9488  -10.3398 C   0  0  0  0  0  0  0  0  0  0  0  0
  -19.5282  -36.7218  -11.6255 C   0  0  0  0  0  0  0  0  0  0  0  0
  -18.3073  -35.7205   -9.7637 C   0  0  0  0  0  0  0  0  0  0  0  0
  1  2  1  0
  2  3  1  0
  3  4  1  0
  4  5  2  0
  5  6  1  0
  6  7  2  0
  7  8  1  0
  8  9  2  0
  8 10  1  0
 10 11  2  0
 10 12  1  0
 12 13  1  0
 13 14  1  6
 14 15  1  0
 15 16  1  0
 16 17  2  0
 17 18  1  0
 18 19  2  0
 19 20  1  0
 17 21  1  0
 21 22  1  0
 22 23  1  0
 23 24  1  0
 24 25  1  0
 13 26  1  0
 26 27  1  1
 26 28  1  0
 28 29  1  0
 29 30  1  0
 30 31  1  0
 31 32  1  0
 30 33  1  0
 33 34  2  0
 34 35  1  0
 35 36  2  0
 36 37  1  0
 37 38  2  0
 35 39  1  0
 39 40  1  0
 39 41  1  0
  9  4  1  0
 20 15  2  0
 25  6  1  0
 32 30  1  0
 38 33  1  0
M  END
$$$$
