
     RDKit          3D

 41 45  0  0  0  0  0  0  0  0999 V2000
  -18.7507  -46.3738  -11.5083 C   0  0  0  0  0  0  0  0  0  0  0  0
  -19.9552  -45.9542  -11.0009 O   0  0  0  0  0  0  0  0  0  0  0  0
  -20.0499  -44.5713  -10.9369 C   0  0  0  0  0  0  0  0  0  0  0  0
  -19.5936  -44.0809   -9.6195 C   0  0  0  0  0  0  0  0  0  0  0  0
  -20.2836  -44.2936   -8.4571 C   0  0  0  0  0  0  0  0  0  0  0  0
  -19.8391  -43.8180   -7.2052 C   0  0  0  0  0  0  0  0  0  0  0  0
  -18.6562  -43.1035   -7.1022 C   0  0  0  0  0  0  0  0  0  0  0  0
  -17.9468  -42.8714   -8.2526 C   0  0  0  0  0  0  0  0  0  0  0  0
  -18.4331  -43.3697   -9.4928 C   0  0  0  0  0  0  0  0  0  0  0  0
  -16.7144  -42.0925   -8.4971 C   0  0  0  0  0  0  0  0  0  0  0  0
  -15.8554  -42.6650   -9.2945 O   0  0  0  0  0  0  0  0  0  0  0  0
  -16.3211  -40.8199   -8.0038 N   0  0  0  0  0  0  0  0  0  0  0  0
  -17.2209  -39.8061   -7.4580 C   0  0  1  0  0  0  0  0  0  0  0  0
  -17.3152  -39.9622   -5.9679 C   0  0  0  0  0  0  0  0  0  0  0  0
  -18.6409  -39.6980   -5.3401 C   0  0  0  0  0  0  0  0  0  0  0  0
  -19.8681  -40.2508   -5.5672 C   0  0  0  0  0  0  0  0  0  0  0  0
  -20.9379  -39.8752   -4.7654 C   0  0  0  0  0  0  0  0  0  0  0  0
  -20.7426  -38.9340   -3.7463 C   0  0  0  0  0  0  0  0  0  0  0  0
  -19.5313  -38.3478   -3.4813 C   0  0  0  0  0  0  0  0  0  0  0  0
  -18.5079  -38.7494   -4.2903 C   0  0  0  0  0  0  0  0  0  0  0  0
  -22.2456  -40.3080   -4.8091 O   0  0  0  0  0  0  0  0  0  0  0  0
  -22.9132  -41.5229   -4.7828 C   0  0  0  0  0  0  0  0  0  0  0  0
  -22.4864  -42.5140   -5.8388 C   0  0  0  0  0  0  0  0  0  0  0  0
  -21.4792  -43.4596   -5.2572 C   0  0  0  0  0  0  0  0  0  0  0  0
  -20.7334  -44.1681   -6.2073 O   0  0  0  0  0  0  0  0  0  0  0  0
  -16.8433  -38.4332   -7.9027 C   0  0  2  0  0  0  0  0  0  0  0  0
  -18.0377  -37.6820   -7.9345 O   0  0  0  0  0  0  0  0  0  0  0  0
  -16.2365  -38.3249   -9.2609 C   0  0  0  0  0  0  0  0  0  0  0  0
  -15.5362  -39.5716   -9.5137 N   0  0  0  0  0  0  0  0  0  0  0  0
  -14.2294  -39.4230  -10.0774 C   0  0  0  0  0  0  0  0  0  0  0  0
  -13.2789  -40.4910  -10.3144 C   0  0  0  0  0  0  0  0  0  0  0  0
  -13.1255  -39.6446   -9.0636 C   0  0  0  0  0  0  0  0  0  0  0  0
  -14.0313  -38.1401  -10.8392 C   0  0  0  0  0  0  0  0  0  0  0  0
  -15.0942  -37.4503  -11.4043 C   0  0  0  0  0  0  0  0  0  0  0  0
  -14.9318  -36.2737  -12.0965 C   0  0  0  0  0  0  0  0  0  0  0  0
  -13.6828  -35.7313  -12.2542 C   0  0  0  0  0  0  0  0  0  0  0  0
  -12.5956  -36.3848  -11.7079 C   0  0  0  0  0  0  0  0  0  0  0  0
  -12.7810  -37.5708  -11.0130 C   0  0  0  0  0  0  0  0  0  0  0  0
  -16.0924  -35.5818  -12.6763 C   0  0  0  0  0  0  0  0  0  0  0  0
  -17.3494  -36.0880  -12.0133 C   0  0  0  0  0  0  0  0  0  0  0  0
  -16.2200  -35.8336  -14.1625 C   0  0  0  0  0  0  0  0  0  0  0  0
  1  2  1  0
  2  3  1  0
  3  4  1  0
  4  5  2  0
  5  6  1  0
  6  7  2  0
  7  8  1  0
  8  9  2  0
  8 10  1  0
 10 11  2  0
 10 12  1  0
 12 13  1  0
 13 14  1  1
 14 15  1  0
 15 16  1  0
 16 17  2  0
 17 18  1  0
 18 19  2  0
 19 20  1  0
 17 21  1  0
 21 22  1  0
 22 23  1  0
 23 24  1  0
 24 25  1  0
 13 26  1  0
 26 27  1  6
 26 28  1  0
 28 29  1  0
 29 30  1  0
 30 31  1  0
 31 32  1  0
 30 33  1  0
 33 34  2  0
 34 35  1  0
 35 36  2  0
 36 37  1  0
 37 38  2  0
 35 39  1  0
 39 40  1  0
 39 41  1  0
  9  4  1  0
 20 15  2  0
 25  6  1  0
 32 30  1  0
 38 33  1  0
M  END
$$$$
