
     RDKit          3D

 41 45  0  0  0  0  0  0  0  0999 V2000
  -21.0572  -47.0702   -8.8835 C   0  0  0  0  0  0  0  0  0  0  0  0
  -20.7723  -45.7725   -8.5381 O   0  0  0  0  0  0  0  0  0  0  0  0
  -19.4979  -45.6336   -8.0072 C   0  0  0  0  0  0  0  0  0  0  0  0
  -18.6432  -44.8372   -8.9126 C   0  0  0  0  0  0  0  0  0  0  0  0
  -17.6708  -45.3846   -9.7047 C   0  0  0  0  0  0  0  0  0  0  0  0
  -16.8591  -44.6134  -10.5634 C   0  0  0  0  0  0  0  0  0  0  0  0
  -17.0224  -43.2395  -10.6421 C   0  0  0  0  0  0  0  0  0  0  0  0
  -17.9867  -42.6639   -9.8552 C   0  0  0  0  0  0  0  0  0  0  0  0
  -18.7817  -43.4804   -9.0043 C   0  0  0  0  0  0  0  0  0  0  0  0
  -18.3562  -41.2479   -9.6458 C   0  0  0  0  0  0  0  0  0  0  0  0
  -19.6396  -41.0168   -9.6163 O   0  0  0  0  0  0  0  0  0  0  0  0
  -17.5349  -40.1027   -9.4684 N   0  0  0  0  0  0  0  0  0  0  0  0
  -16.1347  -40.1188   -9.0508 C   0  0  1  0  0  0  0  0  0  0  0  0
  -15.2457  -40.1331  -10.2604 C   0  0  0  0  0  0  0  0  0  0  0  0
  -13.9931  -40.9361  -10.1729 C   0  0  0  0  0  0  0  0  0  0  0  0
  -13.7910  -42.2574   -9.8961 C   0  0  0  0  0  0  0  0  0  0  0  0
  -12.5040  -42.7741   -9.9667 C   0  0  0  0  0  0  0  0  0  0  0  0
  -11.4381  -41.9331  -10.3120 C   0  0  0  0  0  0  0  0  0  0  0  0
  -11.5890  -40.5996  -10.5950 C   0  0  0  0  0  0  0  0  0  0  0  0
  -12.8705  -40.1359  -10.5177 C   0  0  0  0  0  0  0  0  0  0  0  0
  -12.0762  -44.0645   -9.7410 O   0  0  0  0  0  0  0  0  0  0  0  0
  -12.3941  -45.3334  -10.2009 C   0  0  0  0  0  0  0  0  0  0  0  0
  -13.8452  -45.7248  -10.0564 C   0  0  0  0  0  0  0  0  0  0  0  0
  -14.5625  -45.4650  -11.3467 C   0  0  0  0  0  0  0  0  0  0  0  0
  -15.9578  -45.4220  -11.2356 O   0  0  0  0  0  0  0  0  0  0  0  0
  -15.8316  -39.0218   -8.0865 C   0  0  2  0  0  0  0  0  0  0  0  0
  -15.2601  -39.6355   -6.9514 O   0  0  0  0  0  0  0  0  0  0  0  0
  -16.9994  -38.2316   -7.6002 C   0  0  0  0  0  0  0  0  0  0  0  0
  -18.1672  -38.7165   -8.3141 N   0  0  0  0  0  0  0  0  0  0  0  0
  -19.3764  -38.7299   -7.5492 C   0  0  0  0  0  0  0  0  0  0  0  0
  -19.4869  -39.0422   -6.1384 C   0  0  0  0  0  0  0  0  0  0  0  0
  -19.8021  -40.1283   -7.1509 C   0  0  0  0  0  0  0  0  0  0  0  0
  -20.5097  -37.9649   -8.1784 C   0  0  0  0  0  0  0  0  0  0  0  0
  -20.3157  -37.1313   -9.2703 C   0  0  0  0  0  0  0  0  0  0  0  0
  -21.3407  -36.4315   -9.8615 C   0  0  0  0  0  0  0  0  0  0  0  0
  -22.6191  -36.5380   -9.3785 C   0  0  0  0  0  0  0  0  0  0  0  0
  -22.8580  -37.3570   -8.2925 C   0  0  0  0  0  0  0  0  0  0  0  0
  -21.8099  -38.0546   -7.7104 C   0  0  0  0  0  0  0  0  0  0  0  0
  -21.0812  -35.5607  -11.0175 C   0  0  0  0  0  0  0  0  0  0  0  0
  -21.5581  -34.1652  -10.6999 C   0  0  0  0  0  0  0  0  0  0  0  0
  -21.8122  -36.0283  -12.2567 C   0  0  0  0  0  0  0  0  0  0  0  0
  1  2  1  0
  2  3  1  0
  3  4  1  0
  4  5  2  0
  5  6  1  0
  6  7  2  0
  7  8  1  0
  8  9  2  0
  8 10  1  0
 10 11  2  0
 10 12  1  0
 12 13  1  0
 13 14  1  6
 14 15  1  0
 15 16  1  0
 16 17  2  0
 17 18  1  0
 18 19  2  0
 19 20  1  0
 17 21  1  0
 21 22  1  0
 22 23  1  0
 23 24  1  0
 24 25  1  0
 13 26  1  0
 26 27  1  1
 26 28  1  0
 28 29  1  0
 29 30  1  0
 30 31  1  0
 31 32  1  0
 30 33  1  0
 33 34  2  0
 34 35  1  0
 35 36  2  0
 36 37  1  0
 37 38  2  0
 35 39  1  0
 39 40  1  0
 39 41  1  0
  9  4  1  0
 20 15  2  0
 25  6  1  0
 32 30  1  0
 38 33  1  0
M  END
$$$$
