
     RDKit          3D

 41 45  0  0  0  0  0  0  0  0999 V2000
  -20.7018  -43.0544   -1.7629 C   0  0  0  0  0  0  0  0  0  0  0  0
  -20.9935  -43.8103   -2.8709 O   0  0  0  0  0  0  0  0  0  0  0  0
  -21.9329  -43.2043   -3.6929 C   0  0  0  0  0  0  0  0  0  0  0  0
  -21.4446  -43.1512   -5.0869 C   0  0  0  0  0  0  0  0  0  0  0  0
  -21.3938  -44.2441   -5.9087 C   0  0  0  0  0  0  0  0  0  0  0  0
  -20.9229  -44.1815   -7.2374 C   0  0  0  0  0  0  0  0  0  0  0  0
  -20.4871  -42.9808   -7.7748 C   0  0  0  0  0  0  0  0  0  0  0  0
  -20.5225  -41.8701   -6.9714 C   0  0  0  0  0  0  0  0  0  0  0  0
  -21.0050  -41.9801   -5.6380 C   0  0  0  0  0  0  0  0  0  0  0  0
  -20.0659  -40.4836   -7.2050 C   0  0  0  0  0  0  0  0  0  0  0  0
  -20.8847  -39.5603   -6.7827 O   0  0  0  0  0  0  0  0  0  0  0  0
  -18.8765  -40.0002   -7.8125 N   0  0  0  0  0  0  0  0  0  0  0  0
  -17.6422  -40.7626   -7.9872 C   0  0  1  0  0  0  0  0  0  0  0  0
  -17.6420  -41.4239   -9.3349 C   0  0  0  0  0  0  0  0  0  0  0  0
  -17.0319  -42.7808   -9.4253 C   0  0  0  0  0  0  0  0  0  0  0  0
  -17.3116  -43.9375   -8.7565 C   0  0  0  0  0  0  0  0  0  0  0  0
  -16.6359  -45.0998   -9.1039 C   0  0  0  0  0  0  0  0  0  0  0  0
  -15.6774  -45.0649  -10.1250 C   0  0  0  0  0  0  0  0  0  0  0  0
  -15.3584  -43.9282  -10.8231 C   0  0  0  0  0  0  0  0  0  0  0  0
  -16.0496  -42.8113  -10.4517 C   0  0  0  0  0  0  0  0  0  0  0  0
  -16.7649  -46.3662   -8.5758 O   0  0  0  0  0  0  0  0  0  0  0  0
  -17.7911  -47.2706   -8.3486 C   0  0  0  0  0  0  0  0  0  0  0  0
  -18.9414  -46.7441   -7.5245 C   0  0  0  0  0  0  0  0  0  0  0  0
  -20.0350  -46.2760   -8.4365 C   0  0  0  0  0  0  0  0  0  0  0  0
  -20.9738  -45.4322   -7.8301 O   0  0  0  0  0  0  0  0  0  0  0  0
  -16.4340  -39.9300   -7.7185 C   0  0  2  0  0  0  0  0  0  0  0  0
  -16.3199  -39.8345   -6.3150 O   0  0  0  0  0  0  0  0  0  0  0  0
  -16.4689  -38.5325   -8.2384 C   0  0  0  0  0  0  0  0  0  0  0  0
  -16.6070  -38.6195   -9.6813 N   0  0  0  0  0  0  0  0  0  0  0  0
  -17.3617  -37.5601  -10.2776 C   0  0  0  0  0  0  0  0  0  0  0  0
  -17.1263  -36.9790  -11.5841 C   0  0  0  0  0  0  0  0  0  0  0  0
  -16.5847  -36.2621  -10.3606 C   0  0  0  0  0  0  0  0  0  0  0  0
  -18.7204  -37.3531   -9.6639 C   0  0  0  0  0  0  0  0  0  0  0  0
  -19.7367  -38.2879   -9.7983 C   0  0  0  0  0  0  0  0  0  0  0  0
  -20.9806  -38.1181   -9.2381 C   0  0  0  0  0  0  0  0  0  0  0  0
  -21.2631  -36.9911   -8.5108 C   0  0  0  0  0  0  0  0  0  0  0  0
  -20.2804  -36.0337   -8.3514 C   0  0  0  0  0  0  0  0  0  0  0  0
  -19.0318  -36.2244   -8.9247 C   0  0  0  0  0  0  0  0  0  0  0  0
  -22.0234  -39.1401   -9.4106 C   0  0  0  0  0  0  0  0  0  0  0  0
  -23.1387  -38.8763   -8.4297 C   0  0  0  0  0  0  0  0  0  0  0  0
  -21.5000  -40.5356   -9.1513 C   0  0  0  0  0  0  0  0  0  0  0  0
  1  2  1  0
  2  3  1  0
  3  4  1  0
  4  5  2  0
  5  6  1  0
  6  7  2  0
  7  8  1  0
  8  9  2  0
  8 10  1  0
 10 11  2  0
 10 12  1  0
 12 13  1  0
 13 14  1  6
 14 15  1  0
 15 16  1  0
 16 17  2  0
 17 18  1  0
 18 19  2  0
 19 20  1  0
 17 21  1  0
 21 22  1  0
 22 23  1  0
 23 24  1  0
 24 25  1  0
 13 26  1  0
 26 27  1  1
 26 28  1  0
 28 29  1  0
 29 30  1  0
 30 31  1  0
 31 32  1  0
 30 33  1  0
 33 34  2  0
 34 35  1  0
 35 36  2  0
 36 37  1  0
 37 38  2  0
 35 39  1  0
 39 40  1  0
 39 41  1  0
  9  4  1  0
 20 15  2  0
 25  6  1  0
 32 30  1  0
 38 33  1  0
M  END
$$$$
