
     RDKit          3D

 41 45  0  0  0  0  0  0  0  0999 V2000
  -23.2861  -42.6234  -13.1317 C   0  0  0  0  0  0  0  0  0  0  0  0
  -22.8760  -41.4960  -12.4645 O   0  0  0  0  0  0  0  0  0  0  0  0
  -21.6038  -41.6320  -11.9273 C   0  0  0  0  0  0  0  0  0  0  0  0
  -21.0884  -40.3219  -11.4774 C   0  0  0  0  0  0  0  0  0  0  0  0
  -20.6855  -39.3363  -12.3368 C   0  0  0  0  0  0  0  0  0  0  0  0
  -20.1926  -38.0901  -11.8951 C   0  0  0  0  0  0  0  0  0  0  0  0
  -20.0992  -37.8088  -10.5414 C   0  0  0  0  0  0  0  0  0  0  0  0
  -20.4917  -38.7809   -9.6574 C   0  0  0  0  0  0  0  0  0  0  0  0
  -20.9822  -40.0226  -10.1478 C   0  0  0  0  0  0  0  0  0  0  0  0
  -20.4461  -38.8311   -8.1807 C   0  0  0  0  0  0  0  0  0  0  0  0
  -21.5159  -39.3208   -7.6174 O   0  0  0  0  0  0  0  0  0  0  0  0
  -19.4213  -38.4339   -7.2811 N   0  0  0  0  0  0  0  0  0  0  0  0
  -18.0124  -38.2550   -7.6250 C   0  0  1  0  0  0  0  0  0  0  0  0
  -17.7587  -36.8216   -7.9918 C   0  0  0  0  0  0  0  0  0  0  0  0
  -16.7783  -36.5636   -9.0843 C   0  0  0  0  0  0  0  0  0  0  0  0
  -16.7412  -36.9964  -10.3783 C   0  0  0  0  0  0  0  0  0  0  0  0
  -15.7425  -36.5257  -11.2205 C   0  0  0  0  0  0  0  0  0  0  0  0
  -14.7894  -35.6244  -10.7286 C   0  0  0  0  0  0  0  0  0  0  0  0
  -14.7818  -35.1632   -9.4370 C   0  0  0  0  0  0  0  0  0  0  0  0
  -15.7832  -35.6483   -8.6464 C   0  0  0  0  0  0  0  0  0  0  0  0
  -15.5231  -36.8169  -12.5496 O   0  0  0  0  0  0  0  0  0  0  0  0
  -16.2525  -36.7859  -13.7284 C   0  0  0  0  0  0  0  0  0  0  0  0
  -17.5426  -37.5701  -13.7070 C   0  0  0  0  0  0  0  0  0  0  0  0
  -18.6819  -36.6474  -13.3949 C   0  0  0  0  0  0  0  0  0  0  0  0
  -19.8516  -37.2924  -12.9747 O   0  0  0  0  0  0  0  0  0  0  0  0
  -17.1109  -38.7780   -6.5577 C   0  0  2  0  0  0  0  0  0  0  0  0
  -16.0581  -39.4472   -7.2179 O   0  0  0  0  0  0  0  0  0  0  0  0
  -17.7127  -39.7613   -5.6114 C   0  0  0  0  0  0  0  0  0  0  0  0
  -17.5867  -41.0719   -6.2237 N   0  0  0  0  0  0  0  0  0  0  0  0
  -18.8242  -41.7596   -6.4312 C   0  0  0  0  0  0  0  0  0  0  0  0
  -18.9709  -43.1354   -6.8623 C   0  0  0  0  0  0  0  0  0  0  0  0
  -19.1053  -42.0310   -7.8950 C   0  0  0  0  0  0  0  0  0  0  0  0
  -20.0043  -41.1192   -5.7509 C   0  0  0  0  0  0  0  0  0  0  0  0
  -21.2676  -41.1127   -6.3244 C   0  0  0  0  0  0  0  0  0  0  0  0
  -22.3574  -40.5392   -5.7135 C   0  0  0  0  0  0  0  0  0  0  0  0
  -22.2269  -39.9403   -4.4874 C   0  0  0  0  0  0  0  0  0  0  0  0
  -20.9868  -39.9235   -3.8795 C   0  0  0  0  0  0  0  0  0  0  0  0
  -19.8999  -40.5080   -4.5128 C   0  0  0  0  0  0  0  0  0  0  0  0
  -23.6755  -40.5596   -6.3647 C   0  0  0  0  0  0  0  0  0  0  0  0
  -24.7487  -40.4868   -5.3069 C   0  0  0  0  0  0  0  0  0  0  0  0
  -23.8964  -41.8266   -7.1611 C   0  0  0  0  0  0  0  0  0  0  0  0
  1  2  1  0
  2  3  1  0
  3  4  1  0
  4  5  2  0
  5  6  1  0
  6  7  2  0
  7  8  1  0
  8  9  2  0
  8 10  1  0
 10 11  2  0
 10 12  1  0
 12 13  1  0
 13 14  1  1
 14 15  1  0
 15 16  1  0
 16 17  2  0
 17 18  1  0
 18 19  2  0
 19 20  1  0
 17 21  1  0
 21 22  1  0
 22 23  1  0
 23 24  1  0
 24 25  1  0
 13 26  1  0
 26 27  1  6
 26 28  1  0
 28 29  1  0
 29 30  1  0
 30 31  1  0
 31 32  1  0
 30 33  1  0
 33 34  2  0
 34 35  1  0
 35 36  2  0
 36 37  1  0
 37 38  2  0
 35 39  1  0
 39 40  1  0
 39 41  1  0
  9  4  1  0
 20 15  2  0
 25  6  1  0
 32 30  1  0
 38 33  1  0
M  END
$$$$
