
     RDKit          3D

 41 45  0  0  0  0  0  0  0  0999 V2000
  -21.7716  -43.9247   -4.4852 C   0  0  0  0  0  0  0  0  0  0  0  0
  -22.5107  -43.3971   -5.5146 O   0  0  0  0  0  0  0  0  0  0  0  0
  -21.7431  -43.1460   -6.6430 C   0  0  0  0  0  0  0  0  0  0  0  0
  -21.3662  -41.7183   -6.7063 C   0  0  0  0  0  0  0  0  0  0  0  0
  -22.2670  -40.7111   -6.9219 C   0  0  0  0  0  0  0  0  0  0  0  0
  -21.8946  -39.3514   -6.9830 C   0  0  0  0  0  0  0  0  0  0  0  0
  -20.5711  -38.9750   -6.8191 C   0  0  0  0  0  0  0  0  0  0  0  0
  -19.6462  -39.9649   -6.6064 C   0  0  0  0  0  0  0  0  0  0  0  0
  -20.0669  -41.3225   -6.5527 C   0  0  0  0  0  0  0  0  0  0  0  0
  -18.1748  -39.9117   -6.4747 C   0  0  0  0  0  0  0  0  0  0  0  0
  -17.6841  -40.6571   -5.5233 O   0  0  0  0  0  0  0  0  0  0  0  0
  -17.2132  -39.1807   -7.2221 N   0  0  0  0  0  0  0  0  0  0  0  0
  -17.4217  -38.6205   -8.5555 C   0  0  1  0  0  0  0  0  0  0  0  0
  -17.8926  -37.1998   -8.4398 C   0  0  0  0  0  0  0  0  0  0  0  0
  -18.8948  -36.7331   -9.4394 C   0  0  0  0  0  0  0  0  0  0  0  0
  -20.1314  -37.2127   -9.7624 C   0  0  0  0  0  0  0  0  0  0  0  0
  -20.9039  -36.5228  -10.6874 C   0  0  0  0  0  0  0  0  0  0  0  0
  -20.4008  -35.3555  -11.2767 C   0  0  0  0  0  0  0  0  0  0  0  0
  -19.1647  -34.8361  -10.9886 C   0  0  0  0  0  0  0  0  0  0  0  0
  -18.4422  -35.5436  -10.0717 C   0  0  0  0  0  0  0  0  0  0  0  0
  -22.1691  -36.8161  -11.1483 O   0  0  0  0  0  0  0  0  0  0  0  0
  -23.4160  -37.0689  -10.5970 C   0  0  0  0  0  0  0  0  0  0  0  0
  -23.4574  -38.1918   -9.5885 C   0  0  0  0  0  0  0  0  0  0  0  0
  -23.3554  -37.6235   -8.2052 C   0  0  0  0  0  0  0  0  0  0  0  0
  -23.0023  -38.5548   -7.2208 O   0  0  0  0  0  0  0  0  0  0  0  0
  -16.2209  -38.7942   -9.4233 C   0  0  2  0  0  0  0  0  0  0  0  0
  -16.6374  -38.5101  -10.7415 O   0  0  0  0  0  0  0  0  0  0  0  0
  -15.6212  -40.1595   -9.4515 C   0  0  0  0  0  0  0  0  0  0  0  0
  -14.5364  -40.1669   -8.4863 N   0  0  0  0  0  0  0  0  0  0  0  0
  -14.3809  -41.3937   -7.7666 C   0  0  0  0  0  0  0  0  0  0  0  0
  -14.6062  -41.5818   -6.3474 C   0  0  0  0  0  0  0  0  0  0  0  0
  -13.1838  -41.3805   -6.8380 C   0  0  0  0  0  0  0  0  0  0  0  0
  -14.3923  -42.6219   -8.6366 C   0  0  0  0  0  0  0  0  0  0  0  0
  -14.1951  -43.8925   -8.1156 C   0  0  0  0  0  0  0  0  0  0  0  0
  -14.2100  -45.0251   -8.8947 C   0  0  0  0  0  0  0  0  0  0  0  0
  -14.4255  -44.9322  -10.2452 C   0  0  0  0  0  0  0  0  0  0  0  0
  -14.6265  -43.6865  -10.8066 C   0  0  0  0  0  0  0  0  0  0  0  0
  -14.6078  -42.5562  -10.0030 C   0  0  0  0  0  0  0  0  0  0  0  0
  -13.9954  -46.3490   -8.2922 C   0  0  0  0  0  0  0  0  0  0  0  0
  -15.1640  -46.6779   -7.3966 C   0  0  0  0  0  0  0  0  0  0  0  0
  -12.7400  -46.3932   -7.4493 C   0  0  0  0  0  0  0  0  0  0  0  0
  1  2  1  0
  2  3  1  0
  3  4  1  0
  4  5  2  0
  5  6  1  0
  6  7  2  0
  7  8  1  0
  8  9  2  0
  8 10  1  0
 10 11  2  0
 10 12  1  0
 12 13  1  0
 13 14  1  1
 14 15  1  0
 15 16  1  0
 16 17  2  0
 17 18  1  0
 18 19  2  0
 19 20  1  0
 17 21  1  0
 21 22  1  0
 22 23  1  0
 23 24  1  0
 24 25  1  0
 13 26  1  0
 26 27  1  6
 26 28  1  0
 28 29  1  0
 29 30  1  0
 30 31  1  0
 31 32  1  0
 30 33  1  0
 33 34  2  0
 34 35  1  0
 35 36  2  0
 36 37  1  0
 37 38  2  0
 35 39  1  0
 39 40  1  0
 39 41  1  0
  9  4  1  0
 20 15  2  0
 25  6  1  0
 32 30  1  0
 38 33  1  0
M  END
$$$$
