
     RDKit          3D

 41 45  0  0  0  0  0  0  0  0999 V2000
  -21.1798  -46.2652  -12.6308 C   0  0  0  0  0  0  0  0  0  0  0  0
  -21.1356  -45.1887  -11.7802 O   0  0  0  0  0  0  0  0  0  0  0  0
  -19.9100  -44.5388  -11.8120 C   0  0  0  0  0  0  0  0  0  0  0  0
  -20.0777  -43.1013  -11.5123 C   0  0  0  0  0  0  0  0  0  0  0  0
  -20.0859  -42.1280  -12.4741 C   0  0  0  0  0  0  0  0  0  0  0  0
  -20.2443  -40.7581  -12.1754 C   0  0  0  0  0  0  0  0  0  0  0  0
  -20.4054  -40.3364  -10.8652 C   0  0  0  0  0  0  0  0  0  0  0  0
  -20.3961  -41.2906   -9.8804 C   0  0  0  0  0  0  0  0  0  0  0  0
  -20.2334  -42.6601  -10.2279 C   0  0  0  0  0  0  0  0  0  0  0  0
  -20.4620  -41.1723   -8.4084 C   0  0  0  0  0  0  0  0  0  0  0  0
  -21.2434  -42.0386   -7.8250 O   0  0  0  0  0  0  0  0  0  0  0  0
  -19.8066  -40.2677   -7.5311 N   0  0  0  0  0  0  0  0  0  0  0  0
  -18.6032  -39.5010   -7.8464 C   0  0  1  0  0  0  0  0  0  0  0  0
  -18.9879  -38.1520   -8.3809 C   0  0  0  0  0  0  0  0  0  0  0  0
  -18.1358  -37.5823   -9.4630 C   0  0  0  0  0  0  0  0  0  0  0  0
  -17.7960  -38.0729  -10.6906 C   0  0  0  0  0  0  0  0  0  0  0  0
  -17.0448  -37.2826  -11.5505 C   0  0  0  0  0  0  0  0  0  0  0  0
  -16.6437  -36.0036  -11.1431 C   0  0  0  0  0  0  0  0  0  0  0  0
  -16.9562  -35.4678   -9.9199 C   0  0  0  0  0  0  0  0  0  0  0  0
  -17.6988  -36.2771   -9.1095 C   0  0  0  0  0  0  0  0  0  0  0  0
  -16.6032  -37.5683  -12.8244 O   0  0  0  0  0  0  0  0  0  0  0  0
  -17.1632  -37.9863  -14.0220 C   0  0  0  0  0  0  0  0  0  0  0  0
  -17.9614  -39.2656  -13.9466 C   0  0  0  0  0  0  0  0  0  0  0  0
  -19.4158  -38.9375  -13.7917 C   0  0  0  0  0  0  0  0  0  0  0  0
  -20.2042  -40.0006  -13.3342 O   0  0  0  0  0  0  0  0  0  0  0  0
  -17.6600  -39.4510   -6.6918 C   0  0  2  0  0  0  0  0  0  0  0  0
  -16.3726  -39.6910   -7.2182 O   0  0  0  0  0  0  0  0  0  0  0  0
  -17.8771  -40.4653   -5.6201 C   0  0  0  0  0  0  0  0  0  0  0  0
  -18.6554  -41.5422   -6.2059 N   0  0  0  0  0  0  0  0  0  0  0  0
  -19.8587  -41.8653   -5.5024 C   0  0  0  0  0  0  0  0  0  0  0  0
  -20.0973  -43.0707   -4.7341 C   0  0  0  0  0  0  0  0  0  0  0  0
  -20.6322  -42.9943   -6.1526 C   0  0  0  0  0  0  0  0  0  0  0  0
  -20.7425  -40.6800   -5.2204 C   0  0  0  0  0  0  0  0  0  0  0  0
  -22.1265  -40.7729   -5.2492 C   0  0  0  0  0  0  0  0  0  0  0  0
  -22.9482  -39.7025   -4.9867 C   0  0  0  0  0  0  0  0  0  0  0  0
  -22.4123  -38.4785   -4.6808 C   0  0  0  0  0  0  0  0  0  0  0  0
  -21.0387  -38.3404   -4.6409 C   0  0  0  0  0  0  0  0  0  0  0  0
  -20.2273  -39.4331   -4.9088 C   0  0  0  0  0  0  0  0  0  0  0  0
  -24.4100  -39.8545   -5.0305 C   0  0  0  0  0  0  0  0  0  0  0  0
  -24.7762  -41.2359   -4.5472 C   0  0  0  0  0  0  0  0  0  0  0  0
  -24.9563  -39.6950   -6.4321 C   0  0  0  0  0  0  0  0  0  0  0  0
  1  2  1  0
  2  3  1  0
  3  4  1  0
  4  5  2  0
  5  6  1  0
  6  7  2  0
  7  8  1  0
  8  9  2  0
  8 10  1  0
 10 11  2  0
 10 12  1  0
 12 13  1  0
 13 14  1  1
 14 15  1  0
 15 16  1  0
 16 17  2  0
 17 18  1  0
 18 19  2  0
 19 20  1  0
 17 21  1  0
 21 22  1  0
 22 23  1  0
 23 24  1  0
 24 25  1  0
 13 26  1  0
 26 27  1  6
 26 28  1  0
 28 29  1  0
 29 30  1  0
 30 31  1  0
 31 32  1  0
 30 33  1  0
 33 34  2  0
 34 35  1  0
 35 36  2  0
 36 37  1  0
 37 38  2  0
 35 39  1  0
 39 40  1  0
 39 41  1  0
  9  4  1  0
 20 15  2  0
 25  6  1  0
 32 30  1  0
 38 33  1  0
M  END
$$$$
