
     RDKit          3D

 41 45  0  0  0  0  0  0  0  0999 V2000
  -16.1279  -47.4094  -10.3063 C   0  0  0  0  0  0  0  0  0  0  0  0
  -16.1619  -46.5247   -9.2572 O   0  0  0  0  0  0  0  0  0  0  0  0
  -15.1780  -45.5510   -9.3537 C   0  0  0  0  0  0  0  0  0  0  0  0
  -15.7067  -44.3444  -10.0237 C   0  0  0  0  0  0  0  0  0  0  0  0
  -15.2786  -43.9165  -11.2509 C   0  0  0  0  0  0  0  0  0  0  0  0
  -15.7892  -42.7610  -11.8796 C   0  0  0  0  0  0  0  0  0  0  0  0
  -16.7703  -41.9994  -11.2649 C   0  0  0  0  0  0  0  0  0  0  0  0
  -17.2143  -42.4028  -10.0318 C   0  0  0  0  0  0  0  0  0  0  0  0
  -16.6709  -43.5742   -9.4358 C   0  0  0  0  0  0  0  0  0  0  0  0
  -18.1730  -41.7849   -9.0913 C   0  0  0  0  0  0  0  0  0  0  0  0
  -19.0065  -42.6192   -8.5340 O   0  0  0  0  0  0  0  0  0  0  0  0
  -18.3264  -40.4288   -8.6975 N   0  0  0  0  0  0  0  0  0  0  0  0
  -17.3096  -39.3873   -8.8267 C   0  0  1  0  0  0  0  0  0  0  0  0
  -17.4908  -38.6615  -10.1283 C   0  0  0  0  0  0  0  0  0  0  0  0
  -16.2561  -38.2236  -10.8390 C   0  0  0  0  0  0  0  0  0  0  0  0
  -15.1746  -38.9308  -11.2791 C   0  0  0  0  0  0  0  0  0  0  0  0
  -14.1863  -38.2753  -12.0014 C   0  0  0  0  0  0  0  0  0  0  0  0
  -14.3110  -36.9039  -12.2591 C   0  0  0  0  0  0  0  0  0  0  0  0
  -15.3753  -36.1495  -11.8357 C   0  0  0  0  0  0  0  0  0  0  0  0
  -16.3242  -36.8351  -11.1338 C   0  0  0  0  0  0  0  0  0  0  0  0
  -13.0281  -38.7877  -12.5450 O   0  0  0  0  0  0  0  0  0  0  0  0
  -12.6799  -39.8254  -13.3961 C   0  0  0  0  0  0  0  0  0  0  0  0
  -13.1574  -41.1932  -12.9713 C   0  0  0  0  0  0  0  0  0  0  0  0
  -14.4385  -41.5162  -13.6794 C   0  0  0  0  0  0  0  0  0  0  0  0
  -15.1718  -42.5608  -13.1031 O   0  0  0  0  0  0  0  0  0  0  0  0
  -17.2765  -38.4943   -7.6323 C   0  0  2  0  0  0  0  0  0  0  0  0
  -15.9855  -37.9252   -7.5957 O   0  0  0  0  0  0  0  0  0  0  0  0
  -17.4882  -39.1538   -6.3113 C   0  0  0  0  0  0  0  0  0  0  0  0
  -18.8968  -39.4966   -6.2287 N   0  0  0  0  0  0  0  0  0  0  0  0
  -19.7918  -38.3832   -6.3097 C   0  0  0  0  0  0  0  0  0  0  0  0
  -19.4114  -36.9849   -6.3178 C   0  0  0  0  0  0  0  0  0  0  0  0
  -19.8773  -37.6047   -5.0128 C   0  0  0  0  0  0  0  0  0  0  0  0
  -21.1581  -38.7306   -6.8373 C   0  0  0  0  0  0  0  0  0  0  0  0
  -21.8882  -39.7991   -6.3373 C   0  0  0  0  0  0  0  0  0  0  0  0
  -23.1400  -40.1254   -6.8023 C   0  0  0  0  0  0  0  0  0  0  0  0
  -23.7210  -39.3867   -7.8001 C   0  0  0  0  0  0  0  0  0  0  0  0
  -23.0296  -38.3136   -8.3274 C   0  0  0  0  0  0  0  0  0  0  0  0
  -21.7676  -38.0010   -7.8441 C   0  0  0  0  0  0  0  0  0  0  0  0
  -23.8720  -41.2688   -6.2377 C   0  0  0  0  0  0  0  0  0  0  0  0
  -24.5215  -42.0404   -7.3596 C   0  0  0  0  0  0  0  0  0  0  0  0
  -24.9630  -40.8310   -5.2855 C   0  0  0  0  0  0  0  0  0  0  0  0
  1  2  1  0
  2  3  1  0
  3  4  1  0
  4  5  2  0
  5  6  1  0
  6  7  2  0
  7  8  1  0
  8  9  2  0
  8 10  1  0
 10 11  2  0
 10 12  1  0
 12 13  1  0
 13 14  1  6
 14 15  1  0
 15 16  1  0
 16 17  2  0
 17 18  1  0
 18 19  2  0
 19 20  1  0
 17 21  1  0
 21 22  1  0
 22 23  1  0
 23 24  1  0
 24 25  1  0
 13 26  1  0
 26 27  1  1
 26 28  1  0
 28 29  1  0
 29 30  1  0
 30 31  1  0
 31 32  1  0
 30 33  1  0
 33 34  2  0
 34 35  1  0
 35 36  2  0
 36 37  1  0
 37 38  2  0
 35 39  1  0
 39 40  1  0
 39 41  1  0
  9  4  1  0
 20 15  2  0
 25  6  1  0
 32 30  1  0
 38 33  1  0
M  END
$$$$
