
     RDKit          3D

 41 45  0  0  0  0  0  0  0  0999 V2000
  -19.3819  -47.3310  -10.4631 C   0  0  0  0  0  0  0  0  0  0  0  0
  -18.9442  -46.0346  -10.3541 O   0  0  0  0  0  0  0  0  0  0  0  0
  -19.9877  -45.1201  -10.3730 C   0  0  0  0  0  0  0  0  0  0  0  0
  -19.9850  -44.3050   -9.1402 C   0  0  0  0  0  0  0  0  0  0  0  0
  -21.0653  -44.1967   -8.3072 C   0  0  0  0  0  0  0  0  0  0  0  0
  -21.0516  -43.4131   -7.1339 C   0  0  0  0  0  0  0  0  0  0  0  0
  -19.9147  -42.7094   -6.7695 C   0  0  0  0  0  0  0  0  0  0  0  0
  -18.8187  -42.7961   -7.5891 C   0  0  0  0  0  0  0  0  0  0  0  0
  -18.8778  -43.5981   -8.7622 C   0  0  0  0  0  0  0  0  0  0  0  0
  -17.5041  -42.1224   -7.5327 C   0  0  0  0  0  0  0  0  0  0  0  0
  -16.4834  -42.8938   -7.7869 O   0  0  0  0  0  0  0  0  0  0  0  0
  -17.1788  -40.7691   -7.2492 N   0  0  0  0  0  0  0  0  0  0  0  0
  -18.0990  -39.6377   -7.3416 C   0  0  1  0  0  0  0  0  0  0  0  0
  -18.7388  -39.3949   -6.0055 C   0  0  0  0  0  0  0  0  0  0  0  0
  -20.1645  -38.9605   -6.0043 C   0  0  0  0  0  0  0  0  0  0  0  0
  -21.2804  -39.5403   -6.5352 C   0  0  0  0  0  0  0  0  0  0  0  0
  -22.5193  -38.9554   -6.3090 C   0  0  0  0  0  0  0  0  0  0  0  0
  -22.6025  -37.7811   -5.5494 C   0  0  0  0  0  0  0  0  0  0  0  0
  -21.5114  -37.1589   -4.9985 C   0  0  0  0  0  0  0  0  0  0  0  0
  -20.3156  -37.7704   -5.2424 C   0  0  0  0  0  0  0  0  0  0  0  0
  -23.7626  -39.3703   -6.7348 O   0  0  0  0  0  0  0  0  0  0  0  0
  -24.5226  -40.5282   -6.6698 C   0  0  0  0  0  0  0  0  0  0  0  0
  -23.8550  -41.7669   -7.2171 C   0  0  0  0  0  0  0  0  0  0  0  0
  -23.2330  -42.5367   -6.0913 C   0  0  0  0  0  0  0  0  0  0  0  0
  -22.2770  -43.4784   -6.4919 O   0  0  0  0  0  0  0  0  0  0  0  0
  -17.4404  -38.4345   -7.9280 C   0  0  2  0  0  0  0  0  0  0  0  0
  -18.4362  -37.7513   -8.6585 O   0  0  0  0  0  0  0  0  0  0  0  0
  -16.3196  -38.6945   -8.8771 C   0  0  0  0  0  0  0  0  0  0  0  0
  -15.4965  -39.7353   -8.2874 N   0  0  0  0  0  0  0  0  0  0  0  0
  -14.7523  -40.5172   -9.2266 C   0  0  0  0  0  0  0  0  0  0  0  0
  -14.1302  -41.7991   -8.9623 C   0  0  0  0  0  0  0  0  0  0  0  0
  -13.2695  -40.5495   -8.9172 C   0  0  0  0  0  0  0  0  0  0  0  0
  -15.0093  -40.1575  -10.6654 C   0  0  0  0  0  0  0  0  0  0  0  0
  -16.2502  -39.7159  -11.1012 C   0  0  0  0  0  0  0  0  0  0  0  0
  -16.4998  -39.3761  -12.4097 C   0  0  0  0  0  0  0  0  0  0  0  0
  -15.5052  -39.4653  -13.3488 C   0  0  0  0  0  0  0  0  0  0  0  0
  -14.2538  -39.9005  -12.9589 C   0  0  0  0  0  0  0  0  0  0  0  0
  -14.0226  -40.2383  -11.6336 C   0  0  0  0  0  0  0  0  0  0  0  0
  -17.8337  -38.9134  -12.8199 C   0  0  0  0  0  0  0  0  0  0  0  0
  -17.8494  -38.7195  -14.3159 C   0  0  0  0  0  0  0  0  0  0  0  0
  -18.1994  -37.5930  -12.1787 C   0  0  0  0  0  0  0  0  0  0  0  0
  1  2  1  0
  2  3  1  0
  3  4  1  0
  4  5  2  0
  5  6  1  0
  6  7  2  0
  7  8  1  0
  8  9  2  0
  8 10  1  0
 10 11  2  0
 10 12  1  0
 12 13  1  0
 13 14  1  1
 14 15  1  0
 15 16  1  0
 16 17  2  0
 17 18  1  0
 18 19  2  0
 19 20  1  0
 17 21  1  0
 21 22  1  0
 22 23  1  0
 23 24  1  0
 24 25  1  0
 13 26  1  0
 26 27  1  6
 26 28  1  0
 28 29  1  0
 29 30  1  0
 30 31  1  0
 31 32  1  0
 30 33  1  0
 33 34  2  0
 34 35  1  0
 35 36  2  0
 36 37  1  0
 37 38  2  0
 35 39  1  0
 39 40  1  0
 39 41  1  0
  9  4  1  0
 20 15  2  0
 25  6  1  0
 32 30  1  0
 38 33  1  0
M  END
$$$$
