
     RDKit          3D

 41 45  0  0  0  0  0  0  0  0999 V2000
  -24.4321  -37.7439  -10.5801 C   0  0  0  0  0  0  0  0  0  0  0  0
  -24.2359  -38.9882  -10.0347 O   0  0  0  0  0  0  0  0  0  0  0  0
  -23.3957  -39.7780  -10.8065 C   0  0  0  0  0  0  0  0  0  0  0  0
  -22.5151  -40.5941   -9.9447 C   0  0  0  0  0  0  0  0  0  0  0  0
  -22.9845  -41.4820   -9.0153 C   0  0  0  0  0  0  0  0  0  0  0  0
  -22.1336  -42.2540   -8.1962 C   0  0  0  0  0  0  0  0  0  0  0  0
  -20.7568  -42.1426   -8.3071 C   0  0  0  0  0  0  0  0  0  0  0  0
  -20.2589  -41.2562   -9.2275 C   0  0  0  0  0  0  0  0  0  0  0  0
  -21.1543  -40.4985  -10.0319 C   0  0  0  0  0  0  0  0  0  0  0  0
  -18.8721  -40.8473   -9.5354 C   0  0  0  0  0  0  0  0  0  0  0  0
  -18.6015  -40.7476  -10.8075 O   0  0  0  0  0  0  0  0  0  0  0  0
  -17.7914  -40.5432   -8.6653 N   0  0  0  0  0  0  0  0  0  0  0  0
  -17.9136  -40.1748   -7.2565 C   0  0  1  0  0  0  0  0  0  0  0  0
  -17.7957  -41.4021   -6.4001 C   0  0  0  0  0  0  0  0  0  0  0  0
  -18.6473  -41.4618   -5.1784 C   0  0  0  0  0  0  0  0  0  0  0  0
  -20.0003  -41.3712   -5.0215 C   0  0  0  0  0  0  0  0  0  0  0  0
  -20.5481  -41.5501   -3.7581 C   0  0  0  0  0  0  0  0  0  0  0  0
  -19.7066  -41.8120   -2.6691 C   0  0  0  0  0  0  0  0  0  0  0  0
  -18.3426  -41.9087   -2.7745 C   0  0  0  0  0  0  0  0  0  0  0  0
  -17.8483  -41.7304   -4.0343 C   0  0  0  0  0  0  0  0  0  0  0  0
  -21.8716  -41.5130   -3.3758 O   0  0  0  0  0  0  0  0  0  0  0  0
  -23.0545  -42.1290   -3.7552 C   0  0  0  0  0  0  0  0  0  0  0  0
  -23.4099  -41.9938   -5.2164 C   0  0  0  0  0  0  0  0  0  0  0  0
  -22.9526  -43.2149   -5.9558 C   0  0  0  0  0  0  0  0  0  0  0  0
  -22.8754  -43.0561   -7.3450 O   0  0  0  0  0  0  0  0  0  0  0  0
  -16.9687  -39.0817   -6.8858 C   0  0  2  0  0  0  0  0  0  0  0  0
  -17.6657  -38.2372   -5.9954 O   0  0  0  0  0  0  0  0  0  0  0  0
  -16.4896  -38.2184   -8.0038 C   0  0  0  0  0  0  0  0  0  0  0  0
  -16.3390  -39.0746   -9.1669 N   0  0  0  0  0  0  0  0  0  0  0  0
  -15.1210  -38.8904   -9.8948 C   0  0  0  0  0  0  0  0  0  0  0  0
  -14.2749  -39.9444  -10.4176 C   0  0  0  0  0  0  0  0  0  0  0  0
  -13.8964  -39.2942   -9.0993 C   0  0  0  0  0  0  0  0  0  0  0  0
  -14.9643  -37.5180  -10.4927 C   0  0  0  0  0  0  0  0  0  0  0  0
  -13.7668  -37.0920  -11.0489 C   0  0  0  0  0  0  0  0  0  0  0  0
  -13.6088  -35.8451  -11.6058 C   0  0  0  0  0  0  0  0  0  0  0  0
  -14.6560  -34.9610  -11.6296 C   0  0  0  0  0  0  0  0  0  0  0  0
  -15.8670  -35.3434  -11.0868 C   0  0  0  0  0  0  0  0  0  0  0  0
  -16.0057  -36.6061  -10.5298 C   0  0  0  0  0  0  0  0  0  0  0  0
  -12.3175  -35.4427  -12.1824 C   0  0  0  0  0  0  0  0  0  0  0  0
  -12.4545  -35.3521  -13.6821 C   0  0  0  0  0  0  0  0  0  0  0  0
  -11.2230  -36.4415  -11.8776 C   0  0  0  0  0  0  0  0  0  0  0  0
  1  2  1  0
  2  3  1  0
  3  4  1  0
  4  5  2  0
  5  6  1  0
  6  7  2  0
  7  8  1  0
  8  9  2  0
  8 10  1  0
 10 11  2  0
 10 12  1  0
 12 13  1  0
 13 14  1  1
 14 15  1  0
 15 16  1  0
 16 17  2  0
 17 18  1  0
 18 19  2  0
 19 20  1  0
 17 21  1  0
 21 22  1  0
 22 23  1  0
 23 24  1  0
 24 25  1  0
 13 26  1  0
 26 27  1  1
 26 28  1  0
 28 29  1  0
 29 30  1  0
 30 31  1  0
 31 32  1  0
 30 33  1  0
 33 34  2  0
 34 35  1  0
 35 36  2  0
 36 37  1  0
 37 38  2  0
 35 39  1  0
 39 40  1  0
 39 41  1  0
  9  4  1  0
 20 15  2  0
 25  6  1  0
 32 30  1  0
 38 33  1  0
M  END
$$$$
