
     RDKit          3D

 41 45  0  0  0  0  0  0  0  0999 V2000
  -20.1739  -39.9138   -1.6470 C   0  0  0  0  0  0  0  0  0  0  0  0
  -20.9851  -40.3104   -2.6809 O   0  0  0  0  0  0  0  0  0  0  0  0
  -21.6061  -39.2394   -3.3075 C   0  0  0  0  0  0  0  0  0  0  0  0
  -21.3525  -39.2725   -4.7632 C   0  0  0  0  0  0  0  0  0  0  0  0
  -22.3404  -39.4370   -5.6956 C   0  0  0  0  0  0  0  0  0  0  0  0
  -22.0856  -39.4696   -7.0831 C   0  0  0  0  0  0  0  0  0  0  0  0
  -20.7943  -39.3289   -7.5661 C   0  0  0  0  0  0  0  0  0  0  0  0
  -19.7839  -39.1676   -6.6531 C   0  0  0  0  0  0  0  0  0  0  0  0
  -20.0873  -39.1410   -5.2638 C   0  0  0  0  0  0  0  0  0  0  0  0
  -18.3191  -39.0718   -6.8275 C   0  0  0  0  0  0  0  0  0  0  0  0
  -17.7414  -38.1543   -6.1024 O   0  0  0  0  0  0  0  0  0  0  0  0
  -17.4435  -39.8228   -7.6564 N   0  0  0  0  0  0  0  0  0  0  0  0
  -17.7353  -41.1343   -8.2309 C   0  0  1  0  0  0  0  0  0  0  0  0
  -18.3206  -40.9672   -9.6031 C   0  0  0  0  0  0  0  0  0  0  0  0
  -19.3858  -41.9276  -10.0085 C   0  0  0  0  0  0  0  0  0  0  0  0
  -20.5861  -42.2323   -9.4342 C   0  0  0  0  0  0  0  0  0  0  0  0
  -21.4392  -43.1177  -10.0796 C   0  0  0  0  0  0  0  0  0  0  0  0
  -21.0527  -43.6869  -11.3000 C   0  0  0  0  0  0  0  0  0  0  0  0
  -19.8570  -43.4159  -11.9148 C   0  0  0  0  0  0  0  0  0  0  0  0
  -19.0525  -42.5378  -11.2479 C   0  0  0  0  0  0  0  0  0  0  0  0
  -22.6876  -43.5543   -9.6919 O   0  0  0  0  0  0  0  0  0  0  0  0
  -23.8930  -42.9788   -9.3202 C   0  0  0  0  0  0  0  0  0  0  0  0
  -23.8118  -42.0012   -8.1724 C   0  0  0  0  0  0  0  0  0  0  0  0
  -23.7198  -40.6057   -8.7116 C   0  0  0  0  0  0  0  0  0  0  0  0
  -23.2625  -39.6568   -7.7887 O   0  0  0  0  0  0  0  0  0  0  0  0
  -16.5486  -42.0368   -8.1820 C   0  0  2  0  0  0  0  0  0  0  0  0
  -16.3213  -42.3229   -6.8188 O   0  0  0  0  0  0  0  0  0  0  0  0
  -15.2738  -41.4775   -8.7175 C   0  0  0  0  0  0  0  0  0  0  0  0
  -15.2177  -40.0844   -8.3118 N   0  0  0  0  0  0  0  0  0  0  0  0
  -14.2848  -39.2828   -9.0429 C   0  0  0  0  0  0  0  0  0  0  0  0
  -12.8763  -39.5706   -9.2257 C   0  0  0  0  0  0  0  0  0  0  0  0
  -13.2833  -38.5846   -8.1457 C   0  0  0  0  0  0  0  0  0  0  0  0
  -14.9250  -38.3228  -10.0094 C   0  0  0  0  0  0  0  0  0  0  0  0
  -14.2960  -37.1514  -10.4056 C   0  0  0  0  0  0  0  0  0  0  0  0
  -14.8631  -36.2677  -11.2929 C   0  0  0  0  0  0  0  0  0  0  0  0
  -16.0992  -36.5226  -11.8276 C   0  0  0  0  0  0  0  0  0  0  0  0
  -16.7618  -37.6775  -11.4608 C   0  0  0  0  0  0  0  0  0  0  0  0
  -16.1721  -38.5562  -10.5641 C   0  0  0  0  0  0  0  0  0  0  0  0
  -14.1538  -35.0394  -11.6802 C   0  0  0  0  0  0  0  0  0  0  0  0
  -14.8363  -33.8546  -11.0428 C   0  0  0  0  0  0  0  0  0  0  0  0
  -14.1616  -34.8268  -13.1780 C   0  0  0  0  0  0  0  0  0  0  0  0
  1  2  1  0
  2  3  1  0
  3  4  1  0
  4  5  2  0
  5  6  1  0
  6  7  2  0
  7  8  1  0
  8  9  2  0
  8 10  1  0
 10 11  2  0
 10 12  1  0
 12 13  1  0
 13 14  1  6
 14 15  1  0
 15 16  1  0
 16 17  2  0
 17 18  1  0
 18 19  2  0
 19 20  1  0
 17 21  1  0
 21 22  1  0
 22 23  1  0
 23 24  1  0
 24 25  1  0
 13 26  1  0
 26 27  1  1
 26 28  1  0
 28 29  1  0
 29 30  1  0
 30 31  1  0
 31 32  1  0
 30 33  1  0
 33 34  2  0
 34 35  1  0
 35 36  2  0
 36 37  1  0
 37 38  2  0
 35 39  1  0
 39 40  1  0
 39 41  1  0
  9  4  1  0
 20 15  2  0
 25  6  1  0
 32 30  1  0
 38 33  1  0
M  END
$$$$
