
     RDKit          3D

 41 45  0  0  0  0  0  0  0  0999 V2000
  -21.1699  -38.3665  -14.3437 C   0  0  0  0  0  0  0  0  0  0  0  0
  -20.3001  -37.7299  -13.4938 O   0  0  0  0  0  0  0  0  0  0  0  0
  -20.8750  -37.4457  -12.2632 C   0  0  0  0  0  0  0  0  0  0  0  0
  -20.6455  -38.5561  -11.3152 C   0  0  0  0  0  0  0  0  0  0  0  0
  -21.6562  -39.2202  -10.6751 C   0  0  0  0  0  0  0  0  0  0  0  0
  -21.4245  -40.2774   -9.7697 C   0  0  0  0  0  0  0  0  0  0  0  0
  -20.1333  -40.6960   -9.4906 C   0  0  0  0  0  0  0  0  0  0  0  0
  -19.1006  -40.0444  -10.1147 C   0  0  0  0  0  0  0  0  0  0  0  0
  -19.3812  -38.9839  -11.0198 C   0  0  0  0  0  0  0  0  0  0  0  0
  -17.6354  -40.1873   -9.9804 C   0  0  0  0  0  0  0  0  0  0  0  0
  -16.9790  -40.1678  -11.1074 O   0  0  0  0  0  0  0  0  0  0  0  0
  -16.8316  -40.3385   -8.8191 N   0  0  0  0  0  0  0  0  0  0  0  0
  -17.2308  -39.9851   -7.4586 C   0  0  1  0  0  0  0  0  0  0  0  0
  -17.8211  -41.1848   -6.7762 C   0  0  0  0  0  0  0  0  0  0  0  0
  -18.9622  -40.9449   -5.8479 C   0  0  0  0  0  0  0  0  0  0  0  0
  -20.1740  -40.3495   -6.0495 C   0  0  0  0  0  0  0  0  0  0  0  0
  -21.1013  -40.3364   -5.0160 C   0  0  0  0  0  0  0  0  0  0  0  0
  -20.7768  -40.9249   -3.7868 C   0  0  0  0  0  0  0  0  0  0  0  0
  -19.5729  -41.5313   -3.5340 C   0  0  0  0  0  0  0  0  0  0  0  0
  -18.6942  -41.5247   -4.5785 C   0  0  0  0  0  0  0  0  0  0  0  0
  -22.3737  -39.8071   -5.0020 O   0  0  0  0  0  0  0  0  0  0  0  0
  -23.5262  -39.9170   -5.7649 C   0  0  0  0  0  0  0  0  0  0  0  0
  -23.3543  -39.6218   -7.2356 C   0  0  0  0  0  0  0  0  0  0  0  0
  -23.1637  -40.9070   -7.9831 C   0  0  0  0  0  0  0  0  0  0  0  0
  -22.6222  -40.7565   -9.2658 O   0  0  0  0  0  0  0  0  0  0  0  0
  -16.1159  -39.3435   -6.7033 C   0  0  2  0  0  0  0  0  0  0  0  0
  -16.6996  -38.3252   -5.9194 O   0  0  0  0  0  0  0  0  0  0  0  0
  -15.0539  -38.6926   -7.5237 C   0  0  0  0  0  0  0  0  0  0  0  0
  -15.3799  -38.9432   -8.9164 N   0  0  0  0  0  0  0  0  0  0  0  0
  -14.3754  -39.6494   -9.6509 C   0  0  0  0  0  0  0  0  0  0  0  0
  -14.0597  -41.0579   -9.5219 C   0  0  0  0  0  0  0  0  0  0  0  0
  -13.1929  -40.0481   -8.7916 C   0  0  0  0  0  0  0  0  0  0  0  0
  -13.9339  -38.9551  -10.9113 C   0  0  0  0  0  0  0  0  0  0  0  0
  -14.3214  -37.6564  -11.2082 C   0  0  0  0  0  0  0  0  0  0  0  0
  -13.9212  -37.0050  -12.3507 C   0  0  0  0  0  0  0  0  0  0  0  0
  -13.1062  -37.6341  -13.2556 C   0  0  0  0  0  0  0  0  0  0  0  0
  -12.6960  -38.9280  -13.0003 C   0  0  0  0  0  0  0  0  0  0  0  0
  -13.1110  -39.5674  -11.8415 C   0  0  0  0  0  0  0  0  0  0  0  0
  -14.3606  -35.6276  -12.6181 C   0  0  0  0  0  0  0  0  0  0  0  0
  -14.5478  -34.9068  -11.3061 C   0  0  0  0  0  0  0  0  0  0  0  0
  -15.6777  -35.5853  -13.3610 C   0  0  0  0  0  0  0  0  0  0  0  0
  1  2  1  0
  2  3  1  0
  3  4  1  0
  4  5  2  0
  5  6  1  0
  6  7  2  0
  7  8  1  0
  8  9  2  0
  8 10  1  0
 10 11  2  0
 10 12  1  0
 12 13  1  0
 13 14  1  1
 14 15  1  0
 15 16  1  0
 16 17  2  0
 17 18  1  0
 18 19  2  0
 19 20  1  0
 17 21  1  0
 21 22  1  0
 22 23  1  0
 23 24  1  0
 24 25  1  0
 13 26  1  0
 26 27  1  1
 26 28  1  0
 28 29  1  0
 29 30  1  0
 30 31  1  0
 31 32  1  0
 30 33  1  0
 33 34  2  0
 34 35  1  0
 35 36  2  0
 36 37  1  0
 37 38  2  0
 35 39  1  0
 39 40  1  0
 39 41  1  0
  9  4  1  0
 20 15  2  0
 25  6  1  0
 32 30  1  0
 38 33  1  0
M  END
$$$$
