
     RDKit          3D

 41 44  0  0  0  0  0  0  0  0999 V2000
  -14.7039  -35.3651  -12.5014 C   0  0  0  0  0  0  0  0  0  0  0  0
  -13.4688  -36.0022  -11.9501 C   0  0  0  0  0  0  0  0  0  0  0  0
  -13.5594  -37.4880  -11.9764 C   0  0  0  0  0  0  0  0  0  0  0  0
  -13.5538  -38.2289  -10.7927 C   0  0  0  0  0  0  0  0  0  0  0  0
  -13.6401  -39.6029  -10.8297 C   0  0  0  0  0  0  0  0  0  0  0  0
  -13.6314  -40.3397   -9.5391 C   0  0  0  0  0  0  0  0  0  0  0  0
  -14.1127  -39.5465   -8.4566 N   0  0  0  0  0  0  0  0  0  0  0  0
  -15.4672  -39.8323   -8.0343 C   0  0  0  0  0  0  0  0  0  0  0  0
  -16.4013  -39.0862   -8.8991 C   0  0  1  0  0  0  0  0  0  0  0  0
  -16.0270  -38.9477  -10.2228 O   0  0  0  0  0  0  0  0  0  0  0  0
  -17.8312  -39.6225   -8.9403 C   0  0  2  0  0  0  0  0  0  0  0  0
  -18.7741  -38.5790   -9.5014 C   0  0  0  0  0  0  0  0  0  0  0  0
  -19.9116  -38.2434   -8.5699 C   0  0  0  0  0  0  0  0  0  0  0  0
  -21.0373  -38.9558   -8.2788 C   0  0  0  0  0  0  0  0  0  0  0  0
  -21.9302  -38.4011   -7.3648 C   0  0  0  0  0  0  0  0  0  0  0  0
  -21.6533  -37.1456   -6.7750 C   0  0  0  0  0  0  0  0  0  0  0  0
  -20.5262  -36.4159   -7.0559 C   0  0  0  0  0  0  0  0  0  0  0  0
  -19.6718  -36.9885   -7.9575 C   0  0  0  0  0  0  0  0  0  0  0  0
  -23.1273  -38.9043   -6.9000 O   0  0  0  0  0  0  0  0  0  0  0  0
  -24.3076  -39.3948   -7.4055 C   0  0  0  0  0  0  0  0  0  0  0  0
  -24.6713  -40.7682   -6.8967 C   0  0  0  0  0  0  0  0  0  0  0  0
  -24.0792  -41.7970   -7.8607 C   0  0  0  0  0  0  0  0  0  0  0  0
  -23.9617  -43.1027   -7.1351 C   0  0  0  0  0  0  0  0  0  0  0  0
  -22.7115  -43.5851   -7.0270 O   0  0  0  0  0  0  0  0  0  0  0  0
  -21.3715  -43.3510   -7.1118 C   0  0  0  0  0  0  0  0  0  0  0  0
  -20.6928  -44.5465   -7.4528 C   0  0  0  0  0  0  0  0  0  0  0  0
  -19.3364  -44.6285   -7.6088 C   0  0  0  0  0  0  0  0  0  0  0  0
  -18.6630  -43.4528   -7.4090 C   0  0  0  0  0  0  0  0  0  0  0  0
  -19.2864  -42.2279   -7.0683 C   0  0  0  0  0  0  0  0  0  0  0  0
  -20.6439  -42.1867   -6.9205 C   0  0  0  0  0  0  0  0  0  0  0  0
  -18.2495  -41.1760   -6.9271 C   0  0  0  0  0  0  0  0  0  0  0  0
  -17.2443  -41.4323   -6.0965 O   0  0  0  0  0  0  0  0  0  0  0  0
  -18.1106  -39.9130   -7.5211 N   0  0  0  0  0  0  0  0  0  0  0  0
  -18.6520  -45.8661   -7.9604 C   0  0  0  0  0  0  0  0  0  0  0  0
  -19.2317  -46.6085   -8.7890 O   0  0  0  0  0  0  0  0  0  0  0  0
  -17.4072  -46.2678   -7.4375 N   0  0  0  0  0  0  0  0  0  0  0  0
  -16.6729  -45.4056   -6.5472 C   0  0  0  0  0  0  0  0  0  0  0  0
  -16.8626  -47.5497   -7.7984 C   0  0  0  0  0  0  0  0  0  0  0  0
  -13.7276  -40.1955  -12.0149 N   0  0  0  0  0  0  0  0  0  0  0  0
  -13.7334  -39.4931  -13.1538 C   0  0  0  0  0  0  0  0  0  0  0  0
  -13.6501  -38.1577  -13.1233 N   0  0  0  0  0  0  0  0  0  0  0  0
  1  2  1  0
  2  3  1  0
  3  4  2  0
  4  5  1  0
  5  6  1  0
  6  7  1  0
  7  8  1  0
  8  9  1  0
  9 10  1  6
  9 11  1  0
 11 12  1  1
 12 13  1  0
 13 14  2  0
 14 15  1  0
 15 16  2  0
 16 17  1  0
 17 18  2  0
 15 19  1  0
 19 20  1  0
 20 21  1  0
 21 22  1  0
 22 23  1  0
 23 24  1  0
 24 25  1  0
 25 26  2  0
 26 27  1  0
 27 28  2  0
 28 29  1  0
 29 30  2  0
 29 31  1  0
 31 32  2  0
 31 33  1  0
 27 34  1  0
 34 35  2  0
 34 36  1  0
 36 37  1  0
 36 38  1  0
  5 39  2  0
 39 40  1  0
 40 41  2  0
 18 13  1  0
 30 25  1  0
 33 11  1  0
 41  3  1  0
M  END
$$$$
