
     RDKit          3D

 41 44  0  0  0  0  0  0  0  0999 V2000
  -16.3374  -45.9771   -7.8922 C   0  0  0  0  0  0  0  0  0  0  0  0
  -17.7471  -45.6861   -7.4876 C   0  0  0  0  0  0  0  0  0  0  0  0
  -18.0482  -44.2298   -7.5570 C   0  0  0  0  0  0  0  0  0  0  0  0
  -17.4929  -43.3370   -6.6378 C   0  0  0  0  0  0  0  0  0  0  0  0
  -17.7775  -41.9917   -6.7133 C   0  0  0  0  0  0  0  0  0  0  0  0
  -17.1572  -41.0878   -5.7099 C   0  0  0  0  0  0  0  0  0  0  0  0
  -15.7439  -40.9873   -5.8684 N   0  0  0  0  0  0  0  0  0  0  0  0
  -15.2464  -41.2924   -7.1928 C   0  0  0  0  0  0  0  0  0  0  0  0
  -15.1387  -40.0368   -7.9601 C   0  0  1  0  0  0  0  0  0  0  0  0
  -13.9517  -39.8390   -8.6409 O   0  0  0  0  0  0  0  0  0  0  0  0
  -16.2384  -39.8008   -8.9940 C   0  0  2  0  0  0  0  0  0  0  0  0
  -15.6497  -39.2710  -10.2845 C   0  0  0  0  0  0  0  0  0  0  0  0
  -16.2449  -37.9532  -10.7126 C   0  0  0  0  0  0  0  0  0  0  0  0
  -17.4576  -37.6883  -11.2771 C   0  0  0  0  0  0  0  0  0  0  0  0
  -17.7533  -36.3590  -11.5698 C   0  0  0  0  0  0  0  0  0  0  0  0
  -16.8132  -35.3426  -11.2801 C   0  0  0  0  0  0  0  0  0  0  0  0
  -15.5894  -35.5909  -10.7124 C   0  0  0  0  0  0  0  0  0  0  0  0
  -15.3307  -36.9059  -10.4389 C   0  0  0  0  0  0  0  0  0  0  0  0
  -18.8917  -35.8229  -12.1348 O   0  0  0  0  0  0  0  0  0  0  0  0
  -19.6739  -36.0022  -13.2508 C   0  0  0  0  0  0  0  0  0  0  0  0
  -21.1331  -36.2391  -12.9477 C   0  0  0  0  0  0  0  0  0  0  0  0
  -21.3460  -37.7479  -12.8189 C   0  0  0  0  0  0  0  0  0  0  0  0
  -22.5970  -37.9765  -12.0263 C   0  0  0  0  0  0  0  0  0  0  0  0
  -22.4286  -38.6525  -10.8765 O   0  0  0  0  0  0  0  0  0  0  0  0
  -21.5717  -39.1122   -9.9215 C   0  0  0  0  0  0  0  0  0  0  0  0
  -22.0950  -40.2870   -9.3282 C   0  0  0  0  0  0  0  0  0  0  0  0
  -21.4607  -40.9795   -8.3335 C   0  0  0  0  0  0  0  0  0  0  0  0
  -20.2603  -40.4502   -7.9404 C   0  0  0  0  0  0  0  0  0  0  0  0
  -19.6870  -39.2811   -8.4966 C   0  0  0  0  0  0  0  0  0  0  0  0
  -20.3518  -38.6168   -9.4881 C   0  0  0  0  0  0  0  0  0  0  0  0
  -18.3931  -39.0057   -7.8248 C   0  0  0  0  0  0  0  0  0  0  0  0
  -18.4104  -38.9284   -6.4983 O   0  0  0  0  0  0  0  0  0  0  0  0
  -17.1003  -38.8041   -8.3303 N   0  0  0  0  0  0  0  0  0  0  0  0
  -22.0116  -42.1876   -7.7328 C   0  0  0  0  0  0  0  0  0  0  0  0
  -22.7835  -42.0240   -6.7575 O   0  0  0  0  0  0  0  0  0  0  0  0
  -21.7352  -43.4969   -8.1728 N   0  0  0  0  0  0  0  0  0  0  0  0
  -22.1481  -44.6354   -7.3926 C   0  0  0  0  0  0  0  0  0  0  0  0
  -21.0315  -43.6991   -9.4113 C   0  0  0  0  0  0  0  0  0  0  0  0
  -18.5887  -41.5739   -7.6781 N   0  0  0  0  0  0  0  0  0  0  0  0
  -19.1251  -42.4226   -8.5628 C   0  0  0  0  0  0  0  0  0  0  0  0
  -18.8516  -43.7309   -8.4939 N   0  0  0  0  0  0  0  0  0  0  0  0
  1  2  1  0
  2  3  1  0
  3  4  2  0
  4  5  1  0
  5  6  1  0
  6  7  1  0
  7  8  1  0
  8  9  1  0
  9 10  1  6
  9 11  1  0
 11 12  1  6
 12 13  1  0
 13 14  2  0
 14 15  1  0
 15 16  2  0
 16 17  1  0
 17 18  2  0
 15 19  1  0
 19 20  1  0
 20 21  1  0
 21 22  1  0
 22 23  1  0
 23 24  1  0
 24 25  1  0
 25 26  2  0
 26 27  1  0
 27 28  2  0
 28 29  1  0
 29 30  2  0
 29 31  1  0
 31 32  2  0
 31 33  1  0
 27 34  1  0
 34 35  2  0
 34 36  1  0
 36 37  1  0
 36 38  1  0
  5 39  2  0
 39 40  1  0
 40 41  2  0
 18 13  1  0
 30 25  1  0
 33 11  1  0
 41  3  1  0
M  END
$$$$
