
     RDKit          3D

 41 44  0  0  0  0  0  0  0  0999 V2000
  -12.3192  -37.2044  -14.1329 C   0  0  0  0  0  0  0  0  0  0  0  0
  -13.3259  -37.0991  -13.0324 C   0  0  0  0  0  0  0  0  0  0  0  0
  -12.7752  -37.5838  -11.7370 C   0  0  0  0  0  0  0  0  0  0  0  0
  -13.1862  -38.8026  -11.1930 C   0  0  0  0  0  0  0  0  0  0  0  0
  -12.6683  -39.2412   -9.9947 C   0  0  0  0  0  0  0  0  0  0  0  0
  -13.1406  -40.5467   -9.4641 C   0  0  0  0  0  0  0  0  0  0  0  0
  -14.3524  -40.9776  -10.0793 N   0  0  0  0  0  0  0  0  0  0  0  0
  -15.4620  -41.1948   -9.1758 C   0  0  0  0  0  0  0  0  0  0  0  0
  -16.3167  -39.9921   -9.1764 C   0  0  1  0  0  0  0  0  0  0  0  0
  -16.1973  -39.1606  -10.2744 O   0  0  0  0  0  0  0  0  0  0  0  0
  -17.8154  -40.2496   -9.0291 C   0  0  2  0  0  0  0  0  0  0  0  0
  -18.6092  -39.0447   -9.4880 C   0  0  0  0  0  0  0  0  0  0  0  0
  -19.5374  -38.5056   -8.4288 C   0  0  0  0  0  0  0  0  0  0  0  0
  -20.7308  -38.9948   -7.9863 C   0  0  0  0  0  0  0  0  0  0  0  0
  -21.3817  -38.2865   -6.9790 C   0  0  0  0  0  0  0  0  0  0  0  0
  -20.8027  -37.1084   -6.4521 C   0  0  0  0  0  0  0  0  0  0  0  0
  -19.6034  -36.6024   -6.8849 C   0  0  0  0  0  0  0  0  0  0  0  0
  -18.9917  -37.3211   -7.8748 C   0  0  0  0  0  0  0  0  0  0  0  0
  -22.5838  -38.5577   -6.3593 O   0  0  0  0  0  0  0  0  0  0  0  0
  -23.8891  -38.8150   -6.7045 C   0  0  0  0  0  0  0  0  0  0  0  0
  -24.4365  -40.0980   -6.1284 C   0  0  0  0  0  0  0  0  0  0  0  0
  -24.1736  -41.2151   -7.1390 C   0  0  0  0  0  0  0  0  0  0  0  0
  -24.2123  -42.5231   -6.4091 C   0  0  0  0  0  0  0  0  0  0  0  0
  -23.0710  -43.2326   -6.4483 O   0  0  0  0  0  0  0  0  0  0  0  0
  -21.7324  -43.2543   -6.7037 C   0  0  0  0  0  0  0  0  0  0  0  0
  -21.3380  -44.5545   -7.1038 C   0  0  0  0  0  0  0  0  0  0  0  0
  -20.0515  -44.8894   -7.4259 C   0  0  0  0  0  0  0  0  0  0  0  0
  -19.1501  -43.8624   -7.3338 C   0  0  0  0  0  0  0  0  0  0  0  0
  -19.4853  -42.5438   -6.9414 C   0  0  0  0  0  0  0  0  0  0  0  0
  -20.7815  -42.2487   -6.6266 C   0  0  0  0  0  0  0  0  0  0  0  0
  -18.2604  -41.7064   -6.9503 C   0  0  0  0  0  0  0  0  0  0  0  0
  -17.2246  -42.1512   -6.2466 O   0  0  0  0  0  0  0  0  0  0  0  0
  -17.9633  -40.4893   -7.5808 N   0  0  0  0  0  0  0  0  0  0  0  0
  -19.6607  -46.2320   -7.8364 C   0  0  0  0  0  0  0  0  0  0  0  0
  -20.5187  -46.8945   -8.4680 O   0  0  0  0  0  0  0  0  0  0  0  0
  -18.4060  -46.8153   -7.5727 N   0  0  0  0  0  0  0  0  0  0  0  0
  -17.2031  -46.2513   -8.1298 C   0  0  0  0  0  0  0  0  0  0  0  0
  -18.3251  -47.9871   -6.7417 C   0  0  0  0  0  0  0  0  0  0  0  0
  -11.7746  -38.4763   -9.3784 N   0  0  0  0  0  0  0  0  0  0  0  0
  -11.3756  -37.3071   -9.8926 C   0  0  0  0  0  0  0  0  0  0  0  0
  -11.8756  -36.8764  -11.0570 N   0  0  0  0  0  0  0  0  0  0  0  0
  1  2  1  0
  2  3  1  0
  3  4  2  0
  4  5  1  0
  5  6  1  0
  6  7  1  0
  7  8  1  0
  8  9  1  0
  9 10  1  6
  9 11  1  0
 11 12  1  1
 12 13  1  0
 13 14  2  0
 14 15  1  0
 15 16  2  0
 16 17  1  0
 17 18  2  0
 15 19  1  0
 19 20  1  0
 20 21  1  0
 21 22  1  0
 22 23  1  0
 23 24  1  0
 24 25  1  0
 25 26  2  0
 26 27  1  0
 27 28  2  0
 28 29  1  0
 29 30  2  0
 29 31  1  0
 31 32  2  0
 31 33  1  0
 27 34  1  0
 34 35  2  0
 34 36  1  0
 36 37  1  0
 36 38  1  0
  5 39  2  0
 39 40  1  0
 40 41  2  0
 18 13  1  0
 30 25  1  0
 33 11  1  0
 41  3  1  0
M  END
$$$$
