
     RDKit          3D

 41 44  0  0  0  0  0  0  0  0999 V2000
  -11.9694  -36.8838  -13.8311 C   0  0  0  0  0  0  0  0  0  0  0  0
  -12.6020  -38.1055  -14.4166 C   0  0  0  0  0  0  0  0  0  0  0  0
  -12.8882  -39.1285  -13.3735 C   0  0  0  0  0  0  0  0  0  0  0  0
  -13.7697  -38.8576  -12.3248 C   0  0  0  0  0  0  0  0  0  0  0  0
  -14.0279  -39.8126  -11.3667 C   0  0  0  0  0  0  0  0  0  0  0  0
  -14.9758  -39.4698  -10.2746 C   0  0  0  0  0  0  0  0  0  0  0  0
  -15.2121  -38.0671  -10.1796 N   0  0  0  0  0  0  0  0  0  0  0  0
  -16.5826  -37.6871   -9.9113 C   0  0  0  0  0  0  0  0  0  0  0  0
  -16.9924  -38.2704   -8.6195 C   0  0  1  0  0  0  0  0  0  0  0  0
  -17.1447  -37.3821   -7.5711 O   0  0  0  0  0  0  0  0  0  0  0  0
  -18.2843  -39.0855   -8.6457 C   0  0  2  0  0  0  0  0  0  0  0  0
  -19.4840  -38.1870   -8.4313 C   0  0  0  0  0  0  0  0  0  0  0  0
  -20.3358  -38.6023   -7.2582 C   0  0  0  0  0  0  0  0  0  0  0  0
  -21.2186  -39.6355   -7.1461 C   0  0  0  0  0  0  0  0  0  0  0  0
  -21.8740  -39.7911   -5.9269 C   0  0  0  0  0  0  0  0  0  0  0  0
  -21.6129  -38.8976   -4.8620 C   0  0  0  0  0  0  0  0  0  0  0  0
  -20.7282  -37.8536   -4.9570 C   0  0  0  0  0  0  0  0  0  0  0  0
  -20.1031  -37.7288   -6.1672 C   0  0  0  0  0  0  0  0  0  0  0  0
  -22.8027  -40.7391   -5.5509 O   0  0  0  0  0  0  0  0  0  0  0  0
  -23.9998  -41.2463   -5.9969 C   0  0  0  0  0  0  0  0  0  0  0  0
  -24.0067  -42.7456   -6.1691 C   0  0  0  0  0  0  0  0  0  0  0  0
  -23.5854  -43.0541   -7.6064 C   0  0  0  0  0  0  0  0  0  0  0  0
  -23.0831  -44.4651   -7.6525 C   0  0  0  0  0  0  0  0  0  0  0  0
  -21.8016  -44.6024   -8.0352 O   0  0  0  0  0  0  0  0  0  0  0  0
  -20.5900  -44.0154   -8.2473 C   0  0  0  0  0  0  0  0  0  0  0  0
  -19.8823  -44.7180   -9.2530 C   0  0  0  0  0  0  0  0  0  0  0  0
  -18.6323  -44.3675   -9.6840 C   0  0  0  0  0  0  0  0  0  0  0  0
  -18.0984  -43.2685   -9.0652 C   0  0  0  0  0  0  0  0  0  0  0  0
  -18.7580  -42.5261   -8.0558 C   0  0  0  0  0  0  0  0  0  0  0  0
  -20.0057  -42.9085   -7.6517 C   0  0  0  0  0  0  0  0  0  0  0  0
  -17.8801  -41.4135   -7.6168 C   0  0  0  0  0  0  0  0  0  0  0  0
  -16.6512  -41.7367   -7.2275 O   0  0  0  0  0  0  0  0  0  0  0  0
  -18.0954  -40.0303   -7.5284 N   0  0  0  0  0  0  0  0  0  0  0  0
  -17.9164  -45.1002  -10.7206 C   0  0  0  0  0  0  0  0  0  0  0  0
  -17.7858  -44.5200  -11.8252 O   0  0  0  0  0  0  0  0  0  0  0  0
  -17.3749  -46.3904  -10.5587 N   0  0  0  0  0  0  0  0  0  0  0  0
  -16.8689  -47.1211  -11.6925 C   0  0  0  0  0  0  0  0  0  0  0  0
  -17.3294  -46.9854   -9.2494 C   0  0  0  0  0  0  0  0  0  0  0  0
  -13.4183  -40.9878  -11.4702 N   0  0  0  0  0  0  0  0  0  0  0  0
  -12.5721  -41.2554  -12.4717 C   0  0  0  0  0  0  0  0  0  0  0  0
  -12.3179  -40.3309  -13.4055 N   0  0  0  0  0  0  0  0  0  0  0  0
  1  2  1  0
  2  3  1  0
  3  4  2  0
  4  5  1  0
  5  6  1  0
  6  7  1  0
  7  8  1  0
  8  9  1  0
  9 10  1  1
  9 11  1  0
 11 12  1  1
 12 13  1  0
 13 14  2  0
 14 15  1  0
 15 16  2  0
 16 17  1  0
 17 18  2  0
 15 19  1  0
 19 20  1  0
 20 21  1  0
 21 22  1  0
 22 23  1  0
 23 24  1  0
 24 25  1  0
 25 26  2  0
 26 27  1  0
 27 28  2  0
 28 29  1  0
 29 30  2  0
 29 31  1  0
 31 32  2  0
 31 33  1  0
 27 34  1  0
 34 35  2  0
 34 36  1  0
 36 37  1  0
 36 38  1  0
  5 39  2  0
 39 40  1  0
 40 41  2  0
 18 13  1  0
 30 25  1  0
 33 11  1  0
 41  3  1  0
M  END
$$$$
