
     RDKit          3D

 41 44  0  0  0  0  0  0  0  0999 V2000
  -12.5732  -39.1877  -13.0931 C   0  0  0  0  0  0  0  0  0  0  0  0
  -12.8322  -40.6205  -12.7532 C   0  0  0  0  0  0  0  0  0  0  0  0
  -12.3121  -40.9663  -11.4017 C   0  0  0  0  0  0  0  0  0  0  0  0
  -12.9661  -40.5302  -10.2474 C   0  0  0  0  0  0  0  0  0  0  0  0
  -12.4764  -40.8579   -9.0027 C   0  0  0  0  0  0  0  0  0  0  0  0
  -13.2142  -40.3680   -7.8092 C   0  0  0  0  0  0  0  0  0  0  0  0
  -14.0106  -39.2206   -8.0950 N   0  0  0  0  0  0  0  0  0  0  0  0
  -15.1122  -39.4434   -9.0069 C   0  0  0  0  0  0  0  0  0  0  0  0
  -16.3113  -38.7670   -8.4765 C   0  0  1  0  0  0  0  0  0  0  0  0
  -16.3805  -37.4013   -8.6806 O   0  0  0  0  0  0  0  0  0  0  0  0
  -17.6490  -39.3149   -8.9710 C   0  0  2  0  0  0  0  0  0  0  0  0
  -18.6843  -38.2119   -9.0344 C   0  0  0  0  0  0  0  0  0  0  0  0
  -19.9179  -38.5068   -8.2186 C   0  0  0  0  0  0  0  0  0  0  0  0
  -20.9536  -39.3537   -8.4818 C   0  0  0  0  0  0  0  0  0  0  0  0
  -21.9739  -39.4340   -7.5370 C   0  0  0  0  0  0  0  0  0  0  0  0
  -21.9111  -38.6563   -6.3572 C   0  0  0  0  0  0  0  0  0  0  0  0
  -20.8771  -37.7999   -6.0761 C   0  0  0  0  0  0  0  0  0  0  0  0
  -19.8932  -37.7443   -7.0246 C   0  0  0  0  0  0  0  0  0  0  0  0
  -23.1205  -40.2004   -7.5548 O   0  0  0  0  0  0  0  0  0  0  0  0
  -24.1859  -40.4462   -8.3878 C   0  0  0  0  0  0  0  0  0  0  0  0
  -24.3935  -41.9066   -8.7065 C   0  0  0  0  0  0  0  0  0  0  0  0
  -23.6027  -42.2262   -9.9757 C   0  0  0  0  0  0  0  0  0  0  0  0
  -23.3588  -43.7042  -10.0136 C   0  0  0  0  0  0  0  0  0  0  0  0
  -22.0649  -44.0695  -10.0075 O   0  0  0  0  0  0  0  0  0  0  0  0
  -20.7665  -43.7189   -9.7865 C   0  0  0  0  0  0  0  0  0  0  0  0
  -19.9100  -44.4994  -10.6009 C   0  0  0  0  0  0  0  0  0  0  0  0
  -18.5476  -44.3782  -10.6002 C   0  0  0  0  0  0  0  0  0  0  0  0
  -18.0554  -43.4319   -9.7411 C   0  0  0  0  0  0  0  0  0  0  0  0
  -18.8612  -42.6219   -8.9047 C   0  0  0  0  0  0  0  0  0  0  0  0
  -20.2186  -42.7735   -8.9335 C   0  0  0  0  0  0  0  0  0  0  0  0
  -17.9890  -41.7208   -8.1119 C   0  0  0  0  0  0  0  0  0  0  0  0
  -17.0174  -42.2925   -7.4082 O   0  0  0  0  0  0  0  0  0  0  0  0
  -17.9826  -40.3274   -7.9511 N   0  0  0  0  0  0  0  0  0  0  0  0
  -17.6789  -45.1884  -11.4445 C   0  0  0  0  0  0  0  0  0  0  0  0
  -17.3941  -44.7138  -12.5703 O   0  0  0  0  0  0  0  0  0  0  0  0
  -17.1525  -46.4428  -11.0792 N   0  0  0  0  0  0  0  0  0  0  0  0
  -17.2782  -46.9257   -9.7277 C   0  0  0  0  0  0  0  0  0  0  0  0
  -16.4803  -47.2481  -12.0640 C   0  0  0  0  0  0  0  0  0  0  0  0
  -11.3734  -41.5944   -8.9350 N   0  0  0  0  0  0  0  0  0  0  0  0
  -10.7406  -42.0162  -10.0360 C   0  0  0  0  0  0  0  0  0  0  0  0
  -11.2125  -41.7006  -11.2480 N   0  0  0  0  0  0  0  0  0  0  0  0
  1  2  1  0
  2  3  1  0
  3  4  2  0
  4  5  1  0
  5  6  1  0
  6  7  1  0
  7  8  1  0
  8  9  1  0
  9 10  1  6
  9 11  1  0
 11 12  1  1
 12 13  1  0
 13 14  2  0
 14 15  1  0
 15 16  2  0
 16 17  1  0
 17 18  2  0
 15 19  1  0
 19 20  1  0
 20 21  1  0
 21 22  1  0
 22 23  1  0
 23 24  1  0
 24 25  1  0
 25 26  2  0
 26 27  1  0
 27 28  2  0
 28 29  1  0
 29 30  2  0
 29 31  1  0
 31 32  2  0
 31 33  1  0
 27 34  1  0
 34 35  2  0
 34 36  1  0
 36 37  1  0
 36 38  1  0
  5 39  2  0
 39 40  1  0
 40 41  2  0
 18 13  1  0
 30 25  1  0
 33 11  1  0
 41  3  1  0
M  END
$$$$
