
     RDKit          3D

 41 44  0  0  0  0  0  0  0  0999 V2000
  -13.6673  -36.9719  -12.1049 C   0  0  0  0  0  0  0  0  0  0  0  0
  -14.5891  -38.1216  -12.3580 C   0  0  0  0  0  0  0  0  0  0  0  0
  -14.0076  -39.4062  -11.8805 C   0  0  0  0  0  0  0  0  0  0  0  0
  -14.0708  -39.7661  -10.5326 C   0  0  0  0  0  0  0  0  0  0  0  0
  -13.5310  -40.9580  -10.1031 C   0  0  0  0  0  0  0  0  0  0  0  0
  -13.6287  -41.2901   -8.6578 C   0  0  0  0  0  0  0  0  0  0  0  0
  -13.9793  -40.1600   -7.8625 N   0  0  0  0  0  0  0  0  0  0  0  0
  -15.0343  -39.3279   -8.4003 C   0  0  0  0  0  0  0  0  0  0  0  0
  -16.1175  -39.2317   -7.4031 C   0  0  1  0  0  0  0  0  0  0  0  0
  -16.3559  -37.9734   -6.8823 O   0  0  0  0  0  0  0  0  0  0  0  0
  -17.4826  -39.7409   -7.8629 C   0  0  2  0  0  0  0  0  0  0  0  0
  -18.3237  -38.5998   -8.3950 C   0  0  0  0  0  0  0  0  0  0  0  0
  -19.6474  -38.4563   -7.6868 C   0  0  0  0  0  0  0  0  0  0  0  0
  -20.7800  -39.2074   -7.7981 C   0  0  0  0  0  0  0  0  0  0  0  0
  -21.8699  -38.8472   -7.0091 C   0  0  0  0  0  0  0  0  0  0  0  0
  -21.7766  -37.7407   -6.1330 C   0  0  0  0  0  0  0  0  0  0  0  0
  -20.6456  -36.9746   -6.0080 C   0  0  0  0  0  0  0  0  0  0  0  0
  -19.5951  -37.3547   -6.7972 C   0  0  0  0  0  0  0  0  0  0  0  0
  -23.1179  -39.4288   -6.9282 O   0  0  0  0  0  0  0  0  0  0  0  0
  -24.1414  -39.7993   -7.7676 C   0  0  0  0  0  0  0  0  0  0  0  0
  -24.5508  -41.2460   -7.6373 C   0  0  0  0  0  0  0  0  0  0  0  0
  -23.7247  -42.0584   -8.6352 C   0  0  0  0  0  0  0  0  0  0  0  0
  -23.7140  -43.4857   -8.1792 C   0  0  0  0  0  0  0  0  0  0  0  0
  -22.4980  -43.9865   -7.8996 O   0  0  0  0  0  0  0  0  0  0  0  0
  -21.1816  -43.7467   -7.6405 C   0  0  0  0  0  0  0  0  0  0  0  0
  -20.3983  -44.8505   -8.0581 C   0  0  0  0  0  0  0  0  0  0  0  0
  -19.0379  -44.9057   -7.9270 C   0  0  0  0  0  0  0  0  0  0  0  0
  -18.4706  -43.7993   -7.3526 C   0  0  0  0  0  0  0  0  0  0  0  0
  -19.2011  -42.6671   -6.9173 C   0  0  0  0  0  0  0  0  0  0  0  0
  -20.5591  -42.6502   -7.0647 C   0  0  0  0  0  0  0  0  0  0  0  0
  -18.2617  -41.6718   -6.3443 C   0  0  0  0  0  0  0  0  0  0  0  0
  -17.4492  -42.0979   -5.3829 O   0  0  0  0  0  0  0  0  0  0  0  0
  -18.0488  -40.3146   -6.6272 N   0  0  0  0  0  0  0  0  0  0  0  0
  -18.2450  -46.0485   -8.3619 C   0  0  0  0  0  0  0  0  0  0  0  0
  -18.2308  -47.0419   -7.5959 O   0  0  0  0  0  0  0  0  0  0  0  0
  -17.5118  -46.1022   -9.5634 N   0  0  0  0  0  0  0  0  0  0  0  0
  -16.6573  -47.2257   -9.8517 C   0  0  0  0  0  0  0  0  0  0  0  0
  -17.6148  -45.0237  -10.5102 C   0  0  0  0  0  0  0  0  0  0  0  0
  -12.9537  -41.7468  -11.0021 N   0  0  0  0  0  0  0  0  0  0  0  0
  -12.8887  -41.4095  -12.2953 C   0  0  0  0  0  0  0  0  0  0  0  0
  -13.4120  -40.2524  -12.7179 N   0  0  0  0  0  0  0  0  0  0  0  0
  1  2  1  0
  2  3  1  0
  3  4  2  0
  4  5  1  0
  5  6  1  0
  6  7  1  0
  7  8  1  0
  8  9  1  0
  9 10  1  6
  9 11  1  0
 11 12  1  1
 12 13  1  0
 13 14  2  0
 14 15  1  0
 15 16  2  0
 16 17  1  0
 17 18  2  0
 15 19  1  0
 19 20  1  0
 20 21  1  0
 21 22  1  0
 22 23  1  0
 23 24  1  0
 24 25  1  0
 25 26  2  0
 26 27  1  0
 27 28  2  0
 28 29  1  0
 29 30  2  0
 29 31  1  0
 31 32  2  0
 31 33  1  0
 27 34  1  0
 34 35  2  0
 34 36  1  0
 36 37  1  0
 36 38  1  0
  5 39  2  0
 39 40  1  0
 40 41  2  0
 18 13  1  0
 30 25  1  0
 33 11  1  0
 41  3  1  0
M  END
$$$$
