
     RDKit          3D

 41 44  0  0  0  0  0  0  0  0999 V2000
  -16.6386  -42.1035  -13.5098 C   0  0  0  0  0  0  0  0  0  0  0  0
  -15.5425  -41.5040  -12.6883 C   0  0  0  0  0  0  0  0  0  0  0  0
  -15.0345  -42.4621  -11.6684 C   0  0  0  0  0  0  0  0  0  0  0  0
  -14.7512  -42.0424  -10.3670 C   0  0  0  0  0  0  0  0  0  0  0  0
  -14.2834  -42.9384   -9.4316 C   0  0  0  0  0  0  0  0  0  0  0  0
  -14.0004  -42.4364   -8.0618 C   0  0  0  0  0  0  0  0  0  0  0  0
  -14.2073  -41.0307   -7.9440 N   0  0  0  0  0  0  0  0  0  0  0  0
  -15.1409  -40.6266   -6.9146 C   0  0  0  0  0  0  0  0  0  0  0  0
  -15.8332  -39.4009   -7.3565 C   0  0  1  0  0  0  0  0  0  0  0  0
  -15.1055  -38.5489   -8.1665 O   0  0  0  0  0  0  0  0  0  0  0  0
  -17.1555  -39.6199   -8.0898 C   0  0  2  0  0  0  0  0  0  0  0  0
  -17.4334  -38.4728   -9.0383 C   0  0  0  0  0  0  0  0  0  0  0  0
  -18.7547  -37.7937   -8.7789 C   0  0  0  0  0  0  0  0  0  0  0  0
  -20.0195  -38.2091   -9.0738 C   0  0  0  0  0  0  0  0  0  0  0  0
  -21.0718  -37.3720   -8.7103 C   0  0  0  0  0  0  0  0  0  0  0  0
  -20.8091  -36.1440   -8.0593 C   0  0  0  0  0  0  0  0  0  0  0  0
  -19.5437  -35.7108   -7.7548 C   0  0  0  0  0  0  0  0  0  0  0  0
  -18.5342  -36.5556   -8.1262 C   0  0  0  0  0  0  0  0  0  0  0  0
  -22.4281  -37.5487   -8.8882 O   0  0  0  0  0  0  0  0  0  0  0  0
  -23.3084  -37.8317   -9.9052 C   0  0  0  0  0  0  0  0  0  0  0  0
  -24.1926  -39.0254   -9.6393 C   0  0  0  0  0  0  0  0  0  0  0  0
  -23.4872  -40.2638  -10.1935 C   0  0  0  0  0  0  0  0  0  0  0  0
  -24.0501  -41.4690   -9.5037 C   0  0  0  0  0  0  0  0  0  0  0  0
  -23.1607  -42.1915   -8.8004 O   0  0  0  0  0  0  0  0  0  0  0  0
  -21.9289  -42.2611   -8.2214 C   0  0  0  0  0  0  0  0  0  0  0  0
  -21.4855  -43.6059   -8.1894 C   0  0  0  0  0  0  0  0  0  0  0  0
  -20.2834  -43.9941   -7.6647 C   0  0  0  0  0  0  0  0  0  0  0  0
  -19.5201  -42.9745   -7.1611 C   0  0  0  0  0  0  0  0  0  0  0  0
  -19.9095  -41.6131   -7.1663 C   0  0  0  0  0  0  0  0  0  0  0  0
  -21.1185  -41.2653   -7.6987 C   0  0  0  0  0  0  0  0  0  0  0  0
  -18.8412  -40.7983   -6.5369 C   0  0  0  0  0  0  0  0  0  0  0  0
  -18.4454  -41.1634   -5.3219 O   0  0  0  0  0  0  0  0  0  0  0  0
  -18.1339  -39.6737   -6.9868 N   0  0  0  0  0  0  0  0  0  0  0  0
  -19.8404  -45.3823   -7.6393 C   0  0  0  0  0  0  0  0  0  0  0  0
  -20.5453  -46.2048   -8.2721 O   0  0  0  0  0  0  0  0  0  0  0  0
  -18.6943  -45.8436   -6.9627 N   0  0  0  0  0  0  0  0  0  0  0  0
  -18.3245  -47.2351   -7.0107 C   0  0  0  0  0  0  0  0  0  0  0  0
  -17.8872  -44.9171   -6.2140 C   0  0  0  0  0  0  0  0  0  0  0  0
  -14.1116  -44.2020   -9.8025 N   0  0  0  0  0  0  0  0  0  0  0  0
  -14.3804  -44.6124  -11.0474 C   0  0  0  0  0  0  0  0  0  0  0  0
  -14.8355  -43.7457  -11.9600 N   0  0  0  0  0  0  0  0  0  0  0  0
  1  2  1  0
  2  3  1  0
  3  4  2  0
  4  5  1  0
  5  6  1  0
  6  7  1  0
  7  8  1  0
  8  9  1  0
  9 10  1  6
  9 11  1  0
 11 12  1  6
 12 13  1  0
 13 14  2  0
 14 15  1  0
 15 16  2  0
 16 17  1  0
 17 18  2  0
 15 19  1  0
 19 20  1  0
 20 21  1  0
 21 22  1  0
 22 23  1  0
 23 24  1  0
 24 25  1  0
 25 26  2  0
 26 27  1  0
 27 28  2  0
 28 29  1  0
 29 30  2  0
 29 31  1  0
 31 32  2  0
 31 33  1  0
 27 34  1  0
 34 35  2  0
 34 36  1  0
 36 37  1  0
 36 38  1  0
  5 39  2  0
 39 40  1  0
 40 41  2  0
 18 13  1  0
 30 25  1  0
 33 11  1  0
 41  3  1  0
M  END
$$$$
