
     RDKit          3D

 41 44  0  0  0  0  0  0  0  0999 V2000
  -13.2973  -36.6842  -13.3307 C   0  0  0  0  0  0  0  0  0  0  0  0
  -14.1724  -37.7954  -13.8153 C   0  0  0  0  0  0  0  0  0  0  0  0
  -14.1128  -38.9754  -12.9095 C   0  0  0  0  0  0  0  0  0  0  0  0
  -14.1425  -38.8180  -11.5222 C   0  0  0  0  0  0  0  0  0  0  0  0
  -14.0886  -39.9172  -10.6944 C   0  0  0  0  0  0  0  0  0  0  0  0
  -14.1255  -39.6902   -9.2261 C   0  0  0  0  0  0  0  0  0  0  0  0
  -14.4741  -38.3488   -8.8917 N   0  0  0  0  0  0  0  0  0  0  0  0
  -15.8652  -38.0029   -9.0907 C   0  0  0  0  0  0  0  0  0  0  0  0
  -16.6147  -38.3243   -7.8611 C   0  0  1  0  0  0  0  0  0  0  0  0
  -16.8249  -37.2761   -6.9845 O   0  0  0  0  0  0  0  0  0  0  0  0
  -17.9914  -38.9515   -8.0743 C   0  0  2  0  0  0  0  0  0  0  0  0
  -19.0813  -38.0160   -7.5953 C   0  0  0  0  0  0  0  0  0  0  0  0
  -19.9828  -38.6356   -6.5572 C   0  0  0  0  0  0  0  0  0  0  0  0
  -20.9791  -39.5546   -6.7064 C   0  0  0  0  0  0  0  0  0  0  0  0
  -21.6559  -39.9604   -5.5586 C   0  0  0  0  0  0  0  0  0  0  0  0
  -21.3009  -39.4243   -4.2987 C   0  0  0  0  0  0  0  0  0  0  0  0
  -20.3017  -38.4997   -4.1302 C   0  0  0  0  0  0  0  0  0  0  0  0
  -19.6585  -38.1225   -5.2769 C   0  0  0  0  0  0  0  0  0  0  0  0
  -22.6897  -40.8643   -5.4295 O   0  0  0  0  0  0  0  0  0  0  0  0
  -23.9341  -41.0940   -5.9661 C   0  0  0  0  0  0  0  0  0  0  0  0
  -24.1120  -42.4797   -6.5366 C   0  0  0  0  0  0  0  0  0  0  0  0
  -23.7195  -42.4322   -8.0137 C   0  0  0  0  0  0  0  0  0  0  0  0
  -23.3822  -43.8249   -8.4518 C   0  0  0  0  0  0  0  0  0  0  0  0
  -22.1225  -43.9963   -8.8891 O   0  0  0  0  0  0  0  0  0  0  0  0
  -20.8502  -43.5136   -8.9649 C   0  0  0  0  0  0  0  0  0  0  0  0
  -20.2212  -43.9920  -10.1404 C   0  0  0  0  0  0  0  0  0  0  0  0
  -18.9365  -43.6803  -10.4916 C   0  0  0  0  0  0  0  0  0  0  0  0
  -18.2840  -42.8573   -9.6125 C   0  0  0  0  0  0  0  0  0  0  0  0
  -18.8606  -42.3474   -8.4240 C   0  0  0  0  0  0  0  0  0  0  0  0
  -20.1466  -42.6824   -8.1072 C   0  0  0  0  0  0  0  0  0  0  0  0
  -17.8637  -41.5013   -7.7228 C   0  0  0  0  0  0  0  0  0  0  0  0
  -16.6826  -42.0538   -7.4660 O   0  0  0  0  0  0  0  0  0  0  0  0
  -17.9194  -40.1788   -7.2588 N   0  0  0  0  0  0  0  0  0  0  0  0
  -18.3027  -44.1800  -11.7050 C   0  0  0  0  0  0  0  0  0  0  0  0
  -18.6873  -43.6716  -12.7856 O   0  0  0  0  0  0  0  0  0  0  0  0
  -17.3070  -45.1759  -11.7351 N   0  0  0  0  0  0  0  0  0  0  0  0
  -17.5034  -46.4302  -11.0543 C   0  0  0  0  0  0  0  0  0  0  0  0
  -16.0813  -44.9372  -12.4498 C   0  0  0  0  0  0  0  0  0  0  0  0
  -14.0081  -41.1201  -11.2513 N   0  0  0  0  0  0  0  0  0  0  0  0
  -13.9789  -41.2798  -12.5795 C   0  0  0  0  0  0  0  0  0  0  0  0
  -14.0313  -40.2148  -13.3884 N   0  0  0  0  0  0  0  0  0  0  0  0
  1  2  1  0
  2  3  1  0
  3  4  2  0
  4  5  1  0
  5  6  1  0
  6  7  1  0
  7  8  1  0
  8  9  1  0
  9 10  1  6
  9 11  1  0
 11 12  1  1
 12 13  1  0
 13 14  2  0
 14 15  1  0
 15 16  2  0
 16 17  1  0
 17 18  2  0
 15 19  1  0
 19 20  1  0
 20 21  1  0
 21 22  1  0
 22 23  1  0
 23 24  1  0
 24 25  1  0
 25 26  2  0
 26 27  1  0
 27 28  2  0
 28 29  1  0
 29 30  2  0
 29 31  1  0
 31 32  2  0
 31 33  1  0
 27 34  1  0
 34 35  2  0
 34 36  1  0
 36 37  1  0
 36 38  1  0
  5 39  2  0
 39 40  1  0
 40 41  2  0
 18 13  1  0
 30 25  1  0
 33 11  1  0
 41  3  1  0
M  END
$$$$
