
     RDKit          3D

 41 44  0  0  0  0  0  0  0  0999 V2000
  -13.3092  -35.1791  -13.2971 C   0  0  0  0  0  0  0  0  0  0  0  0
  -13.5684  -36.6503  -13.2331 C   0  0  0  0  0  0  0  0  0  0  0  0
  -13.4947  -37.1600  -11.8363 C   0  0  0  0  0  0  0  0  0  0  0  0
  -14.6002  -37.7629  -11.2325 C   0  0  0  0  0  0  0  0  0  0  0  0
  -14.5193  -38.2322   -9.9403 C   0  0  0  0  0  0  0  0  0  0  0  0
  -15.7264  -38.8664   -9.3492 C   0  0  0  0  0  0  0  0  0  0  0  0
  -16.8852  -38.6924  -10.1612 N   0  0  0  0  0  0  0  0  0  0  0  0
  -17.7000  -37.5406   -9.8382 C   0  0  0  0  0  0  0  0  0  0  0  0
  -18.3202  -37.7539   -8.5165 C   0  0  1  0  0  0  0  0  0  0  0  0
  -18.9319  -36.6530   -7.9461 O   0  0  0  0  0  0  0  0  0  0  0  0
  -19.3607  -38.8705   -8.4502 C   0  0  2  0  0  0  0  0  0  0  0  0
  -20.6740  -38.3417   -7.9131 C   0  0  0  0  0  0  0  0  0  0  0  0
  -21.1568  -39.0803   -6.6902 C   0  0  0  0  0  0  0  0  0  0  0  0
  -21.7293  -40.3137   -6.5877 C   0  0  0  0  0  0  0  0  0  0  0  0
  -22.0779  -40.7563   -5.3138 C   0  0  0  0  0  0  0  0  0  0  0  0
  -21.8340  -39.9372   -4.1868 C   0  0  0  0  0  0  0  0  0  0  0  0
  -21.2590  -38.6947   -4.2713 C   0  0  0  0  0  0  0  0  0  0  0  0
  -20.9300  -38.2905   -5.5359 C   0  0  0  0  0  0  0  0  0  0  0  0
  -22.6628  -41.9463   -4.9339 O   0  0  0  0  0  0  0  0  0  0  0  0
  -23.7683  -42.7004   -5.2475 C   0  0  0  0  0  0  0  0  0  0  0  0
  -23.4521  -44.1246   -5.6339 C   0  0  0  0  0  0  0  0  0  0  0  0
  -23.2584  -44.1667   -7.1502 C   0  0  0  0  0  0  0  0  0  0  0  0
  -22.4540  -45.3860   -7.4840 C   0  0  0  0  0  0  0  0  0  0  0  0
  -21.2767  -45.1457   -8.0870 O   0  0  0  0  0  0  0  0  0  0  0  0
  -20.3048  -44.2450   -8.4062 C   0  0  0  0  0  0  0  0  0  0  0  0
  -19.6607  -44.6343   -9.6060 C   0  0  0  0  0  0  0  0  0  0  0  0
  -18.6387  -43.9288  -10.1796 C   0  0  0  0  0  0  0  0  0  0  0  0
  -18.2713  -42.7965   -9.5023 C   0  0  0  0  0  0  0  0  0  0  0  0
  -18.8783  -42.3569   -8.3009 C   0  0  0  0  0  0  0  0  0  0  0  0
  -19.8957  -43.0897   -7.7586 C   0  0  0  0  0  0  0  0  0  0  0  0
  -18.2218  -41.1039   -7.8533 C   0  0  0  0  0  0  0  0  0  0  0  0
  -16.8997  -41.1332   -7.7218 O   0  0  0  0  0  0  0  0  0  0  0  0
  -18.7383  -39.8407   -7.5294 N   0  0  0  0  0  0  0  0  0  0  0  0
  -17.9857  -44.3417  -11.4152 C   0  0  0  0  0  0  0  0  0  0  0  0
  -18.6594  -44.2284  -12.4675 O   0  0  0  0  0  0  0  0  0  0  0  0
  -16.6737  -44.8479  -11.4957 N   0  0  0  0  0  0  0  0  0  0  0  0
  -15.7616  -44.3652  -12.5009 C   0  0  0  0  0  0  0  0  0  0  0  0
  -16.2413  -45.8585  -10.5673 C   0  0  0  0  0  0  0  0  0  0  0  0
  -13.3683  -38.0945   -9.2924 N   0  0  0  0  0  0  0  0  0  0  0  0
  -12.3043  -37.5178   -9.8634 C   0  0  0  0  0  0  0  0  0  0  0  0
  -12.3776  -37.0604  -11.1190 N   0  0  0  0  0  0  0  0  0  0  0  0
  1  2  1  0
  2  3  1  0
  3  4  2  0
  4  5  1  0
  5  6  1  0
  6  7  1  0
  7  8  1  0
  8  9  1  0
  9 10  1  6
  9 11  1  0
 11 12  1  1
 12 13  1  0
 13 14  2  0
 14 15  1  0
 15 16  2  0
 16 17  1  0
 17 18  2  0
 15 19  1  0
 19 20  1  0
 20 21  1  0
 21 22  1  0
 22 23  1  0
 23 24  1  0
 24 25  1  0
 25 26  2  0
 26 27  1  0
 27 28  2  0
 28 29  1  0
 29 30  2  0
 29 31  1  0
 31 32  2  0
 31 33  1  0
 27 34  1  0
 34 35  2  0
 34 36  1  0
 36 37  1  0
 36 38  1  0
  5 39  2  0
 39 40  1  0
 40 41  2  0
 18 13  1  0
 30 25  1  0
 33 11  1  0
 41  3  1  0
M  END
$$$$
