
     RDKit          3D

 41 44  0  0  0  0  0  0  0  0999 V2000
  -12.0238  -35.7246  -11.1857 C   0  0  0  0  0  0  0  0  0  0  0  0
  -13.0820  -36.7189  -11.5422 C   0  0  0  0  0  0  0  0  0  0  0  0
  -12.6908  -38.1008  -11.1499 C   0  0  0  0  0  0  0  0  0  0  0  0
  -13.0428  -38.6198   -9.9021 C   0  0  0  0  0  0  0  0  0  0  0  0
  -12.6768  -39.9002   -9.5511 C   0  0  0  0  0  0  0  0  0  0  0  0
  -13.0800  -40.4009   -8.2112 C   0  0  0  0  0  0  0  0  0  0  0  0
  -14.3474  -39.8940   -7.7998 N   0  0  0  0  0  0  0  0  0  0  0  0
  -15.4862  -40.4066   -8.5314 C   0  0  0  0  0  0  0  0  0  0  0  0
  -16.4581  -39.3132   -8.7232 C   0  0  1  0  0  0  0  0  0  0  0  0
  -16.2546  -38.5039   -9.8254 O   0  0  0  0  0  0  0  0  0  0  0  0
  -17.9225  -39.7410   -8.8042 C   0  0  2  0  0  0  0  0  0  0  0  0
  -18.6921  -38.8278   -9.7351 C   0  0  0  0  0  0  0  0  0  0  0  0
  -19.8812  -38.1738   -9.0775 C   0  0  0  0  0  0  0  0  0  0  0  0
  -21.0969  -38.7008   -8.7557 C   0  0  0  0  0  0  0  0  0  0  0  0
  -22.0201  -37.8581   -8.1411 C   0  0  0  0  0  0  0  0  0  0  0  0
  -21.6817  -36.5115   -7.8712 C   0  0  0  0  0  0  0  0  0  0  0  0
  -20.4640  -35.9650   -8.1876 C   0  0  0  0  0  0  0  0  0  0  0  0
  -19.5818  -36.8190   -8.7906 C   0  0  0  0  0  0  0  0  0  0  0  0
  -23.3037  -38.1322   -7.7171 O   0  0  0  0  0  0  0  0  0  0  0  0
  -24.4680  -38.6598   -8.2225 C   0  0  0  0  0  0  0  0  0  0  0  0
  -25.0189  -39.8141   -7.4216 C   0  0  0  0  0  0  0  0  0  0  0  0
  -24.4357  -41.1049   -7.9980 C   0  0  0  0  0  0  0  0  0  0  0  0
  -24.5263  -42.1682   -6.9462 C   0  0  0  0  0  0  0  0  0  0  0  0
  -23.3490  -42.6875   -6.5566 O   0  0  0  0  0  0  0  0  0  0  0  0
  -21.9908  -42.5778   -6.5282 C   0  0  0  0  0  0  0  0  0  0  0  0
  -21.4037  -43.8646   -6.4539 C   0  0  0  0  0  0  0  0  0  0  0  0
  -20.0535  -44.0789   -6.4085 C   0  0  0  0  0  0  0  0  0  0  0  0
  -19.2900  -42.9423   -6.4401 C   0  0  0  0  0  0  0  0  0  0  0  0
  -19.8194  -41.6312   -6.5154 C   0  0  0  0  0  0  0  0  0  0  0  0
  -21.1739  -41.4583   -6.5581 C   0  0  0  0  0  0  0  0  0  0  0  0
  -18.7027  -40.6544   -6.5242 C   0  0  0  0  0  0  0  0  0  0  0  0
  -17.8205  -40.7428   -5.5342 O   0  0  0  0  0  0  0  0  0  0  0  0
  -18.3763  -39.6138   -7.4062 N   0  0  0  0  0  0  0  0  0  0  0  0
  -19.4638  -45.4095   -6.3325 C   0  0  0  0  0  0  0  0  0  0  0  0
  -19.7632  -46.0960   -5.3260 O   0  0  0  0  0  0  0  0  0  0  0  0
  -18.5988  -45.9571   -7.2999 N   0  0  0  0  0  0  0  0  0  0  0  0
  -18.2487  -45.2074   -8.4792 C   0  0  0  0  0  0  0  0  0  0  0  0
  -18.0621  -47.2785   -7.1101 C   0  0  0  0  0  0  0  0  0  0  0  0
  -11.9851  -40.6189  -10.4278 N   0  0  0  0  0  0  0  0  0  0  0  0
  -11.6436  -40.1292  -11.6253 C   0  0  0  0  0  0  0  0  0  0  0  0
  -11.9971  -38.8856  -11.9714 N   0  0  0  0  0  0  0  0  0  0  0  0
  1  2  1  0
  2  3  1  0
  3  4  2  0
  4  5  1  0
  5  6  1  0
  6  7  1  0
  7  8  1  0
  8  9  1  0
  9 10  1  6
  9 11  1  0
 11 12  1  6
 12 13  1  0
 13 14  2  0
 14 15  1  0
 15 16  2  0
 16 17  1  0
 17 18  2  0
 15 19  1  0
 19 20  1  0
 20 21  1  0
 21 22  1  0
 22 23  1  0
 23 24  1  0
 24 25  1  0
 25 26  2  0
 26 27  1  0
 27 28  2  0
 28 29  1  0
 29 30  2  0
 29 31  1  0
 31 32  2  0
 31 33  1  0
 27 34  1  0
 34 35  2  0
 34 36  1  0
 36 37  1  0
 36 38  1  0
  5 39  2  0
 39 40  1  0
 40 41  2  0
 18 13  1  0
 30 25  1  0
 33 11  1  0
 41  3  1  0
M  END
$$$$
