
     RDKit          3D

 41 44  0  0  0  0  0  0  0  0999 V2000
  -21.1831  -44.3882   -6.7327 C   0  0  0  0  0  0  0  0  0  0  0  0
  -19.8234  -43.9003   -6.3472 C   0  0  0  0  0  0  0  0  0  0  0  0
  -18.7542  -44.8156   -6.8324 C   0  0  0  0  0  0  0  0  0  0  0  0
  -17.4718  -44.3380   -7.1110 C   0  0  0  0  0  0  0  0  0  0  0  0
  -16.4905  -45.1948   -7.5576 C   0  0  0  0  0  0  0  0  0  0  0  0
  -15.1437  -44.6318   -7.8366 C   0  0  0  0  0  0  0  0  0  0  0  0
  -15.1749  -43.2206   -8.0370 N   0  0  0  0  0  0  0  0  0  0  0  0
  -15.9136  -42.7768   -9.1998 C   0  0  0  0  0  0  0  0  0  0  0  0
  -15.5942  -41.3585   -9.4519 C   0  0  1  0  0  0  0  0  0  0  0  0
  -14.5975  -41.1140  -10.3783 O   0  0  0  0  0  0  0  0  0  0  0  0
  -16.7703  -40.4865   -9.8882 C   0  0  2  0  0  0  0  0  0  0  0  0
  -16.4035  -39.6727  -11.1112 C   0  0  0  0  0  0  0  0  0  0  0  0
  -16.5743  -38.1879  -10.9106 C   0  0  0  0  0  0  0  0  0  0  0  0
  -17.7134  -37.4390  -10.8805 C   0  0  0  0  0  0  0  0  0  0  0  0
  -17.5762  -36.0689  -10.6701 C   0  0  0  0  0  0  0  0  0  0  0  0
  -16.2917  -35.5031  -10.4955 C   0  0  0  0  0  0  0  0  0  0  0  0
  -15.1357  -36.2411  -10.5224 C   0  0  0  0  0  0  0  0  0  0  0  0
  -15.3060  -37.5820  -10.7319 C   0  0  0  0  0  0  0  0  0  0  0  0
  -18.5512  -35.0961  -10.5957 O   0  0  0  0  0  0  0  0  0  0  0  0
  -19.6163  -34.6423  -11.3366 C   0  0  0  0  0  0  0  0  0  0  0  0
  -20.9216  -34.6074  -10.5800 C   0  0  0  0  0  0  0  0  0  0  0  0
  -21.6219  -35.9502  -10.7915 C   0  0  0  0  0  0  0  0  0  0  0  0
  -22.6057  -36.1438   -9.6780 C   0  0  0  0  0  0  0  0  0  0  0  0
  -22.3880  -37.2222   -8.9051 O   0  0  0  0  0  0  0  0  0  0  0  0
  -21.5308  -38.2042   -8.5071 C   0  0  0  0  0  0  0  0  0  0  0  0
  -22.2614  -39.3473   -8.1000 C   0  0  0  0  0  0  0  0  0  0  0  0
  -21.6762  -40.4970   -7.6453 C   0  0  0  0  0  0  0  0  0  0  0  0
  -20.3074  -40.4693   -7.6086 C   0  0  0  0  0  0  0  0  0  0  0  0
  -19.5242  -39.3577   -8.0034 C   0  0  0  0  0  0  0  0  0  0  0  0
  -20.1460  -38.2268   -8.4513 C   0  0  0  0  0  0  0  0  0  0  0  0
  -18.0882  -39.6848   -7.8236 C   0  0  0  0  0  0  0  0  0  0  0  0
  -17.7160  -40.1114   -6.6213 O   0  0  0  0  0  0  0  0  0  0  0  0
  -16.9991  -39.6339   -8.7060 N   0  0  0  0  0  0  0  0  0  0  0  0
  -22.4414  -41.6658   -7.2301 C   0  0  0  0  0  0  0  0  0  0  0  0
  -22.7948  -42.4537   -8.1402 O   0  0  0  0  0  0  0  0  0  0  0  0
  -22.7983  -41.9562   -5.8988 N   0  0  0  0  0  0  0  0  0  0  0  0
  -23.6691  -43.0636   -5.5978 C   0  0  0  0  0  0  0  0  0  0  0  0
  -22.2911  -41.1374   -4.8299 C   0  0  0  0  0  0  0  0  0  0  0  0
  -16.7989  -46.4771   -7.7138 N   0  0  0  0  0  0  0  0  0  0  0  0
  -18.0251  -46.9429   -7.4493 C   0  0  0  0  0  0  0  0  0  0  0  0
  -18.9823  -46.1144   -7.0148 N   0  0  0  0  0  0  0  0  0  0  0  0
  1  2  1  0
  2  3  1  0
  3  4  2  0
  4  5  1  0
  5  6  1  0
  6  7  1  0
  7  8  1  0
  8  9  1  0
  9 10  1  6
  9 11  1  0
 11 12  1  6
 12 13  1  0
 13 14  2  0
 14 15  1  0
 15 16  2  0
 16 17  1  0
 17 18  2  0
 15 19  1  0
 19 20  1  0
 20 21  1  0
 21 22  1  0
 22 23  1  0
 23 24  1  0
 24 25  1  0
 25 26  2  0
 26 27  1  0
 27 28  2  0
 28 29  1  0
 29 30  2  0
 29 31  1  0
 31 32  2  0
 31 33  1  0
 27 34  1  0
 34 35  2  0
 34 36  1  0
 36 37  1  0
 36 38  1  0
  5 39  2  0
 39 40  1  0
 40 41  2  0
 18 13  1  0
 30 25  1  0
 33 11  1  0
 41  3  1  0
M  END
$$$$
