
     RDKit          3D

 41 44  0  0  0  0  0  0  0  0999 V2000
  -14.3400  -36.6555  -12.5368 C   0  0  0  0  0  0  0  0  0  0  0  0
  -13.2110  -37.6099  -12.3128 C   0  0  0  0  0  0  0  0  0  0  0  0
  -13.7029  -38.9587  -11.9188 C   0  0  0  0  0  0  0  0  0  0  0  0
  -13.4207  -39.4856  -10.6567 C   0  0  0  0  0  0  0  0  0  0  0  0
  -13.8828  -40.7338  -10.3030 C   0  0  0  0  0  0  0  0  0  0  0  0
  -13.5536  -41.2434   -8.9463 C   0  0  0  0  0  0  0  0  0  0  0  0
  -14.0319  -40.3862   -7.9124 N   0  0  0  0  0  0  0  0  0  0  0  0
  -15.2688  -40.8020   -7.2864 C   0  0  0  0  0  0  0  0  0  0  0  0
  -16.2357  -39.6901   -7.3615 C   0  0  1  0  0  0  0  0  0  0  0  0
  -15.8029  -38.5496   -8.0122 O   0  0  0  0  0  0  0  0  0  0  0  0
  -17.5815  -40.0301   -7.9998 C   0  0  2  0  0  0  0  0  0  0  0  0
  -18.2442  -38.7804   -8.5399 C   0  0  0  0  0  0  0  0  0  0  0  0
  -19.6205  -38.5438   -7.9706 C   0  0  0  0  0  0  0  0  0  0  0  0
  -20.7991  -39.1679   -8.2547 C   0  0  0  0  0  0  0  0  0  0  0  0
  -21.9328  -38.7445   -7.5651 C   0  0  0  0  0  0  0  0  0  0  0  0
  -21.8356  -37.7056   -6.6102 C   0  0  0  0  0  0  0  0  0  0  0  0
  -20.6587  -37.0673   -6.3117 C   0  0  0  0  0  0  0  0  0  0  0  0
  -19.5658  -37.5064   -7.0071 C   0  0  0  0  0  0  0  0  0  0  0  0
  -23.2315  -39.1996   -7.6594 O   0  0  0  0  0  0  0  0  0  0  0  0
  -24.1829  -39.4149   -8.6277 C   0  0  0  0  0  0  0  0  0  0  0  0
  -24.7399  -40.8173   -8.6420 C   0  0  0  0  0  0  0  0  0  0  0  0
  -23.8861  -41.6509   -9.5983 C   0  0  0  0  0  0  0  0  0  0  0  0
  -24.0630  -43.0957   -9.2428 C   0  0  0  0  0  0  0  0  0  0  0  0
  -22.9400  -43.7331   -8.8686 O   0  0  0  0  0  0  0  0  0  0  0  0
  -21.6449  -43.6441   -8.4532 C   0  0  0  0  0  0  0  0  0  0  0  0
  -20.9274  -44.7961   -8.8585 C   0  0  0  0  0  0  0  0  0  0  0  0
  -19.6022  -44.9971   -8.5855 C   0  0  0  0  0  0  0  0  0  0  0  0
  -19.0019  -43.9893   -7.8787 C   0  0  0  0  0  0  0  0  0  0  0  0
  -19.6665  -42.8155   -7.4481 C   0  0  0  0  0  0  0  0  0  0  0  0
  -20.9911  -42.6517   -7.7397 C   0  0  0  0  0  0  0  0  0  0  0  0
  -18.7085  -41.9558   -6.7102 C   0  0  0  0  0  0  0  0  0  0  0  0
  -18.0552  -42.5172   -5.6982 O   0  0  0  0  0  0  0  0  0  0  0  0
  -18.3369  -40.6133   -6.8747 N   0  0  0  0  0  0  0  0  0  0  0  0
  -18.8770  -46.1879   -9.0097 C   0  0  0  0  0  0  0  0  0  0  0  0
  -18.3706  -46.1538  -10.1570 O   0  0  0  0  0  0  0  0  0  0  0  0
  -18.7144  -47.3467   -8.2256 N   0  0  0  0  0  0  0  0  0  0  0  0
  -19.2803  -47.4228   -6.9030 C   0  0  0  0  0  0  0  0  0  0  0  0
  -17.9739  -48.4637   -8.7493 C   0  0  0  0  0  0  0  0  0  0  0  0
  -14.5981  -41.4143  -11.1913 N   0  0  0  0  0  0  0  0  0  0  0  0
  -14.8728  -40.9169  -12.4027 C   0  0  0  0  0  0  0  0  0  0  0  0
  -14.4264  -39.7042  -12.7512 N   0  0  0  0  0  0  0  0  0  0  0  0
  1  2  1  0
  2  3  1  0
  3  4  2  0
  4  5  1  0
  5  6  1  0
  6  7  1  0
  7  8  1  0
  8  9  1  0
  9 10  1  6
  9 11  1  0
 11 12  1  1
 12 13  1  0
 13 14  2  0
 14 15  1  0
 15 16  2  0
 16 17  1  0
 17 18  2  0
 15 19  1  0
 19 20  1  0
 20 21  1  0
 21 22  1  0
 22 23  1  0
 23 24  1  0
 24 25  1  0
 25 26  2  0
 26 27  1  0
 27 28  2  0
 28 29  1  0
 29 30  2  0
 29 31  1  0
 31 32  2  0
 31 33  1  0
 27 34  1  0
 34 35  2  0
 34 36  1  0
 36 37  1  0
 36 38  1  0
  5 39  2  0
 39 40  1  0
 40 41  2  0
 18 13  1  0
 30 25  1  0
 33 11  1  0
 41  3  1  0
M  END
$$$$
