
     RDKit          3D

 41 44  0  0  0  0  0  0  0  0999 V2000
  -24.3496  -41.1279   -5.6248 C   0  0  0  0  0  0  0  0  0  0  0  0
  -24.1686  -39.8807   -6.4293 C   0  0  0  0  0  0  0  0  0  0  0  0
  -22.8187  -39.8224   -7.0545 C   0  0  0  0  0  0  0  0  0  0  0  0
  -21.8045  -39.0376   -6.5015 C   0  0  0  0  0  0  0  0  0  0  0  0
  -20.5592  -38.9931   -7.0879 C   0  0  0  0  0  0  0  0  0  0  0  0
  -19.5177  -38.1424   -6.4551 C   0  0  0  0  0  0  0  0  0  0  0  0
  -18.9595  -38.7430   -5.2888 N   0  0  0  0  0  0  0  0  0  0  0  0
  -17.9006  -39.6993   -5.5315 C   0  0  0  0  0  0  0  0  0  0  0  0
  -16.9312  -39.1053   -6.4718 C   0  0  1  0  0  0  0  0  0  0  0  0
  -15.9060  -38.3702   -5.9062 O   0  0  0  0  0  0  0  0  0  0  0  0
  -16.2450  -40.0887   -7.4184 C   0  0  2  0  0  0  0  0  0  0  0  0
  -14.8586  -39.5990   -7.7798 C   0  0  0  0  0  0  0  0  0  0  0  0
  -14.6480  -39.4536   -9.2660 C   0  0  0  0  0  0  0  0  0  0  0  0
  -14.4449  -40.4123  -10.2142 C   0  0  0  0  0  0  0  0  0  0  0  0
  -14.2830  -39.9890  -11.5313 C   0  0  0  0  0  0  0  0  0  0  0  0
  -14.3337  -38.6107  -11.8449 C   0  0  0  0  0  0  0  0  0  0  0  0
  -14.5374  -37.6333  -10.9043 C   0  0  0  0  0  0  0  0  0  0  0  0
  -14.6915  -38.0828   -9.6217 C   0  0  0  0  0  0  0  0  0  0  0  0
  -14.0668  -40.7397  -12.6681 O   0  0  0  0  0  0  0  0  0  0  0  0
  -13.2027  -41.7101  -13.1164 C   0  0  0  0  0  0  0  0  0  0  0  0
  -13.8865  -42.9567  -13.6223 C   0  0  0  0  0  0  0  0  0  0  0  0
  -14.0249  -43.9250  -12.4469 C   0  0  0  0  0  0  0  0  0  0  0  0
  -15.1225  -44.8935  -12.7670 C   0  0  0  0  0  0  0  0  0  0  0  0
  -16.1623  -44.8798  -11.9149 O   0  0  0  0  0  0  0  0  0  0  0  0
  -16.8326  -44.2321  -10.9206 C   0  0  0  0  0  0  0  0  0  0  0  0
  -17.5121  -45.1702  -10.1055 C   0  0  0  0  0  0  0  0  0  0  0  0
  -18.2747  -44.8214   -9.0249 C   0  0  0  0  0  0  0  0  0  0  0  0
  -18.3396  -43.4758   -8.7777 C   0  0  0  0  0  0  0  0  0  0  0  0
  -17.6818  -42.4924   -9.5557 C   0  0  0  0  0  0  0  0  0  0  0  0
  -16.9298  -42.8807  -10.6281 C   0  0  0  0  0  0  0  0  0  0  0  0
  -17.9816  -41.1500   -8.9993 C   0  0  0  0  0  0  0  0  0  0  0  0
  -19.2640  -40.8378   -8.8437 O   0  0  0  0  0  0  0  0  0  0  0  0
  -17.1478  -40.1009   -8.5851 N   0  0  0  0  0  0  0  0  0  0  0  0
  -18.9679  -45.7983   -8.1949 C   0  0  0  0  0  0  0  0  0  0  0  0
  -18.2658  -46.7195   -7.7128 O   0  0  0  0  0  0  0  0  0  0  0  0
  -20.3468  -45.7694   -7.9085 N   0  0  0  0  0  0  0  0  0  0  0  0
  -20.9385  -46.7630   -7.0494 C   0  0  0  0  0  0  0  0  0  0  0  0
  -21.1725  -44.7400   -8.4817 C   0  0  0  0  0  0  0  0  0  0  0  0
  -20.3549  -39.7127   -8.1852 N   0  0  0  0  0  0  0  0  0  0  0  0
  -21.3212  -40.4671   -8.7216 C   0  0  0  0  0  0  0  0  0  0  0  0
  -22.5331  -40.5140   -8.1555 N   0  0  0  0  0  0  0  0  0  0  0  0
  1  2  1  0
  2  3  1  0
  3  4  2  0
  4  5  1  0
  5  6  1  0
  6  7  1  0
  7  8  1  0
  8  9  1  0
  9 10  1  1
  9 11  1  0
 11 12  1  6
 12 13  1  0
 13 14  2  0
 14 15  1  0
 15 16  2  0
 16 17  1  0
 17 18  2  0
 15 19  1  0
 19 20  1  0
 20 21  1  0
 21 22  1  0
 22 23  1  0
 23 24  1  0
 24 25  1  0
 25 26  2  0
 26 27  1  0
 27 28  2  0
 28 29  1  0
 29 30  2  0
 29 31  1  0
 31 32  2  0
 31 33  1  0
 27 34  1  0
 34 35  2  0
 34 36  1  0
 36 37  1  0
 36 38  1  0
  5 39  2  0
 39 40  1  0
 40 41  2  0
 18 13  1  0
 30 25  1  0
 33 11  1  0
 41  3  1  0
M  END
$$$$
