
     RDKit          3D

 41 44  0  0  0  0  0  0  0  0999 V2000
  -13.9815  -37.6394  -13.1485 C   0  0  0  0  0  0  0  0  0  0  0  0
  -15.2108  -37.0895  -12.4990 C   0  0  0  0  0  0  0  0  0  0  0  0
  -14.9770  -36.7706  -11.0637 C   0  0  0  0  0  0  0  0  0  0  0  0
  -15.9102  -37.1265  -10.0877 C   0  0  0  0  0  0  0  0  0  0  0  0
  -15.6820  -36.8278   -8.7628 C   0  0  0  0  0  0  0  0  0  0  0  0
  -16.7087  -37.2320   -7.7673 C   0  0  0  0  0  0  0  0  0  0  0  0
  -16.2826  -38.3276   -6.9606 N   0  0  0  0  0  0  0  0  0  0  0  0
  -15.9441  -39.5343   -7.6844 C   0  0  0  0  0  0  0  0  0  0  0  0
  -16.5221  -39.4527   -9.0394 C   0  0  1  0  0  0  0  0  0  0  0  0
  -15.7177  -39.8969  -10.0724 O   0  0  0  0  0  0  0  0  0  0  0  0
  -17.8555  -40.1735   -9.2307 C   0  0  2  0  0  0  0  0  0  0  0  0
  -18.0878  -40.4816  -10.6949 C   0  0  0  0  0  0  0  0  0  0  0  0
  -19.3776  -39.9084  -11.2258 C   0  0  0  0  0  0  0  0  0  0  0  0
  -20.6603  -40.3316  -11.0389 C   0  0  0  0  0  0  0  0  0  0  0  0
  -21.6742  -39.5995  -11.6523 C   0  0  0  0  0  0  0  0  0  0  0  0
  -21.3564  -38.4632  -12.4323 C   0  0  0  0  0  0  0  0  0  0  0  0
  -20.0724  -38.0231  -12.6305 C   0  0  0  0  0  0  0  0  0  0  0  0
  -19.1016  -38.7648  -12.0155 C   0  0  0  0  0  0  0  0  0  0  0  0
  -23.0375  -39.8070  -11.6266 O   0  0  0  0  0  0  0  0  0  0  0  0
  -23.9332  -40.8194  -11.8757 C   0  0  0  0  0  0  0  0  0  0  0  0
  -24.8668  -41.1115  -10.7266 C   0  0  0  0  0  0  0  0  0  0  0  0
  -24.2175  -42.1893   -9.8576 C   0  0  0  0  0  0  0  0  0  0  0  0
  -24.8288  -42.1179   -8.4914 C   0  0  0  0  0  0  0  0  0  0  0  0
  -23.9684  -41.8465   -7.4946 O   0  0  0  0  0  0  0  0  0  0  0  0
  -22.7384  -41.3932   -7.1216 C   0  0  0  0  0  0  0  0  0  0  0  0
  -22.3531  -41.9935   -5.8979 C   0  0  0  0  0  0  0  0  0  0  0  0
  -21.1667  -41.7342   -5.2685 C   0  0  0  0  0  0  0  0  0  0  0  0
  -20.3583  -40.8362   -5.9134 C   0  0  0  0  0  0  0  0  0  0  0  0
  -20.6889  -40.2058   -7.1375 C   0  0  0  0  0  0  0  0  0  0  0  0
  -21.8840  -40.4903   -7.7350 C   0  0  0  0  0  0  0  0  0  0  0  0
  -19.5840  -39.2974   -7.5317 C   0  0  0  0  0  0  0  0  0  0  0  0
  -19.1994  -38.3959   -6.6343 O   0  0  0  0  0  0  0  0  0  0  0  0
  -18.8309  -39.1963   -8.7107 N   0  0  0  0  0  0  0  0  0  0  0  0
  -20.7836  -42.3602   -4.0094 C   0  0  0  0  0  0  0  0  0  0  0  0
  -20.4406  -43.5656   -4.0670 O   0  0  0  0  0  0  0  0  0  0  0  0
  -20.7754  -41.7067   -2.7616 N   0  0  0  0  0  0  0  0  0  0  0  0
  -20.4300  -42.4234   -1.5606 C   0  0  0  0  0  0  0  0  0  0  0  0
  -21.1181  -40.3114   -2.6852 C   0  0  0  0  0  0  0  0  0  0  0  0
  -14.5576  -36.1964   -8.4455 N   0  0  0  0  0  0  0  0  0  0  0  0
  -13.6583  -35.8516   -9.3744 C   0  0  0  0  0  0  0  0  0  0  0  0
  -13.8752  -36.1399  -10.6632 N   0  0  0  0  0  0  0  0  0  0  0  0
  1  2  1  0
  2  3  1  0
  3  4  2  0
  4  5  1  0
  5  6  1  0
  6  7  1  0
  7  8  1  0
  8  9  1  0
  9 10  1  6
  9 11  1  0
 11 12  1  6
 12 13  1  0
 13 14  2  0
 14 15  1  0
 15 16  2  0
 16 17  1  0
 17 18  2  0
 15 19  1  0
 19 20  1  0
 20 21  1  0
 21 22  1  0
 22 23  1  0
 23 24  1  0
 24 25  1  0
 25 26  2  0
 26 27  1  0
 27 28  2  0
 28 29  1  0
 29 30  2  0
 29 31  1  0
 31 32  2  0
 31 33  1  0
 27 34  1  0
 34 35  2  0
 34 36  1  0
 36 37  1  0
 36 38  1  0
  5 39  2  0
 39 40  1  0
 40 41  2  0
 18 13  1  0
 30 25  1  0
 33 11  1  0
 41  3  1  0
M  END
$$$$
