
     RDKit          3D

 41 44  0  0  0  0  0  0  0  0999 V2000
  -13.7101  -44.4539  -11.8614 C   0  0  0  0  0  0  0  0  0  0  0  0
  -13.5552  -44.5158  -10.3755 C   0  0  0  0  0  0  0  0  0  0  0  0
  -13.2097  -43.1852   -9.8042 C   0  0  0  0  0  0  0  0  0  0  0  0
  -13.6785  -42.0079  -10.3912 C   0  0  0  0  0  0  0  0  0  0  0  0
  -13.3537  -40.7829   -9.8524 C   0  0  0  0  0  0  0  0  0  0  0  0
  -13.8819  -39.5635  -10.5178 C   0  0  0  0  0  0  0  0  0  0  0  0
  -15.1759  -39.2011  -10.0414 N   0  0  0  0  0  0  0  0  0  0  0  0
  -15.1885  -38.3050   -8.9050 C   0  0  0  0  0  0  0  0  0  0  0  0
  -16.2120  -38.7668   -7.9479 C   0  0  1  0  0  0  0  0  0  0  0  0
  -16.5440  -37.8832   -6.9378 O   0  0  0  0  0  0  0  0  0  0  0  0
  -17.5442  -39.1921   -8.5631 C   0  0  2  0  0  0  0  0  0  0  0  0
  -18.3853  -37.9789   -8.8998 C   0  0  0  0  0  0  0  0  0  0  0  0
  -19.7417  -37.9945   -8.2409 C   0  0  0  0  0  0  0  0  0  0  0  0
  -20.8519  -38.7228   -8.5513 C   0  0  0  0  0  0  0  0  0  0  0  0
  -21.9830  -38.5389   -7.7595 C   0  0  0  0  0  0  0  0  0  0  0  0
  -21.9523  -37.6260   -6.6796 C   0  0  0  0  0  0  0  0  0  0  0  0
  -20.8446  -36.8857   -6.3529 C   0  0  0  0  0  0  0  0  0  0  0  0
  -19.7524  -37.0895   -7.1507 C   0  0  0  0  0  0  0  0  0  0  0  0
  -23.2206  -39.1405   -7.8538 O   0  0  0  0  0  0  0  0  0  0  0  0
  -24.1979  -39.3507   -8.7972 C   0  0  0  0  0  0  0  0  0  0  0  0
  -24.5814  -40.7996   -8.9734 C   0  0  0  0  0  0  0  0  0  0  0  0
  -23.6949  -41.3889  -10.0712 C   0  0  0  0  0  0  0  0  0  0  0  0
  -23.6736  -42.8778   -9.9046 C   0  0  0  0  0  0  0  0  0  0  0  0
  -22.4606  -43.4088   -9.6715 O   0  0  0  0  0  0  0  0  0  0  0  0
  -21.1623  -43.2086   -9.3082 C   0  0  0  0  0  0  0  0  0  0  0  0
  -20.3379  -44.1984   -9.8969 C   0  0  0  0  0  0  0  0  0  0  0  0
  -18.9837  -44.2616   -9.7148 C   0  0  0  0  0  0  0  0  0  0  0  0
  -18.4662  -43.2834   -8.9079 C   0  0  0  0  0  0  0  0  0  0  0  0
  -19.2394  -42.2685   -8.2937 C   0  0  0  0  0  0  0  0  0  0  0  0
  -20.5896  -42.2396   -8.4992 C   0  0  0  0  0  0  0  0  0  0  0  0
  -18.3478  -41.3942   -7.4923 C   0  0  0  0  0  0  0  0  0  0  0  0
  -17.5694  -41.9916   -6.5960 O   0  0  0  0  0  0  0  0  0  0  0  0
  -18.1518  -40.0054   -7.4925 N   0  0  0  0  0  0  0  0  0  0  0  0
  -18.1480  -45.2862  -10.3277 C   0  0  0  0  0  0  0  0  0  0  0  0
  -18.0791  -45.2746  -11.5803 O   0  0  0  0  0  0  0  0  0  0  0  0
  -17.4298  -46.2650   -9.6134 N   0  0  0  0  0  0  0  0  0  0  0  0
  -17.4468  -46.2818   -8.1729 C   0  0  0  0  0  0  0  0  0  0  0  0
  -16.6697  -47.2553  -10.3287 C   0  0  0  0  0  0  0  0  0  0  0  0
  -12.5879  -40.7562   -8.7678 N   0  0  0  0  0  0  0  0  0  0  0  0
  -12.1343  -41.8795   -8.1992 C   0  0  0  0  0  0  0  0  0  0  0  0
  -12.4474  -43.0725   -8.7187 N   0  0  0  0  0  0  0  0  0  0  0  0
  1  2  1  0
  2  3  1  0
  3  4  2  0
  4  5  1  0
  5  6  1  0
  6  7  1  0
  7  8  1  0
  8  9  1  0
  9 10  1  1
  9 11  1  0
 11 12  1  1
 12 13  1  0
 13 14  2  0
 14 15  1  0
 15 16  2  0
 16 17  1  0
 17 18  2  0
 15 19  1  0
 19 20  1  0
 20 21  1  0
 21 22  1  0
 22 23  1  0
 23 24  1  0
 24 25  1  0
 25 26  2  0
 26 27  1  0
 27 28  2  0
 28 29  1  0
 29 30  2  0
 29 31  1  0
 31 32  2  0
 31 33  1  0
 27 34  1  0
 34 35  2  0
 34 36  1  0
 36 37  1  0
 36 38  1  0
  5 39  2  0
 39 40  1  0
 40 41  2  0
 18 13  1  0
 30 25  1  0
 33 11  1  0
 41  3  1  0
M  END
$$$$
