
     RDKit          3D

 41 44  0  0  0  0  0  0  0  0999 V2000
  -23.1969  -39.3604   -4.9069 C   0  0  0  0  0  0  0  0  0  0  0  0
  -22.0363  -40.0815   -5.5140 C   0  0  0  0  0  0  0  0  0  0  0  0
  -21.6882  -39.5313   -6.8529 C   0  0  0  0  0  0  0  0  0  0  0  0
  -20.6363  -38.6255   -7.0057 C   0  0  0  0  0  0  0  0  0  0  0  0
  -20.3225  -38.1248   -8.2497 C   0  0  0  0  0  0  0  0  0  0  0  0
  -19.1922  -37.1656   -8.3532 C   0  0  0  0  0  0  0  0  0  0  0  0
  -18.4385  -37.0805   -7.1460 N   0  0  0  0  0  0  0  0  0  0  0  0
  -17.9267  -38.3385   -6.6460 C   0  0  0  0  0  0  0  0  0  0  0  0
  -16.5164  -38.4742   -7.0578 C   0  0  1  0  0  0  0  0  0  0  0  0
  -15.5711  -38.0503   -6.1423 O   0  0  0  0  0  0  0  0  0  0  0  0
  -16.0811  -39.8819   -7.4614 C   0  0  2  0  0  0  0  0  0  0  0  0
  -14.5778  -39.9452   -7.6309 C   0  0  0  0  0  0  0  0  0  0  0  0
  -14.1530  -40.4225   -8.9969 C   0  0  0  0  0  0  0  0  0  0  0  0
  -14.1621  -41.6815   -9.5206 C   0  0  0  0  0  0  0  0  0  0  0  0
  -13.7122  -41.8358  -10.8298 C   0  0  0  0  0  0  0  0  0  0  0  0
  -13.2701  -40.7115  -11.5653 C   0  0  0  0  0  0  0  0  0  0  0  0
  -13.2545  -39.4385  -11.0546 C   0  0  0  0  0  0  0  0  0  0  0  0
  -13.7015  -39.3224   -9.7671 C   0  0  0  0  0  0  0  0  0  0  0  0
  -13.6180  -42.9829  -11.5900 O   0  0  0  0  0  0  0  0  0  0  0  0
  -13.0722  -44.2411  -11.4982 C   0  0  0  0  0  0  0  0  0  0  0  0
  -14.0601  -45.3586  -11.7273 C   0  0  0  0  0  0  0  0  0  0  0  0
  -14.6494  -45.7484  -10.3711 C   0  0  0  0  0  0  0  0  0  0  0  0
  -15.9564  -46.4404  -10.6119 C   0  0  0  0  0  0  0  0  0  0  0  0
  -17.0294  -45.8381  -10.0701 O   0  0  0  0  0  0  0  0  0  0  0  0
  -17.5656  -44.7158   -9.5128 C   0  0  0  0  0  0  0  0  0  0  0  0
  -18.6084  -45.0698   -8.6220 C   0  0  0  0  0  0  0  0  0  0  0  0
  -19.3394  -44.1573   -7.9121 C   0  0  0  0  0  0  0  0  0  0  0  0
  -18.9892  -42.8504   -8.1242 C   0  0  0  0  0  0  0  0  0  0  0  0
  -17.9564  -42.4365   -9.0001 C   0  0  0  0  0  0  0  0  0  0  0  0
  -17.2492  -43.3783   -9.6924 C   0  0  0  0  0  0  0  0  0  0  0  0
  -17.8648  -40.9558   -8.9803 C   0  0  0  0  0  0  0  0  0  0  0  0
  -18.9829  -40.2822   -9.2297 O   0  0  0  0  0  0  0  0  0  0  0  0
  -16.7898  -40.0877   -8.7389 N   0  0  0  0  0  0  0  0  0  0  0  0
  -20.4095  -44.5367   -6.9985 C   0  0  0  0  0  0  0  0  0  0  0  0
  -20.0634  -45.1333   -5.9505 O   0  0  0  0  0  0  0  0  0  0  0  0
  -21.7768  -44.2785   -7.2174 N   0  0  0  0  0  0  0  0  0  0  0  0
  -22.2028  -43.4871   -8.3433 C   0  0  0  0  0  0  0  0  0  0  0  0
  -22.7570  -44.8075   -6.3065 C   0  0  0  0  0  0  0  0  0  0  0  0
  -21.0447  -38.5262   -9.2893 N   0  0  0  0  0  0  0  0  0  0  0  0
  -22.0543  -39.3936   -9.1516 C   0  0  0  0  0  0  0  0  0  0  0  0
  -22.3631  -39.8833   -7.9449 N   0  0  0  0  0  0  0  0  0  0  0  0
  1  2  1  0
  2  3  1  0
  3  4  2  0
  4  5  1  0
  5  6  1  0
  6  7  1  0
  7  8  1  0
  8  9  1  0
  9 10  1  1
  9 11  1  0
 11 12  1  6
 12 13  1  0
 13 14  2  0
 14 15  1  0
 15 16  2  0
 16 17  1  0
 17 18  2  0
 15 19  1  0
 19 20  1  0
 20 21  1  0
 21 22  1  0
 22 23  1  0
 23 24  1  0
 24 25  1  0
 25 26  2  0
 26 27  1  0
 27 28  2  0
 28 29  1  0
 29 30  2  0
 29 31  1  0
 31 32  2  0
 31 33  1  0
 27 34  1  0
 34 35  2  0
 34 36  1  0
 36 37  1  0
 36 38  1  0
  5 39  2  0
 39 40  1  0
 40 41  2  0
 18 13  1  0
 30 25  1  0
 33 11  1  0
 41  3  1  0
M  END
$$$$
