
     RDKit          3D

 41 44  0  0  0  0  0  0  0  0999 V2000
  -20.6052  -41.0312   -2.0819 C   0  0  0  0  0  0  0  0  0  0  0  0
  -21.4022  -39.8990   -2.6462 C   0  0  0  0  0  0  0  0  0  0  0  0
  -21.5179  -39.9943   -4.1274 C   0  0  0  0  0  0  0  0  0  0  0  0
  -21.0964  -38.9470   -4.9495 C   0  0  0  0  0  0  0  0  0  0  0  0
  -21.2069  -39.0475   -6.3185 C   0  0  0  0  0  0  0  0  0  0  0  0
  -20.7408  -37.9031   -7.1441 C   0  0  0  0  0  0  0  0  0  0  0  0
  -19.7780  -37.0995   -6.4660 N   0  0  0  0  0  0  0  0  0  0  0  0
  -18.5971  -37.8011   -6.0101 C   0  0  0  0  0  0  0  0  0  0  0  0
  -17.5563  -37.7047   -7.0514 C   0  0  1  0  0  0  0  0  0  0  0  0
  -16.3005  -37.3160   -6.6231 O   0  0  0  0  0  0  0  0  0  0  0  0
  -17.3259  -38.9731   -7.8712 C   0  0  2  0  0  0  0  0  0  0  0  0
  -15.9421  -38.9645   -8.4858 C   0  0  0  0  0  0  0  0  0  0  0  0
  -15.9574  -39.1072   -9.9870 C   0  0  0  0  0  0  0  0  0  0  0  0
  -16.1794  -40.2126  -10.7540 C   0  0  0  0  0  0  0  0  0  0  0  0
  -16.1386  -40.0534  -12.1372 C   0  0  0  0  0  0  0  0  0  0  0  0
  -15.8764  -38.7815  -12.6976 C   0  0  0  0  0  0  0  0  0  0  0  0
  -15.6513  -37.6593  -11.9415 C   0  0  0  0  0  0  0  0  0  0  0  0
  -15.6975  -37.8507  -10.5879 C   0  0  0  0  0  0  0  0  0  0  0  0
  -16.3255  -40.9936  -13.1290 O   0  0  0  0  0  0  0  0  0  0  0  0
  -15.8379  -42.2276  -13.4877 C   0  0  0  0  0  0  0  0  0  0  0  0
  -16.9024  -43.2832  -13.6607 C   0  0  0  0  0  0  0  0  0  0  0  0
  -17.0888  -43.9856  -12.3153 C   0  0  0  0  0  0  0  0  0  0  0  0
  -18.4411  -44.6310  -12.3094 C   0  0  0  0  0  0  0  0  0  0  0  0
  -19.2792  -44.1914  -11.3546 O   0  0  0  0  0  0  0  0  0  0  0  0
  -19.5750  -43.2381  -10.4265 C   0  0  0  0  0  0  0  0  0  0  0  0
  -20.3287  -43.8083   -9.3716 C   0  0  0  0  0  0  0  0  0  0  0  0
  -20.7762  -43.0982   -8.2915 C   0  0  0  0  0  0  0  0  0  0  0  0
  -20.4404  -41.7705   -8.2976 C   0  0  0  0  0  0  0  0  0  0  0  0
  -19.6891  -41.1456   -9.3223 C   0  0  0  0  0  0  0  0  0  0  0  0
  -19.2606  -41.8887  -10.3856 C   0  0  0  0  0  0  0  0  0  0  0  0
  -19.5244  -39.7072   -8.9978 C   0  0  0  0  0  0  0  0  0  0  0  0
  -20.6328  -39.0177   -8.7485 O   0  0  0  0  0  0  0  0  0  0  0  0
  -18.3853  -38.8953   -8.8951 N   0  0  0  0  0  0  0  0  0  0  0  0
  -21.5506  -43.6991   -7.2130 C   0  0  0  0  0  0  0  0  0  0  0  0
  -21.1323  -44.7955   -6.7693 O   0  0  0  0  0  0  0  0  0  0  0  0
  -22.7129  -43.1343   -6.6525 N   0  0  0  0  0  0  0  0  0  0  0  0
  -23.3884  -43.7821   -5.5574 C   0  0  0  0  0  0  0  0  0  0  0  0
  -23.2321  -41.9007   -7.1806 C   0  0  0  0  0  0  0  0  0  0  0  0
  -21.7220  -40.1607   -6.8276 N   0  0  0  0  0  0  0  0  0  0  0  0
  -22.1284  -41.1687   -6.0471 C   0  0  0  0  0  0  0  0  0  0  0  0
  -22.0230  -41.0761   -4.7161 N   0  0  0  0  0  0  0  0  0  0  0  0
  1  2  1  0
  2  3  1  0
  3  4  2  0
  4  5  1  0
  5  6  1  0
  6  7  1  0
  7  8  1  0
  8  9  1  0
  9 10  1  1
  9 11  1  0
 11 12  1  6
 12 13  1  0
 13 14  2  0
 14 15  1  0
 15 16  2  0
 16 17  1  0
 17 18  2  0
 15 19  1  0
 19 20  1  0
 20 21  1  0
 21 22  1  0
 22 23  1  0
 23 24  1  0
 24 25  1  0
 25 26  2  0
 26 27  1  0
 27 28  2  0
 28 29  1  0
 29 30  2  0
 29 31  1  0
 31 32  2  0
 31 33  1  0
 27 34  1  0
 34 35  2  0
 34 36  1  0
 36 37  1  0
 36 38  1  0
  5 39  2  0
 39 40  1  0
 40 41  2  0
 18 13  1  0
 30 25  1  0
 33 11  1  0
 41  3  1  0
M  END
$$$$
