
     RDKit          3D

 41 44  0  0  0  0  0  0  0  0999 V2000
  -12.0247  -34.7947  -11.0491 C   0  0  0  0  0  0  0  0  0  0  0  0
  -13.1774  -35.6960  -11.3565 C   0  0  0  0  0  0  0  0  0  0  0  0
  -12.9433  -37.0771  -10.8522 C   0  0  0  0  0  0  0  0  0  0  0  0
  -13.1631  -37.3989   -9.5112 C   0  0  0  0  0  0  0  0  0  0  0  0
  -12.9448  -38.6805   -9.0569 C   0  0  0  0  0  0  0  0  0  0  0  0
  -13.1969  -38.9661   -7.6203 C   0  0  0  0  0  0  0  0  0  0  0  0
  -14.5769  -39.1951   -7.3452 N   0  0  0  0  0  0  0  0  0  0  0  0
  -15.1365  -40.3903   -7.9394 C   0  0  0  0  0  0  0  0  0  0  0  0
  -15.7130  -40.0422   -9.2522 C   0  0  1  0  0  0  0  0  0  0  0  0
  -15.1676  -40.6867  -10.3470 O   0  0  0  0  0  0  0  0  0  0  0  0
  -17.2225  -40.2392   -9.3813 C   0  0  2  0  0  0  0  0  0  0  0  0
  -17.6569  -40.0861  -10.8237 C   0  0  0  0  0  0  0  0  0  0  0  0
  -18.7116  -39.0258  -11.0176 C   0  0  0  0  0  0  0  0  0  0  0  0
  -20.0435  -39.0597  -10.7274 C   0  0  0  0  0  0  0  0  0  0  0  0
  -20.7919  -37.9195  -11.0104 C   0  0  0  0  0  0  0  0  0  0  0  0
  -20.1674  -36.7832  -11.5757 C   0  0  0  0  0  0  0  0  0  0  0  0
  -18.8294  -36.7316  -11.8736 C   0  0  0  0  0  0  0  0  0  0  0  0
  -18.1245  -37.8675  -11.5843 C   0  0  0  0  0  0  0  0  0  0  0  0
  -22.1384  -37.6903  -10.8183 O   0  0  0  0  0  0  0  0  0  0  0  0
  -23.3412  -38.2772  -11.1317 C   0  0  0  0  0  0  0  0  0  0  0  0
  -24.2276  -38.5384   -9.9387 C   0  0  0  0  0  0  0  0  0  0  0  0
  -23.9190  -39.9451   -9.4246 C   0  0  0  0  0  0  0  0  0  0  0  0
  -24.3632  -40.0277   -7.9960 C   0  0  0  0  0  0  0  0  0  0  0  0
  -23.3882  -40.2947   -7.1096 O   0  0  0  0  0  0  0  0  0  0  0  0
  -22.0527  -40.3558   -6.8448 C   0  0  0  0  0  0  0  0  0  0  0  0
  -21.8019  -41.3301   -5.8478 C   0  0  0  0  0  0  0  0  0  0  0  0
  -20.5536  -41.6191   -5.3691 C   0  0  0  0  0  0  0  0  0  0  0  0
  -19.5400  -40.8881   -5.9294 C   0  0  0  0  0  0  0  0  0  0  0  0
  -19.7291  -39.9031   -6.9290 C   0  0  0  0  0  0  0  0  0  0  0  0
  -20.9918  -39.6426   -7.3807 C   0  0  0  0  0  0  0  0  0  0  0  0
  -18.4148  -39.3174   -7.2909 C   0  0  0  0  0  0  0  0  0  0  0  0
  -17.6792  -38.8334   -6.2955 O   0  0  0  0  0  0  0  0  0  0  0  0
  -17.7647  -39.1674   -8.5247 N   0  0  0  0  0  0  0  0  0  0  0  0
  -20.3110  -42.6250   -4.3429 C   0  0  0  0  0  0  0  0  0  0  0  0
  -19.8860  -43.7365   -4.7403 O   0  0  0  0  0  0  0  0  0  0  0  0
  -20.5202  -42.4272   -2.9641 N   0  0  0  0  0  0  0  0  0  0  0  0
  -20.1328  -43.4360   -2.0113 C   0  0  0  0  0  0  0  0  0  0  0  0
  -21.1291  -41.2079   -2.5031 C   0  0  0  0  0  0  0  0  0  0  0  0
  -12.5226  -39.5920   -9.9254 N   0  0  0  0  0  0  0  0  0  0  0  0
  -12.3094  -39.2920  -11.2119 C   0  0  0  0  0  0  0  0  0  0  0  0
  -12.5203  -38.0481  -11.6586 N   0  0  0  0  0  0  0  0  0  0  0  0
  1  2  1  0
  2  3  1  0
  3  4  2  0
  4  5  1  0
  5  6  1  0
  6  7  1  0
  7  8  1  0
  8  9  1  0
  9 10  1  6
  9 11  1  0
 11 12  1  6
 12 13  1  0
 13 14  2  0
 14 15  1  0
 15 16  2  0
 16 17  1  0
 17 18  2  0
 15 19  1  0
 19 20  1  0
 20 21  1  0
 21 22  1  0
 22 23  1  0
 23 24  1  0
 24 25  1  0
 25 26  2  0
 26 27  1  0
 27 28  2  0
 28 29  1  0
 29 30  2  0
 29 31  1  0
 31 32  2  0
 31 33  1  0
 27 34  1  0
 34 35  2  0
 34 36  1  0
 36 37  1  0
 36 38  1  0
  5 39  2  0
 39 40  1  0
 40 41  2  0
 18 13  1  0
 30 25  1  0
 33 11  1  0
 41  3  1  0
M  END
$$$$
