
     RDKit          3D

 41 44  0  0  0  0  0  0  0  0999 V2000
  -24.7877  -39.8913   -5.6334 C   0  0  0  0  0  0  0  0  0  0  0  0
  -23.6875  -40.5312   -6.4181 C   0  0  0  0  0  0  0  0  0  0  0  0
  -22.5760  -39.5770   -6.6832 C   0  0  0  0  0  0  0  0  0  0  0  0
  -21.4263  -39.5755   -5.8904 C   0  0  0  0  0  0  0  0  0  0  0  0
  -20.4039  -38.6892   -6.1465 C   0  0  0  0  0  0  0  0  0  0  0  0
  -19.2034  -38.7338   -5.2715 C   0  0  0  0  0  0  0  0  0  0  0  0
  -18.5752  -40.0136   -5.2748 N   0  0  0  0  0  0  0  0  0  0  0  0
  -17.1280  -39.9926   -5.2765 C   0  0  0  0  0  0  0  0  0  0  0  0
  -16.6691  -39.0041   -6.2711 C   0  0  1  0  0  0  0  0  0  0  0  0
  -15.8911  -37.9690   -5.7868 O   0  0  0  0  0  0  0  0  0  0  0  0
  -15.8874  -39.5743   -7.4535 C   0  0  2  0  0  0  0  0  0  0  0  0
  -14.7006  -38.6927   -7.7807 C   0  0  0  0  0  0  0  0  0  0  0  0
  -14.6991  -38.2029   -9.2069 C   0  0  0  0  0  0  0  0  0  0  0  0
  -14.3904  -38.8693  -10.3558 C   0  0  0  0  0  0  0  0  0  0  0  0
  -14.4804  -38.1623  -11.5526 C   0  0  0  0  0  0  0  0  0  0  0  0
  -14.8814  -36.8059  -11.5469 C   0  0  0  0  0  0  0  0  0  0  0  0
  -15.1959  -36.1203  -10.4011 C   0  0  0  0  0  0  0  0  0  0  0  0
  -15.0961  -36.8432   -9.2443 C   0  0  0  0  0  0  0  0  0  0  0  0
  -14.2282  -38.5903  -12.8393 O   0  0  0  0  0  0  0  0  0  0  0  0
  -13.2211  -39.2044  -13.5450 C   0  0  0  0  0  0  0  0  0  0  0  0
  -13.6535  -40.4533  -14.2735 C   0  0  0  0  0  0  0  0  0  0  0  0
  -13.4316  -41.6422  -13.3378 C   0  0  0  0  0  0  0  0  0  0  0  0
  -14.3067  -42.7680  -13.7983 C   0  0  0  0  0  0  0  0  0  0  0  0
  -15.2183  -43.1854  -12.9026 O   0  0  0  0  0  0  0  0  0  0  0  0
  -15.9021  -42.9391  -11.7497 C   0  0  0  0  0  0  0  0  0  0  0  0
  -16.2512  -44.1611  -11.1245 C   0  0  0  0  0  0  0  0  0  0  0  0
  -16.9458  -44.2382   -9.9487 C   0  0  0  0  0  0  0  0  0  0  0  0
  -17.2893  -43.0295   -9.4039 C   0  0  0  0  0  0  0  0  0  0  0  0
  -16.9674  -41.7774   -9.9814 C   0  0  0  0  0  0  0  0  0  0  0  0
  -16.2730  -41.7419  -11.1574 C   0  0  0  0  0  0  0  0  0  0  0  0
  -17.5021  -40.6924   -9.1221 C   0  0  0  0  0  0  0  0  0  0  0  0
  -18.7957  -40.7468   -8.8226 O   0  0  0  0  0  0  0  0  0  0  0  0
  -16.8898  -39.5749   -8.5361 N   0  0  0  0  0  0  0  0  0  0  0  0
  -17.2976  -45.5035   -9.3169 C   0  0  0  0  0  0  0  0  0  0  0  0
  -16.4433  -45.9969   -8.5419 O   0  0  0  0  0  0  0  0  0  0  0  0
  -18.5116  -46.1884   -9.5201 N   0  0  0  0  0  0  0  0  0  0  0  0
  -18.7662  -47.4420   -8.8575 C   0  0  0  0  0  0  0  0  0  0  0  0
  -19.5052  -45.6325  -10.3997 C   0  0  0  0  0  0  0  0  0  0  0  0
  -20.5442  -37.8438   -7.1610 N   0  0  0  0  0  0  0  0  0  0  0  0
  -21.6425  -37.8384   -7.9254 C   0  0  0  0  0  0  0  0  0  0  0  0
  -22.6388  -38.6979   -7.6809 N   0  0  0  0  0  0  0  0  0  0  0  0
  1  2  1  0
  2  3  1  0
  3  4  2  0
  4  5  1  0
  5  6  1  0
  6  7  1  0
  7  8  1  0
  8  9  1  0
  9 10  1  1
  9 11  1  0
 11 12  1  6
 12 13  1  0
 13 14  2  0
 14 15  1  0
 15 16  2  0
 16 17  1  0
 17 18  2  0
 15 19  1  0
 19 20  1  0
 20 21  1  0
 21 22  1  0
 22 23  1  0
 23 24  1  0
 24 25  1  0
 25 26  2  0
 26 27  1  0
 27 28  2  0
 28 29  1  0
 29 30  2  0
 29 31  1  0
 31 32  2  0
 31 33  1  0
 27 34  1  0
 34 35  2  0
 34 36  1  0
 36 37  1  0
 36 38  1  0
  5 39  2  0
 39 40  1  0
 40 41  2  0
 18 13  1  0
 30 25  1  0
 33 11  1  0
 41  3  1  0
M  END
$$$$
