
     RDKit          3D

 39 42  0  0  0  0  0  0  0  0999 V2000
  -14.6450  -36.1928  -12.6529 C   0  0  0  0  0  0  0  0  0  0  0  0
  -13.2447  -36.6138  -13.0563 C   0  0  0  0  0  0  0  0  0  0  0  0
  -13.1702  -36.5950  -14.5523 C   0  0  0  0  0  0  0  0  0  0  0  0
  -12.2998  -35.5409  -12.5033 C   0  0  0  0  0  0  0  0  0  0  0  0
  -12.9130  -37.9368  -12.4751 C   0  0  0  0  0  0  0  0  0  0  0  0
  -11.9019  -38.6533  -13.0788 C   0  0  0  0  0  0  0  0  0  0  0  0
  -11.5955  -39.8892  -12.5333 C   0  0  0  0  0  0  0  0  0  0  0  0
  -12.2480  -40.3782  -11.4634 N   0  0  0  0  0  0  0  0  0  0  0  0
  -13.2430  -39.6933  -10.8550 C   0  0  0  0  0  0  0  0  0  0  0  0
  -13.8904  -40.3179   -9.6938 C   0  0  0  0  0  0  0  0  0  0  0  0
  -14.1222  -39.3656   -8.6148 N   0  0  0  0  0  0  0  0  0  0  0  0
  -15.3444  -38.6561   -8.9004 C   0  0  0  0  0  0  0  0  0  0  0  0
  -16.2786  -38.6231   -7.7434 C   0  0  1  0  0  0  0  0  0  0  0  0
  -17.0007  -37.4335   -7.7513 O   0  0  0  0  0  0  0  0  0  0  0  0
  -17.2138  -39.7984   -7.6441 C   0  0  2  0  0  0  0  0  0  0  0  0
  -18.0874  -39.8004   -6.4294 C   0  0  0  0  0  0  0  0  0  0  0  0
  -19.5414  -39.5239   -6.6652 C   0  0  0  0  0  0  0  0  0  0  0  0
  -19.8998  -38.2760   -6.0911 C   0  0  0  0  0  0  0  0  0  0  0  0
  -21.1597  -37.7511   -6.1327 C   0  0  0  0  0  0  0  0  0  0  0  0
  -22.0926  -38.5223   -6.7813 C   0  0  0  0  0  0  0  0  0  0  0  0
  -21.7895  -39.7642   -7.3651 C   0  0  0  0  0  0  0  0  0  0  0  0
  -20.4932  -40.2688   -7.3057 C   0  0  0  0  0  0  0  0  0  0  0  0
  -22.9104  -40.3213   -7.9448 O   0  0  0  0  0  0  0  0  0  0  0  0
  -23.6659  -41.4404   -7.9131 C   0  0  0  0  0  0  0  0  0  0  0  0
  -23.0501  -42.7732   -7.5409 C   0  0  0  0  0  0  0  0  0  0  0  0
  -22.3413  -43.1743   -6.5527 C   0  0  0  0  0  0  0  0  0  0  0  0
  -21.7203  -44.5002   -6.1670 C   0  0  0  0  0  0  0  0  0  0  0  0
  -20.7483  -44.9944   -7.0690 N   0  0  0  0  0  0  0  0  0  0  0  0
  -19.6665  -44.3363   -7.7709 C   0  0  0  0  0  0  0  0  0  0  0  0
  -18.6431  -43.5356   -7.3451 C   0  0  0  0  0  0  0  0  0  0  0  0
  -17.7815  -43.0824   -8.3332 C   0  0  0  0  0  0  0  0  0  0  0  0
  -18.0021  -43.4643   -9.6832 C   0  0  0  0  0  0  0  0  0  0  0  0
  -19.0389  -44.2712  -10.0861 C   0  0  0  0  0  0  0  0  0  0  0  0
  -19.2653  -44.7118  -11.7679 Cl  0  0  0  0  0  0  0  0  0  0  0  0
  -19.8318  -44.6764   -9.1146 N   0  0  0  0  0  0  0  0  0  0  0  0
  -16.6075  -42.2092   -8.2745 C   0  0  0  0  0  0  0  0  0  0  0  0
  -15.5752  -42.6315   -8.9659 O   0  0  0  0  0  0  0  0  0  0  0  0
  -16.3630  -40.9824   -7.6134 N   0  0  0  0  0  0  0  0  0  0  0  0
  -13.5661  -38.4662  -11.3758 C   0  0  0  0  0  0  0  0  0  0  0  0
  1  2  1  0
  2  3  1  0
  2  4  1  0
  2  5  1  0
  5  6  2  0
  6  7  1  0
  7  8  2  0
  8  9  1  0
  9 10  1  0
 10 11  1  0
 11 12  1  0
 12 13  1  0
 13 14  1  6
 13 15  1  0
 15 16  1  1
 16 17  1  0
 17 18  2  0
 18 19  1  0
 19 20  2  0
 20 21  1  0
 21 22  2  0
 21 23  1  0
 23 24  1  0
 24 25  1  0
 25 26  2  0
 26 27  1  0
 27 28  1  0
 28 29  1  0
 29 30  2  0
 30 31  1  0
 31 32  2  0
 32 33  1  0
 33 34  1  0
 33 35  2  0
 31 36  1  0
 36 37  2  0
 36 38  1  0
  9 39  2  0
 22 17  1  0
 35 29  1  0
 38 15  1  0
 39  5  1  0
M  END
$$$$
