
     RDKit          3D

 39 42  0  0  0  0  0  0  0  0999 V2000
  -12.1773  -35.4930  -12.4020 C   0  0  0  0  0  0  0  0  0  0  0  0
  -13.6306  -35.9268  -12.3732 C   0  0  0  0  0  0  0  0  0  0  0  0
  -14.3494  -35.0660  -11.3801 C   0  0  0  0  0  0  0  0  0  0  0  0
  -14.1906  -35.6379  -13.7707 C   0  0  0  0  0  0  0  0  0  0  0  0
  -13.7341  -37.3743  -12.0694 C   0  0  0  0  0  0  0  0  0  0  0  0
  -14.0338  -38.2170  -13.1183 C   0  0  0  0  0  0  0  0  0  0  0  0
  -14.1304  -39.5686  -12.8303 C   0  0  0  0  0  0  0  0  0  0  0  0
  -13.9423  -40.0483  -11.5877 N   0  0  0  0  0  0  0  0  0  0  0  0
  -13.6475  -39.2406  -10.5437 C   0  0  0  0  0  0  0  0  0  0  0  0
  -13.4616  -39.8667   -9.2280 C   0  0  0  0  0  0  0  0  0  0  0  0
  -14.7179  -40.0027   -8.5011 N   0  0  0  0  0  0  0  0  0  0  0  0
  -15.4059  -38.7370   -8.5582 C   0  0  0  0  0  0  0  0  0  0  0  0
  -16.3651  -38.5482   -7.4372 C   0  0  1  0  0  0  0  0  0  0  0  0
  -17.0420  -37.3421   -7.5906 O   0  0  0  0  0  0  0  0  0  0  0  0
  -17.3456  -39.6732   -7.2395 C   0  0  2  0  0  0  0  0  0  0  0  0
  -18.3692  -39.4297   -6.1758 C   0  0  0  0  0  0  0  0  0  0  0  0
  -19.7697  -39.1922   -6.6537 C   0  0  0  0  0  0  0  0  0  0  0  0
  -20.1562  -37.8529   -6.3845 C   0  0  0  0  0  0  0  0  0  0  0  0
  -21.3810  -37.3354   -6.6955 C   0  0  0  0  0  0  0  0  0  0  0  0
  -22.2478  -38.2107   -7.3025 C   0  0  0  0  0  0  0  0  0  0  0  0
  -21.9147  -39.5454   -7.5897 C   0  0  0  0  0  0  0  0  0  0  0  0
  -20.6554  -40.0398   -7.2604 C   0  0  0  0  0  0  0  0  0  0  0  0
  -22.9694  -40.1955   -8.1962 O   0  0  0  0  0  0  0  0  0  0  0  0
  -23.7610  -41.2801   -8.0510 C   0  0  0  0  0  0  0  0  0  0  0  0
  -23.2454  -42.5195   -7.3494 C   0  0  0  0  0  0  0  0  0  0  0  0
  -22.6855  -42.7255   -6.2163 C   0  0  0  0  0  0  0  0  0  0  0  0
  -22.1664  -43.9555   -5.5022 C   0  0  0  0  0  0  0  0  0  0  0  0
  -21.1031  -44.6252   -6.1529 N   0  0  0  0  0  0  0  0  0  0  0  0
  -19.9171  -44.1266   -6.8169 C   0  0  0  0  0  0  0  0  0  0  0  0
  -18.9305  -43.2670   -6.4199 C   0  0  0  0  0  0  0  0  0  0  0  0
  -17.9325  -43.0235   -7.3520 C   0  0  0  0  0  0  0  0  0  0  0  0
  -17.9888  -43.6605   -8.6202 C   0  0  0  0  0  0  0  0  0  0  0  0
  -18.9918  -44.5216   -8.9954 C   0  0  0  0  0  0  0  0  0  0  0  0
  -19.0127  -45.2811  -10.5755 Cl  0  0  0  0  0  0  0  0  0  0  0  0
  -19.9179  -44.7218   -8.0795 N   0  0  0  0  0  0  0  0  0  0  0  0
  -16.7465  -42.1659   -7.3057 C   0  0  0  0  0  0  0  0  0  0  0  0
  -15.6483  -42.7244   -7.7576 O   0  0  0  0  0  0  0  0  0  0  0  0
  -16.5476  -40.8356   -6.8669 N   0  0  0  0  0  0  0  0  0  0  0  0
  -13.5461  -37.8974  -10.8022 C   0  0  0  0  0  0  0  0  0  0  0  0
  1  2  1  0
  2  3  1  0
  2  4  1  0
  2  5  1  0
  5  6  2  0
  6  7  1  0
  7  8  2  0
  8  9  1  0
  9 10  1  0
 10 11  1  0
 11 12  1  0
 12 13  1  0
 13 14  1  6
 13 15  1  0
 15 16  1  1
 16 17  1  0
 17 18  2  0
 18 19  1  0
 19 20  2  0
 20 21  1  0
 21 22  2  0
 21 23  1  0
 23 24  1  0
 24 25  1  0
 25 26  2  0
 26 27  1  0
 27 28  1  0
 28 29  1  0
 29 30  2  0
 30 31  1  0
 31 32  2  0
 32 33  1  0
 33 34  1  0
 33 35  2  0
 31 36  1  0
 36 37  2  0
 36 38  1  0
  9 39  2  0
 22 17  1  0
 35 29  1  0
 38 15  1  0
 39  5  1  0
M  END
$$$$
