
     RDKit          3D

 39 42  0  0  0  0  0  0  0  0999 V2000
  -17.0992  -34.3290  -12.5503 C   0  0  0  0  0  0  0  0  0  0  0  0
  -16.3688  -35.6277  -12.2660 C   0  0  0  0  0  0  0  0  0  0  0  0
  -16.7188  -36.6007  -13.3498 C   0  0  0  0  0  0  0  0  0  0  0  0
  -14.8729  -35.3058  -12.3584 C   0  0  0  0  0  0  0  0  0  0  0  0
  -16.7026  -36.1245  -10.9096 C   0  0  0  0  0  0  0  0  0  0  0  0
  -18.0356  -36.1484  -10.5591 C   0  0  0  0  0  0  0  0  0  0  0  0
  -18.3435  -36.6125   -9.2907 C   0  0  0  0  0  0  0  0  0  0  0  0
  -17.3935  -37.0237   -8.4316 N   0  0  0  0  0  0  0  0  0  0  0  0
  -16.0800  -37.0091   -8.7536 C   0  0  0  0  0  0  0  0  0  0  0  0
  -15.1244  -37.4796   -7.7421 C   0  0  0  0  0  0  0  0  0  0  0  0
  -14.4769  -38.7254   -8.1343 N   0  0  0  0  0  0  0  0  0  0  0  0
  -15.0598  -39.7940   -7.3616 C   0  0  0  0  0  0  0  0  0  0  0  0
  -15.9989  -40.6343   -8.1517 C   0  0  1  0  0  0  0  0  0  0  0  0
  -15.6517  -41.9763   -8.0293 O   0  0  0  0  0  0  0  0  0  0  0  0
  -17.4560  -40.4424   -7.8262 C   0  0  2  0  0  0  0  0  0  0  0  0
  -18.2040  -39.5811   -8.7943 C   0  0  0  0  0  0  0  0  0  0  0  0
  -19.1883  -40.2868   -9.6771 C   0  0  0  0  0  0  0  0  0  0  0  0
  -18.7474  -40.2499  -11.0260 C   0  0  0  0  0  0  0  0  0  0  0  0
  -19.4354  -40.8014  -12.0687 C   0  0  0  0  0  0  0  0  0  0  0  0
  -20.6170  -41.4137  -11.7299 C   0  0  0  0  0  0  0  0  0  0  0  0
  -21.0981  -41.4768  -10.4110 C   0  0  0  0  0  0  0  0  0  0  0  0
  -20.3695  -40.9051   -9.3712 C   0  0  0  0  0  0  0  0  0  0  0  0
  -22.3037  -42.1449  -10.3591 O   0  0  0  0  0  0  0  0  0  0  0  0
  -23.5808  -41.9817   -9.9510 C   0  0  0  0  0  0  0  0  0  0  0  0
  -23.9061  -41.0601   -8.7938 C   0  0  0  0  0  0  0  0  0  0  0  0
  -23.6221  -39.8398   -8.5288 C   0  0  0  0  0  0  0  0  0  0  0  0
  -23.9397  -38.9067   -7.3795 C   0  0  0  0  0  0  0  0  0  0  0  0
  -23.4243  -39.3030   -6.1226 N   0  0  0  0  0  0  0  0  0  0  0  0
  -22.1366  -39.8423   -5.7392 C   0  0  0  0  0  0  0  0  0  0  0  0
  -20.8560  -39.4164   -5.9590 C   0  0  0  0  0  0  0  0  0  0  0  0
  -19.8554  -40.2142   -5.4236 C   0  0  0  0  0  0  0  0  0  0  0  0
  -20.2058  -41.3856   -4.7010 C   0  0  0  0  0  0  0  0  0  0  0  0
  -21.5018  -41.7924   -4.4932 C   0  0  0  0  0  0  0  0  0  0  0  0
  -21.8786  -43.2490   -3.5930 Cl  0  0  0  0  0  0  0  0  0  0  0  0
  -22.4180  -41.0054   -5.0204 N   0  0  0  0  0  0  0  0  0  0  0  0
  -18.3960  -40.1026   -5.4645 C   0  0  0  0  0  0  0  0  0  0  0  0
  -17.7978  -40.3127   -4.3155 O   0  0  0  0  0  0  0  0  0  0  0  0
  -17.4902  -39.8116   -6.5118 N   0  0  0  0  0  0  0  0  0  0  0  0
  -15.7482  -36.5539  -10.0042 C   0  0  0  0  0  0  0  0  0  0  0  0
  1  2  1  0
  2  3  1  0
  2  4  1  0
  2  5  1  0
  5  6  2  0
  6  7  1  0
  7  8  2  0
  8  9  1  0
  9 10  1  0
 10 11  1  0
 11 12  1  0
 12 13  1  0
 13 14  1  1
 13 15  1  0
 15 16  1  6
 16 17  1  0
 17 18  2  0
 18 19  1  0
 19 20  2  0
 20 21  1  0
 21 22  2  0
 21 23  1  0
 23 24  1  0
 24 25  1  0
 25 26  2  0
 26 27  1  0
 27 28  1  0
 28 29  1  0
 29 30  2  0
 30 31  1  0
 31 32  2  0
 32 33  1  0
 33 34  1  0
 33 35  2  0
 31 36  1  0
 36 37  2  0
 36 38  1  0
  9 39  2  0
 22 17  1  0
 35 29  1  0
 38 15  1  0
 39  5  1  0
M  END
$$$$
