
     RDKit          3D

 39 42  0  0  0  0  0  0  0  0999 V2000
  -23.2627  -36.9697   -7.9461 C   0  0  0  0  0  0  0  0  0  0  0  0
  -21.7781  -36.9748   -7.6346 C   0  0  0  0  0  0  0  0  0  0  0  0
  -21.3744  -35.5744   -7.2887 C   0  0  0  0  0  0  0  0  0  0  0  0
  -21.6049  -37.8574   -6.3932 C   0  0  0  0  0  0  0  0  0  0  0  0
  -21.0111  -37.5359   -8.7726 C   0  0  0  0  0  0  0  0  0  0  0  0
  -21.6209  -38.5241   -9.5155 C   0  0  0  0  0  0  0  0  0  0  0  0
  -20.9009  -39.0464  -10.5774 C   0  0  0  0  0  0  0  0  0  0  0  0
  -19.6624  -38.6168  -10.8795 N   0  0  0  0  0  0  0  0  0  0  0  0
  -19.0446  -37.6488  -10.1649 C   0  0  0  0  0  0  0  0  0  0  0  0
  -17.6920  -37.2530  -10.5792 C   0  0  0  0  0  0  0  0  0  0  0  0
  -16.8758  -36.8203   -9.4515 N   0  0  0  0  0  0  0  0  0  0  0  0
  -16.6955  -37.9484   -8.5720 C   0  0  0  0  0  0  0  0  0  0  0  0
  -15.8124  -38.9971   -9.1489 C   0  0  1  0  0  0  0  0  0  0  0  0
  -14.6689  -39.1358   -8.3681 O   0  0  0  0  0  0  0  0  0  0  0  0
  -16.4650  -40.3373   -9.3580 C   0  0  2  0  0  0  0  0  0  0  0  0
  -15.8835  -41.1478  -10.4732 C   0  0  0  0  0  0  0  0  0  0  0  0
  -15.0902  -42.3523  -10.0658 C   0  0  0  0  0  0  0  0  0  0  0  0
  -13.7207  -42.1668  -10.3904 C   0  0  0  0  0  0  0  0  0  0  0  0
  -12.7475  -43.0940  -10.1498 C   0  0  0  0  0  0  0  0  0  0  0  0
  -13.1804  -44.2548   -9.5574 C   0  0  0  0  0  0  0  0  0  0  0  0
  -14.5239  -44.4880   -9.2173 C   0  0  0  0  0  0  0  0  0  0  0  0
  -15.4904  -43.5195   -9.4754 C   0  0  0  0  0  0  0  0  0  0  0  0
  -14.6760  -45.7317   -8.6404 O   0  0  0  0  0  0  0  0  0  0  0  0
  -15.3640  -46.8843   -8.7898 C   0  0  0  0  0  0  0  0  0  0  0  0
  -16.7360  -46.8828   -9.4316 C   0  0  0  0  0  0  0  0  0  0  0  0
  -17.1966  -46.4172  -10.5321 C   0  0  0  0  0  0  0  0  0  0  0  0
  -18.5619  -46.4083  -11.1864 C   0  0  0  0  0  0  0  0  0  0  0  0
  -19.5682  -45.7184  -10.4696 N   0  0  0  0  0  0  0  0  0  0  0  0
  -19.5510  -44.4523   -9.7677 C   0  0  0  0  0  0  0  0  0  0  0  0
  -19.1705  -43.1941  -10.1444 C   0  0  0  0  0  0  0  0  0  0  0  0
  -19.3009  -42.2098   -9.1758 C   0  0  0  0  0  0  0  0  0  0  0  0
  -19.8068  -42.5522   -7.8936 C   0  0  0  0  0  0  0  0  0  0  0  0
  -20.1832  -43.8255   -7.5393 C   0  0  0  0  0  0  0  0  0  0  0  0
  -20.8017  -44.1935   -5.9406 Cl  0  0  0  0  0  0  0  0  0  0  0  0
  -20.0408  -44.7272   -8.4898 N   0  0  0  0  0  0  0  0  0  0  0  0
  -18.9857  -40.7800   -9.1934 C   0  0  0  0  0  0  0  0  0  0  0  0
  -19.9126  -40.0079   -8.6768 O   0  0  0  0  0  0  0  0  0  0  0  0
  -17.8635  -40.0559   -9.6609 N   0  0  0  0  0  0  0  0  0  0  0  0
  -19.7363  -37.1147   -9.1077 C   0  0  0  0  0  0  0  0  0  0  0  0
  1  2  1  0
  2  3  1  0
  2  4  1  0
  2  5  1  0
  5  6  2  0
  6  7  1  0
  7  8  2  0
  8  9  1  0
  9 10  1  0
 10 11  1  0
 11 12  1  0
 12 13  1  0
 13 14  1  1
 13 15  1  0
 15 16  1  6
 16 17  1  0
 17 18  2  0
 18 19  1  0
 19 20  2  0
 20 21  1  0
 21 22  2  0
 21 23  1  0
 23 24  1  0
 24 25  1  0
 25 26  2  0
 26 27  1  0
 27 28  1  0
 28 29  1  0
 29 30  2  0
 30 31  1  0
 31 32  2  0
 32 33  1  0
 33 34  1  0
 33 35  2  0
 31 36  1  0
 36 37  2  0
 36 38  1  0
  9 39  2  0
 22 17  1  0
 35 29  1  0
 38 15  1  0
 39  5  1  0
M  END
$$$$
