
     RDKit          3D

 39 42  0  0  0  0  0  0  0  0999 V2000
  -17.4904  -37.3711  -13.4298 C   0  0  0  0  0  0  0  0  0  0  0  0
  -16.8178  -36.0789  -13.0070 C   0  0  0  0  0  0  0  0  0  0  0  0
  -16.5180  -35.2887  -14.2438 C   0  0  0  0  0  0  0  0  0  0  0  0
  -17.8503  -35.3128  -12.1722 C   0  0  0  0  0  0  0  0  0  0  0  0
  -15.6115  -36.3640  -12.1935 C   0  0  0  0  0  0  0  0  0  0  0  0
  -14.6655  -35.3657  -12.1003 C   0  0  0  0  0  0  0  0  0  0  0  0
  -13.5396  -35.6361  -11.3400 C   0  0  0  0  0  0  0  0  0  0  0  0
  -13.3664  -36.8154  -10.7164 N   0  0  0  0  0  0  0  0  0  0  0  0
  -14.2807  -37.8090  -10.7936 C   0  0  0  0  0  0  0  0  0  0  0  0
  -13.9940  -39.0574  -10.0747 C   0  0  0  0  0  0  0  0  0  0  0  0
  -15.1174  -39.4890   -9.2521 N   0  0  0  0  0  0  0  0  0  0  0  0
  -14.8301  -39.1366   -7.8839 C   0  0  0  0  0  0  0  0  0  0  0  0
  -16.0572  -38.9059   -7.0755 C   0  0  1  0  0  0  0  0  0  0  0  0
  -16.7841  -37.8462   -7.6094 O   0  0  0  0  0  0  0  0  0  0  0  0
  -16.9439  -40.1100   -6.9030 C   0  0  2  0  0  0  0  0  0  0  0  0
  -17.7470  -40.1183   -5.6406 C   0  0  0  0  0  0  0  0  0  0  0  0
  -19.2207  -39.8955   -5.7979 C   0  0  0  0  0  0  0  0  0  0  0  0
  -19.5893  -38.6497   -5.2257 C   0  0  0  0  0  0  0  0  0  0  0  0
  -20.8671  -38.1685   -5.2045 C   0  0  0  0  0  0  0  0  0  0  0  0
  -21.8077  -38.9830   -5.7856 C   0  0  0  0  0  0  0  0  0  0  0  0
  -21.4951  -40.2248   -6.3644 C   0  0  0  0  0  0  0  0  0  0  0  0
  -20.1806  -40.6842   -6.3703 C   0  0  0  0  0  0  0  0  0  0  0  0
  -22.6268  -40.8303   -6.8697 O   0  0  0  0  0  0  0  0  0  0  0  0
  -23.3400  -41.9734   -6.7759 C   0  0  0  0  0  0  0  0  0  0  0  0
  -22.6582  -43.2774   -6.4167 C   0  0  0  0  0  0  0  0  0  0  0  0
  -21.8813  -43.6355   -5.4637 C   0  0  0  0  0  0  0  0  0  0  0  0
  -21.1939  -44.9321   -5.0914 C   0  0  0  0  0  0  0  0  0  0  0  0
  -20.2577  -45.4104   -6.0387 N   0  0  0  0  0  0  0  0  0  0  0  0
  -19.2407  -44.7296   -6.8123 C   0  0  0  0  0  0  0  0  0  0  0  0
  -18.2233  -43.8869   -6.4592 C   0  0  0  0  0  0  0  0  0  0  0  0
  -17.4350  -43.4238   -7.5024 C   0  0  0  0  0  0  0  0  0  0  0  0
  -17.7180  -43.8385   -8.8309 C   0  0  0  0  0  0  0  0  0  0  0  0
  -18.7471  -44.6875   -9.1602 C   0  0  0  0  0  0  0  0  0  0  0  0
  -19.0525  -45.1674  -10.8186 Cl  0  0  0  0  0  0  0  0  0  0  0  0
  -19.4695  -45.1005   -8.1384 N   0  0  0  0  0  0  0  0  0  0  0  0
  -16.2907  -42.5105   -7.5256 C   0  0  0  0  0  0  0  0  0  0  0  0
  -15.2849  -42.9108   -8.2674 O   0  0  0  0  0  0  0  0  0  0  0  0
  -16.0521  -41.2638   -6.9005 N   0  0  0  0  0  0  0  0  0  0  0  0
  -15.4052  -37.5666  -11.5407 C   0  0  0  0  0  0  0  0  0  0  0  0
  1  2  1  0
  2  3  1  0
  2  4  1  0
  2  5  1  0
  5  6  2  0
  6  7  1  0
  7  8  2  0
  8  9  1  0
  9 10  1  0
 10 11  1  0
 11 12  1  0
 12 13  1  0
 13 14  1  6
 13 15  1  0
 15 16  1  1
 16 17  1  0
 17 18  2  0
 18 19  1  0
 19 20  2  0
 20 21  1  0
 21 22  2  0
 21 23  1  0
 23 24  1  0
 24 25  1  0
 25 26  2  0
 26 27  1  0
 27 28  1  0
 28 29  1  0
 29 30  2  0
 30 31  1  0
 31 32  2  0
 32 33  1  0
 33 34  1  0
 33 35  2  0
 31 36  1  0
 36 37  2  0
 36 38  1  0
  9 39  2  0
 22 17  1  0
 35 29  1  0
 38 15  1  0
 39  5  1  0
M  END
$$$$
