
     RDKit          3D

 39 42  0  0  0  0  0  0  0  0999 V2000
  -11.5690  -36.5221  -13.0313 C   0  0  0  0  0  0  0  0  0  0  0  0
  -12.9307  -36.5731  -12.3649 C   0  0  0  0  0  0  0  0  0  0  0  0
  -13.0065  -35.4443  -11.3831 C   0  0  0  0  0  0  0  0  0  0  0  0
  -13.9593  -36.3292  -13.4750 C   0  0  0  0  0  0  0  0  0  0  0  0
  -13.1543  -37.9000  -11.7424 C   0  0  0  0  0  0  0  0  0  0  0  0
  -13.0960  -39.0007  -12.5702 C   0  0  0  0  0  0  0  0  0  0  0  0
  -13.3062  -40.2386  -11.9851 C   0  0  0  0  0  0  0  0  0  0  0  0
  -13.5565  -40.3728  -10.6702 N   0  0  0  0  0  0  0  0  0  0  0  0
  -13.6184  -39.3075   -9.8392 C   0  0  0  0  0  0  0  0  0  0  0  0
  -13.8980  -39.5644   -8.4202 C   0  0  0  0  0  0  0  0  0  0  0  0
  -14.2393  -38.3454   -7.6972 N   0  0  0  0  0  0  0  0  0  0  0  0
  -15.6300  -38.0551   -7.9431 C   0  0  0  0  0  0  0  0  0  0  0  0
  -16.5437  -38.7644   -7.0080 C   0  0  1  0  0  0  0  0  0  0  0  0
  -17.0823  -37.8619   -6.0959 O   0  0  0  0  0  0  0  0  0  0  0  0
  -17.6417  -39.5565   -7.6659 C   0  0  2  0  0  0  0  0  0  0  0  0
  -18.5265  -40.3035   -6.7185 C   0  0  0  0  0  0  0  0  0  0  0  0
  -19.9206  -39.7748   -6.5659 C   0  0  0  0  0  0  0  0  0  0  0  0
  -20.1029  -39.2509   -5.2591 C   0  0  0  0  0  0  0  0  0  0  0  0
  -21.2721  -38.7044   -4.8129 C   0  0  0  0  0  0  0  0  0  0  0  0
  -22.2963  -38.6893   -5.7275 C   0  0  0  0  0  0  0  0  0  0  0  0
  -22.1676  -39.1958   -7.0321 C   0  0  0  0  0  0  0  0  0  0  0  0
  -20.9598  -39.7446   -7.4548 C   0  0  0  0  0  0  0  0  0  0  0  0
  -23.3478  -39.0555   -7.7323 O   0  0  0  0  0  0  0  0  0  0  0  0
  -24.2587  -39.7815   -8.4159 C   0  0  0  0  0  0  0  0  0  0  0  0
  -23.8499  -41.0552   -9.1264 C   0  0  0  0  0  0  0  0  0  0  0  0
  -23.2239  -42.1103   -8.7593 C   0  0  0  0  0  0  0  0  0  0  0  0
  -22.8093  -43.3891   -9.4558 C   0  0  0  0  0  0  0  0  0  0  0  0
  -21.9046  -43.2225  -10.5311 N   0  0  0  0  0  0  0  0  0  0  0  0
  -20.7268  -42.3931  -10.6758 C   0  0  0  0  0  0  0  0  0  0  0  0
  -19.6050  -42.2425   -9.9087 C   0  0  0  0  0  0  0  0  0  0  0  0
  -18.6700  -41.3329  -10.3804 C   0  0  0  0  0  0  0  0  0  0  0  0
  -18.9211  -40.6360  -11.5922 C   0  0  0  0  0  0  0  0  0  0  0  0
  -20.0575  -40.8055  -12.3461 C   0  0  0  0  0  0  0  0  0  0  0  0
  -20.3173  -39.9181  -13.8357 Cl  0  0  0  0  0  0  0  0  0  0  0  0
  -20.9172  -41.6775  -11.8591 N   0  0  0  0  0  0  0  0  0  0  0  0
  -17.3825  -40.8924   -9.8396 C   0  0  0  0  0  0  0  0  0  0  0  0
  -16.4112  -40.8288  -10.7197 O   0  0  0  0  0  0  0  0  0  0  0  0
  -16.9730  -40.5141   -8.5392 N   0  0  0  0  0  0  0  0  0  0  0  0
  -13.4138  -38.0697  -10.3938 C   0  0  0  0  0  0  0  0  0  0  0  0
  1  2  1  0
  2  3  1  0
  2  4  1  0
  2  5  1  0
  5  6  2  0
  6  7  1  0
  7  8  2  0
  8  9  1  0
  9 10  1  0
 10 11  1  0
 11 12  1  0
 12 13  1  0
 13 14  1  1
 13 15  1  0
 15 16  1  1
 16 17  1  0
 17 18  2  0
 18 19  1  0
 19 20  2  0
 20 21  1  0
 21 22  2  0
 21 23  1  0
 23 24  1  0
 24 25  1  0
 25 26  2  0
 26 27  1  0
 27 28  1  0
 28 29  1  0
 29 30  2  0
 30 31  1  0
 31 32  2  0
 32 33  1  0
 33 34  1  0
 33 35  2  0
 31 36  1  0
 36 37  2  0
 36 38  1  0
  9 39  2  0
 22 17  1  0
 35 29  1  0
 38 15  1  0
 39  5  1  0
M  END
$$$$
