
     RDKit          3D

 39 42  0  0  0  0  0  0  0  0999 V2000
  -16.5871  -35.8917  -12.7416 C   0  0  0  0  0  0  0  0  0  0  0  0
  -15.1983  -35.3182  -12.5336 C   0  0  0  0  0  0  0  0  0  0  0  0
  -14.5249  -35.2440  -13.8695 C   0  0  0  0  0  0  0  0  0  0  0  0
  -15.3992  -33.8936  -12.0042 C   0  0  0  0  0  0  0  0  0  0  0  0
  -14.4445  -36.1291  -11.5475 C   0  0  0  0  0  0  0  0  0  0  0  0
  -13.0688  -36.0994  -11.6293 C   0  0  0  0  0  0  0  0  0  0  0  0
  -12.3680  -36.8590  -10.7069 C   0  0  0  0  0  0  0  0  0  0  0  0
  -12.9908  -37.5959   -9.7695 N   0  0  0  0  0  0  0  0  0  0  0  0
  -14.3389  -37.6403   -9.6703 C   0  0  0  0  0  0  0  0  0  0  0  0
  -14.9179  -38.4766   -8.6106 C   0  0  0  0  0  0  0  0  0  0  0  0
  -15.7997  -39.5077   -9.1436 N   0  0  0  0  0  0  0  0  0  0  0  0
  -15.1189  -40.7744   -9.0403 C   0  0  0  0  0  0  0  0  0  0  0  0
  -16.0202  -41.9362   -9.2648 C   0  0  1  0  0  0  0  0  0  0  0  0
  -15.5478  -43.0441   -8.5676 O   0  0  0  0  0  0  0  0  0  0  0  0
  -17.4688  -41.6935   -8.9355 C   0  0  2  0  0  0  0  0  0  0  0  0
  -18.4392  -42.3789   -9.8450 C   0  0  0  0  0  0  0  0  0  0  0  0
  -19.1954  -43.5292   -9.2523 C   0  0  0  0  0  0  0  0  0  0  0  0
  -18.7974  -44.7441   -9.8696 C   0  0  0  0  0  0  0  0  0  0  0  0
  -19.3143  -45.9670   -9.5499 C   0  0  0  0  0  0  0  0  0  0  0  0
  -20.2726  -45.9570   -8.5663 C   0  0  0  0  0  0  0  0  0  0  0  0
  -20.7020  -44.7825   -7.9252 C   0  0  0  0  0  0  0  0  0  0  0  0
  -20.1519  -43.5521   -8.2748 C   0  0  0  0  0  0  0  0  0  0  0  0
  -21.6708  -45.0625   -6.9841 O   0  0  0  0  0  0  0  0  0  0  0  0
  -22.9378  -44.7362   -6.6486 C   0  0  0  0  0  0  0  0  0  0  0  0
  -23.4961  -43.3704   -6.9907 C   0  0  0  0  0  0  0  0  0  0  0  0
  -23.5634  -42.6886   -8.0727 C   0  0  0  0  0  0  0  0  0  0  0  0
  -24.1176  -41.3257   -8.4300 C   0  0  0  0  0  0  0  0  0  0  0  0
  -23.4979  -40.2340   -7.7769 N   0  0  0  0  0  0  0  0  0  0  0  0
  -22.1063  -39.9425   -7.5033 C   0  0  0  0  0  0  0  0  0  0  0  0
  -20.9993  -39.8946   -8.3045 C   0  0  0  0  0  0  0  0  0  0  0  0
  -19.8092  -39.5720   -7.6693 C   0  0  0  0  0  0  0  0  0  0  0  0
  -19.8085  -39.3164   -6.2722 C   0  0  0  0  0  0  0  0  0  0  0  0
  -20.9357  -39.3706   -5.4881 C   0  0  0  0  0  0  0  0  0  0  0  0
  -20.8783  -39.0461   -3.7661 Cl  0  0  0  0  0  0  0  0  0  0  0  0
  -22.0418  -39.6818   -6.1335 N   0  0  0  0  0  0  0  0  0  0  0  0
  -18.4404  -39.4457   -8.1738 C   0  0  0  0  0  0  0  0  0  0  0  0
  -17.7947  -38.3858   -7.7475 O   0  0  0  0  0  0  0  0  0  0  0  0
  -17.6644  -40.2521   -9.0395 N   0  0  0  0  0  0  0  0  0  0  0  0
  -15.0566  -36.8967  -10.5722 C   0  0  0  0  0  0  0  0  0  0  0  0
  1  2  1  0
  2  3  1  0
  2  4  1  0
  2  5  1  0
  5  6  2  0
  6  7  1  0
  7  8  2  0
  8  9  1  0
  9 10  1  0
 10 11  1  0
 11 12  1  0
 12 13  1  0
 13 14  1  1
 13 15  1  0
 15 16  1  6
 16 17  1  0
 17 18  2  0
 18 19  1  0
 19 20  2  0
 20 21  1  0
 21 22  2  0
 21 23  1  0
 23 24  1  0
 24 25  1  0
 25 26  2  0
 26 27  1  0
 27 28  1  0
 28 29  1  0
 29 30  2  0
 30 31  1  0
 31 32  2  0
 32 33  1  0
 33 34  1  0
 33 35  2  0
 31 36  1  0
 36 37  2  0
 36 38  1  0
  9 39  2  0
 22 17  1  0
 35 29  1  0
 38 15  1  0
 39  5  1  0
M  END
$$$$
