
     RDKit          3D

 39 42  0  0  0  0  0  0  0  0999 V2000
  -23.4276  -39.9957   -3.2553 C   0  0  0  0  0  0  0  0  0  0  0  0
  -23.2993  -40.3965   -4.7126 C   0  0  0  0  0  0  0  0  0  0  0  0
  -24.6416  -40.8678   -5.1815 C   0  0  0  0  0  0  0  0  0  0  0  0
  -22.9321  -39.1192   -5.4765 C   0  0  0  0  0  0  0  0  0  0  0  0
  -22.2355  -41.4159   -4.8786 C   0  0  0  0  0  0  0  0  0  0  0  0
  -22.6373  -42.7271   -5.0183 C   0  0  0  0  0  0  0  0  0  0  0  0
  -21.6405  -43.6766   -5.1723 C   0  0  0  0  0  0  0  0  0  0  0  0
  -20.3366  -43.3460   -5.1864 N   0  0  0  0  0  0  0  0  0  0  0  0
  -19.9192  -42.0667   -5.0511 C   0  0  0  0  0  0  0  0  0  0  0  0
  -18.4724  -41.8143   -5.0803 C   0  0  0  0  0  0  0  0  0  0  0  0
  -18.0895  -40.9344   -6.1777 N   0  0  0  0  0  0  0  0  0  0  0  0
  -17.1494  -39.9676   -5.6675 C   0  0  0  0  0  0  0  0  0  0  0  0
  -16.2361  -39.4390   -6.7157 C   0  0  1  0  0  0  0  0  0  0  0  0
  -14.9951  -40.0613   -6.6207 O   0  0  0  0  0  0  0  0  0  0  0  0
  -16.7585  -39.5331   -8.1243 C   0  0  2  0  0  0  0  0  0  0  0  0
  -17.7011  -38.4388   -8.5151 C   0  0  0  0  0  0  0  0  0  0  0  0
  -17.1733  -37.4359   -9.4958 C   0  0  0  0  0  0  0  0  0  0  0  0
  -17.0321  -36.1696   -8.8699 C   0  0  0  0  0  0  0  0  0  0  0  0
  -16.5805  -35.0497   -9.5076 C   0  0  0  0  0  0  0  0  0  0  0  0
  -16.2604  -35.2209  -10.8321 C   0  0  0  0  0  0  0  0  0  0  0  0
  -16.3831  -36.4522  -11.4982 C   0  0  0  0  0  0  0  0  0  0  0  0
  -16.8453  -37.5748  -10.8164 C   0  0  0  0  0  0  0  0  0  0  0  0
  -15.9964  -36.3379  -12.8174 O   0  0  0  0  0  0  0  0  0  0  0  0
  -16.4568  -36.5417  -14.0706 C   0  0  0  0  0  0  0  0  0  0  0  0
  -17.4953  -37.6099  -14.3436 C   0  0  0  0  0  0  0  0  0  0  0  0
  -18.6389  -37.8815  -13.8352 C   0  0  0  0  0  0  0  0  0  0  0  0
  -19.6865  -38.9427  -14.0972 C   0  0  0  0  0  0  0  0  0  0  0  0
  -19.2649  -40.2740  -13.8681 N   0  0  0  0  0  0  0  0  0  0  0  0
  -18.4836  -40.8641  -12.8015 C   0  0  0  0  0  0  0  0  0  0  0  0
  -18.6078  -40.8307  -11.4402 C   0  0  0  0  0  0  0  0  0  0  0  0
  -17.6462  -41.5342  -10.7299 C   0  0  0  0  0  0  0  0  0  0  0  0
  -16.6245  -42.2268  -11.4324 C   0  0  0  0  0  0  0  0  0  0  0  0
  -16.5215  -42.2455  -12.8026 C   0  0  0  0  0  0  0  0  0  0  0  0
  -15.2384  -43.1174  -13.6196 Cl  0  0  0  0  0  0  0  0  0  0  0  0
  -17.4549  -41.5632  -13.4351 N   0  0  0  0  0  0  0  0  0  0  0  0
  -17.4363  -41.7134   -9.2919 C   0  0  0  0  0  0  0  0  0  0  0  0
  -17.1716  -42.9456   -8.9260 O   0  0  0  0  0  0  0  0  0  0  0  0
  -17.4602  -40.8090   -8.2041 N   0  0  0  0  0  0  0  0  0  0  0  0
  -20.8868  -41.1067   -4.8970 C   0  0  0  0  0  0  0  0  0  0  0  0
  1  2  1  0
  2  3  1  0
  2  4  1  0
  2  5  1  0
  5  6  2  0
  6  7  1  0
  7  8  2  0
  8  9  1  0
  9 10  1  0
 10 11  1  0
 11 12  1  0
 12 13  1  0
 13 14  1  6
 13 15  1  0
 15 16  1  1
 16 17  1  0
 17 18  2  0
 18 19  1  0
 19 20  2  0
 20 21  1  0
 21 22  2  0
 21 23  1  0
 23 24  1  0
 24 25  1  0
 25 26  2  0
 26 27  1  0
 27 28  1  0
 28 29  1  0
 29 30  2  0
 30 31  1  0
 31 32  2  0
 32 33  1  0
 33 34  1  0
 33 35  2  0
 31 36  1  0
 36 37  2  0
 36 38  1  0
  9 39  2  0
 22 17  1  0
 35 29  1  0
 38 15  1  0
 39  5  1  0
M  END
$$$$
