
     RDKit          3D

 39 42  0  0  0  0  0  0  0  0999 V2000
  -13.2804  -35.4443  -11.7124 C   0  0  0  0  0  0  0  0  0  0  0  0
  -12.6360  -36.4665  -12.6293 C   0  0  0  0  0  0  0  0  0  0  0  0
  -13.0930  -36.1849  -14.0278 C   0  0  0  0  0  0  0  0  0  0  0  0
  -11.1249  -36.2219  -12.5471 C   0  0  0  0  0  0  0  0  0  0  0  0
  -12.9570  -37.8423  -12.1795 C   0  0  0  0  0  0  0  0  0  0  0  0
  -13.1133  -38.8028  -13.1558 C   0  0  0  0  0  0  0  0  0  0  0  0
  -13.4140  -40.0867  -12.7316 C   0  0  0  0  0  0  0  0  0  0  0  0
  -13.5497  -40.3941  -11.4290 N   0  0  0  0  0  0  0  0  0  0  0  0
  -13.4010  -39.4685  -10.4541 C   0  0  0  0  0  0  0  0  0  0  0  0
  -13.5703  -39.9095   -9.0632 C   0  0  0  0  0  0  0  0  0  0  0  0
  -14.2370  -38.9042   -8.2447 N   0  0  0  0  0  0  0  0  0  0  0  0
  -15.6243  -38.8595   -8.6345 C   0  0  0  0  0  0  0  0  0  0  0  0
  -16.5441  -38.6707   -7.4809 C   0  0  1  0  0  0  0  0  0  0  0  0
  -17.2487  -37.4796   -7.6266 O   0  0  0  0  0  0  0  0  0  0  0  0
  -17.4952  -39.8101   -7.2295 C   0  0  2  0  0  0  0  0  0  0  0  0
  -18.2809  -39.6992   -5.9610 C   0  0  0  0  0  0  0  0  0  0  0  0
  -19.7416  -39.4020   -6.1168 C   0  0  0  0  0  0  0  0  0  0  0  0
  -20.0317  -38.1061   -5.6151 C   0  0  0  0  0  0  0  0  0  0  0  0
  -21.2798  -37.5521   -5.6097 C   0  0  0  0  0  0  0  0  0  0  0  0
  -22.2725  -38.3438   -6.1330 C   0  0  0  0  0  0  0  0  0  0  0  0
  -22.0381  -39.6330   -6.6410 C   0  0  0  0  0  0  0  0  0  0  0  0
  -20.7519  -40.1663   -6.6326 C   0  0  0  0  0  0  0  0  0  0  0  0
  -23.2087  -40.2010   -7.0988 O   0  0  0  0  0  0  0  0  0  0  0  0
  -23.9841  -41.2941   -6.9312 C   0  0  0  0  0  0  0  0  0  0  0  0
  -23.3725  -42.6119   -6.5028 C   0  0  0  0  0  0  0  0  0  0  0  0
  -22.6048  -42.9580   -5.5380 C   0  0  0  0  0  0  0  0  0  0  0  0
  -21.9870  -44.2680   -5.0970 C   0  0  0  0  0  0  0  0  0  0  0  0
  -21.0917  -44.8532   -6.0237 N   0  0  0  0  0  0  0  0  0  0  0  0
  -20.0481  -44.2777   -6.8457 C   0  0  0  0  0  0  0  0  0  0  0  0
  -18.9802  -43.4756   -6.5525 C   0  0  0  0  0  0  0  0  0  0  0  0
  -18.1806  -43.1196   -7.6286 C   0  0  0  0  0  0  0  0  0  0  0  0
  -18.5038  -43.5938   -8.9278 C   0  0  0  0  0  0  0  0  0  0  0  0
  -19.5836  -44.4002   -9.1967 C   0  0  0  0  0  0  0  0  0  0  0  0
  -19.9372  -44.9572  -10.8211 Cl  0  0  0  0  0  0  0  0  0  0  0  0
  -20.3148  -44.7113   -8.1454 N   0  0  0  0  0  0  0  0  0  0  0  0
  -16.9869  -42.2761   -7.7165 C   0  0  0  0  0  0  0  0  0  0  0  0
  -16.0151  -42.7757   -8.4432 O   0  0  0  0  0  0  0  0  0  0  0  0
  -16.6700  -41.0110   -7.1680 N   0  0  0  0  0  0  0  0  0  0  0  0
  -13.1028  -38.1889  -10.8477 C   0  0  0  0  0  0  0  0  0  0  0  0
  1  2  1  0
  2  3  1  0
  2  4  1  0
  2  5  1  0
  5  6  2  0
  6  7  1  0
  7  8  2  0
  8  9  1  0
  9 10  1  0
 10 11  1  0
 11 12  1  0
 12 13  1  0
 13 14  1  6
 13 15  1  0
 15 16  1  1
 16 17  1  0
 17 18  2  0
 18 19  1  0
 19 20  2  0
 20 21  1  0
 21 22  2  0
 21 23  1  0
 23 24  1  0
 24 25  1  0
 25 26  2  0
 26 27  1  0
 27 28  1  0
 28 29  1  0
 29 30  2  0
 30 31  1  0
 31 32  2  0
 32 33  1  0
 33 34  1  0
 33 35  2  0
 31 36  1  0
 36 37  2  0
 36 38  1  0
  9 39  2  0
 22 17  1  0
 35 29  1  0
 38 15  1  0
 39  5  1  0
M  END
$$$$
