
     RDKit          3D

 39 42  0  0  0  0  0  0  0  0999 V2000
  -23.3215  -38.5380   -6.1002 C   0  0  0  0  0  0  0  0  0  0  0  0
  -23.4504  -39.7537   -5.2022 C   0  0  0  0  0  0  0  0  0  0  0  0
  -23.2547  -39.3045   -3.7866 C   0  0  0  0  0  0  0  0  0  0  0  0
  -24.8902  -40.2543   -5.3646 C   0  0  0  0  0  0  0  0  0  0  0  0
  -22.4925  -40.8073   -5.6148 C   0  0  0  0  0  0  0  0  0  0  0  0
  -22.9720  -41.8076   -6.4332 C   0  0  0  0  0  0  0  0  0  0  0  0
  -22.0742  -42.7907   -6.8159 C   0  0  0  0  0  0  0  0  0  0  0  0
  -20.7906  -42.7800   -6.4136 N   0  0  0  0  0  0  0  0  0  0  0  0
  -20.2982  -41.8092   -5.6109 C   0  0  0  0  0  0  0  0  0  0  0  0
  -18.8819  -41.8918   -5.2303 C   0  0  0  0  0  0  0  0  0  0  0  0
  -18.2919  -40.5759   -5.0170 N   0  0  0  0  0  0  0  0  0  0  0  0
  -17.1596  -40.4460   -5.9001 C   0  0  0  0  0  0  0  0  0  0  0  0
  -17.3810  -39.4506   -6.9829 C   0  0  1  0  0  0  0  0  0  0  0  0
  -16.8824  -38.2104   -6.5959 O   0  0  0  0  0  0  0  0  0  0  0  0
  -16.8272  -39.8368   -8.3283 C   0  0  2  0  0  0  0  0  0  0  0  0
  -17.4906  -39.1695   -9.4916 C   0  0  0  0  0  0  0  0  0  0  0  0
  -16.6772  -38.1331  -10.2061 C   0  0  0  0  0  0  0  0  0  0  0  0
  -17.2457  -36.8471  -10.0106 C   0  0  0  0  0  0  0  0  0  0  0  0
  -16.7354  -35.6984  -10.5445 C   0  0  0  0  0  0  0  0  0  0  0  0
  -15.6048  -35.8607  -11.3068 C   0  0  0  0  0  0  0  0  0  0  0  0
  -15.0038  -37.1110  -11.5316 C   0  0  0  0  0  0  0  0  0  0  0  0
  -15.5499  -38.2622  -10.9700 C   0  0  0  0  0  0  0  0  0  0  0  0
  -13.8877  -36.9829  -12.3320 O   0  0  0  0  0  0  0  0  0  0  0  0
  -13.3666  -37.4375  -13.4922 C   0  0  0  0  0  0  0  0  0  0  0  0
  -13.7244  -38.8162  -14.0074 C   0  0  0  0  0  0  0  0  0  0  0  0
  -14.8335  -39.4195  -14.2215 C   0  0  0  0  0  0  0  0  0  0  0  0
  -15.2066  -40.7938  -14.7357 C   0  0  0  0  0  0  0  0  0  0  0  0
  -14.7692  -41.8752  -13.9346 N   0  0  0  0  0  0  0  0  0  0  0  0
  -14.7684  -42.0691  -12.4999 C   0  0  0  0  0  0  0  0  0  0  0  0
  -15.7511  -41.9654  -11.5548 C   0  0  0  0  0  0  0  0  0  0  0  0
  -15.3633  -42.2336  -10.2503 C   0  0  0  0  0  0  0  0  0  0  0  0
  -14.0154  -42.5905   -9.9802 C   0  0  0  0  0  0  0  0  0  0  0  0
  -13.0455  -42.6885  -10.9487 C   0  0  0  0  0  0  0  0  0  0  0  0
  -11.3947  -43.1331  -10.5597 Cl  0  0  0  0  0  0  0  0  0  0  0  0
  -13.4588  -42.4238  -12.1718 N   0  0  0  0  0  0  0  0  0  0  0  0
  -16.1074  -42.2078   -8.9894 C   0  0  0  0  0  0  0  0  0  0  0  0
  -15.8942  -43.2387   -8.2059 O   0  0  0  0  0  0  0  0  0  0  0  0
  -17.0211  -41.2779   -8.4396 N   0  0  0  0  0  0  0  0  0  0  0  0
  -21.1670  -40.8234   -5.2175 C   0  0  0  0  0  0  0  0  0  0  0  0
  1  2  1  0
  2  3  1  0
  2  4  1  0
  2  5  1  0
  5  6  2  0
  6  7  1  0
  7  8  2  0
  8  9  1  0
  9 10  1  0
 10 11  1  0
 11 12  1  0
 12 13  1  0
 13 14  1  1
 13 15  1  0
 15 16  1  6
 16 17  1  0
 17 18  2  0
 18 19  1  0
 19 20  2  0
 20 21  1  0
 21 22  2  0
 21 23  1  0
 23 24  1  0
 24 25  1  0
 25 26  2  0
 26 27  1  0
 27 28  1  0
 28 29  1  0
 29 30  2  0
 30 31  1  0
 31 32  2  0
 32 33  1  0
 33 34  1  0
 33 35  2  0
 31 36  1  0
 36 37  2  0
 36 38  1  0
  9 39  2  0
 22 17  1  0
 35 29  1  0
 38 15  1  0
 39  5  1  0
M  END
$$$$
