
     RDKit          3D

 39 42  0  0  0  0  0  0  0  0999 V2000
  -24.1036  -38.3489   -8.2857 C   0  0  0  0  0  0  0  0  0  0  0  0
  -23.3400  -38.6454   -7.0090 C   0  0  0  0  0  0  0  0  0  0  0  0
  -22.9391  -37.3384   -6.3969 C   0  0  0  0  0  0  0  0  0  0  0  0
  -24.3307  -39.3444   -6.0709 C   0  0  0  0  0  0  0  0  0  0  0  0
  -22.1864  -39.5337   -7.2889 C   0  0  0  0  0  0  0  0  0  0  0  0
  -22.2228  -40.2619   -8.4588 C   0  0  0  0  0  0  0  0  0  0  0  0
  -21.1435  -41.0912   -8.7164 C   0  0  0  0  0  0  0  0  0  0  0  0
  -20.1019  -41.1896   -7.8709 N   0  0  0  0  0  0  0  0  0  0  0  0
  -20.0446  -40.4851   -6.7178 C   0  0  0  0  0  0  0  0  0  0  0  0
  -18.8618  -40.6661   -5.8658 C   0  0  0  0  0  0  0  0  0  0  0  0
  -18.1080  -39.4293   -5.7011 N   0  0  0  0  0  0  0  0  0  0  0  0
  -16.8875  -39.5461   -6.4597 C   0  0  0  0  0  0  0  0  0  0  0  0
  -16.9187  -38.7721   -7.7294 C   0  0  1  0  0  0  0  0  0  0  0  0
  -16.3887  -37.5020   -7.5234 O   0  0  0  0  0  0  0  0  0  0  0  0
  -16.2404  -39.4352   -8.8983 C   0  0  2  0  0  0  0  0  0  0  0  0
  -16.7001  -38.9581  -10.2398 C   0  0  0  0  0  0  0  0  0  0  0  0
  -15.7224  -38.1240  -11.0110 C   0  0  0  0  0  0  0  0  0  0  0  0
  -16.2010  -36.7923  -11.1249 C   0  0  0  0  0  0  0  0  0  0  0  0
  -15.5356  -35.7963  -11.7806 C   0  0  0  0  0  0  0  0  0  0  0  0
  -14.3386  -36.1656  -12.3433 C   0  0  0  0  0  0  0  0  0  0  0  0
  -13.8215  -37.4697  -12.2601 C   0  0  0  0  0  0  0  0  0  0  0  0
  -14.5259  -38.4609  -11.5817 C   0  0  0  0  0  0  0  0  0  0  0  0
  -12.6100  -37.5605  -12.9133 O   0  0  0  0  0  0  0  0  0  0  0  0
  -11.9923  -38.2541  -13.8939 C   0  0  0  0  0  0  0  0  0  0  0  0
  -12.3991  -39.6807  -14.1998 C   0  0  0  0  0  0  0  0  0  0  0  0
  -13.5207  -40.2457  -14.4503 C   0  0  0  0  0  0  0  0  0  0  0  0
  -13.9425  -41.6668  -14.7580 C   0  0  0  0  0  0  0  0  0  0  0  0
  -13.6971  -42.6040  -13.7265 N   0  0  0  0  0  0  0  0  0  0  0  0
  -13.8861  -42.5264  -12.2932 C   0  0  0  0  0  0  0  0  0  0  0  0
  -14.9638  -42.1893  -11.5220 C   0  0  0  0  0  0  0  0  0  0  0  0
  -14.7604  -42.2321  -10.1506 C   0  0  0  0  0  0  0  0  0  0  0  0
  -13.4896  -42.6126   -9.6431 C   0  0  0  0  0  0  0  0  0  0  0  0
  -12.4213  -42.9477  -10.4398 C   0  0  0  0  0  0  0  0  0  0  0  0
  -10.8727  -43.4102   -9.7601 Cl  0  0  0  0  0  0  0  0  0  0  0  0
  -12.6601  -42.8916  -11.7346 N   0  0  0  0  0  0  0  0  0  0  0  0
  -15.6467  -41.9267   -9.0257 C   0  0  0  0  0  0  0  0  0  0  0  0
  -15.6167  -42.8042   -8.0504 O   0  0  0  0  0  0  0  0  0  0  0  0
  -16.5393  -40.8574   -8.7772 N   0  0  0  0  0  0  0  0  0  0  0  0
  -21.1012  -39.6561   -6.4390 C   0  0  0  0  0  0  0  0  0  0  0  0
  1  2  1  0
  2  3  1  0
  2  4  1  0
  2  5  1  0
  5  6  2  0
  6  7  1  0
  7  8  2  0
  8  9  1  0
  9 10  1  0
 10 11  1  0
 11 12  1  0
 12 13  1  0
 13 14  1  1
 13 15  1  0
 15 16  1  6
 16 17  1  0
 17 18  2  0
 18 19  1  0
 19 20  2  0
 20 21  1  0
 21 22  2  0
 21 23  1  0
 23 24  1  0
 24 25  1  0
 25 26  2  0
 26 27  1  0
 27 28  1  0
 28 29  1  0
 29 30  2  0
 30 31  1  0
 31 32  2  0
 32 33  1  0
 33 34  1  0
 33 35  2  0
 31 36  1  0
 36 37  2  0
 36 38  1  0
  9 39  2  0
 22 17  1  0
 35 29  1  0
 38 15  1  0
 39  5  1  0
M  END
$$$$
