
     RDKit          3D

 39 42  0  0  0  0  0  0  0  0999 V2000
  -12.0724  -34.6644  -13.2446 C   0  0  0  0  0  0  0  0  0  0  0  0
  -13.2482  -35.5418  -12.8590 C   0  0  0  0  0  0  0  0  0  0  0  0
  -14.2298  -34.6945  -12.1092 C   0  0  0  0  0  0  0  0  0  0  0  0
  -13.8930  -35.9946  -14.1740 C   0  0  0  0  0  0  0  0  0  0  0  0
  -12.7856  -36.7181  -12.0841 C   0  0  0  0  0  0  0  0  0  0  0  0
  -11.4239  -36.8968  -11.9653 C   0  0  0  0  0  0  0  0  0  0  0  0
  -10.9956  -37.9974  -11.2412 C   0  0  0  0  0  0  0  0  0  0  0  0
  -11.8597  -38.8593  -10.6755 N   0  0  0  0  0  0  0  0  0  0  0  0
  -13.1993  -38.7040  -10.7789 C   0  0  0  0  0  0  0  0  0  0  0  0
  -14.0544  -39.7024  -10.1234 C   0  0  0  0  0  0  0  0  0  0  0  0
  -15.4710  -39.4556  -10.3627 N   0  0  0  0  0  0  0  0  0  0  0  0
  -15.9378  -38.5280   -9.3625 C   0  0  0  0  0  0  0  0  0  0  0  0
  -15.9104  -39.0962   -7.9882 C   0  0  1  0  0  0  0  0  0  0  0  0
  -16.0735  -38.0799   -7.0518 O   0  0  0  0  0  0  0  0  0  0  0  0
  -16.9006  -40.2012   -7.7342 C   0  0  2  0  0  0  0  0  0  0  0  0
  -17.7218  -40.0310   -6.4951 C   0  0  0  0  0  0  0  0  0  0  0  0
  -19.1680  -39.6987   -6.7058 C   0  0  0  0  0  0  0  0  0  0  0  0
  -19.4367  -38.3809   -6.2513 C   0  0  0  0  0  0  0  0  0  0  0  0
  -20.6682  -37.7931   -6.3016 C   0  0  0  0  0  0  0  0  0  0  0  0
  -21.6661  -38.5725   -6.8330 C   0  0  0  0  0  0  0  0  0  0  0  0
  -21.4528  -39.8822   -7.2957 C   0  0  0  0  0  0  0  0  0  0  0  0
  -20.1831  -40.4501   -7.2311 C   0  0  0  0  0  0  0  0  0  0  0  0
  -22.6243  -40.4314   -7.7739 O   0  0  0  0  0  0  0  0  0  0  0  0
  -23.4351  -41.4974   -7.5995 C   0  0  0  0  0  0  0  0  0  0  0  0
  -22.8746  -42.8181   -7.1138 C   0  0  0  0  0  0  0  0  0  0  0  0
  -22.1472  -43.1561   -6.1156 C   0  0  0  0  0  0  0  0  0  0  0  0
  -21.5807  -44.4688   -5.6174 C   0  0  0  0  0  0  0  0  0  0  0  0
  -20.6741  -45.1057   -6.4978 N   0  0  0  0  0  0  0  0  0  0  0  0
  -19.5896  -44.5837   -7.3026 C   0  0  0  0  0  0  0  0  0  0  0  0
  -18.5090  -43.8027   -6.9990 C   0  0  0  0  0  0  0  0  0  0  0  0
  -17.6668  -43.5010   -8.0590 C   0  0  0  0  0  0  0  0  0  0  0  0
  -17.9629  -44.0047   -9.3535 C   0  0  0  0  0  0  0  0  0  0  0  0
  -19.0562  -44.7889   -9.6331 C   0  0  0  0  0  0  0  0  0  0  0  0
  -19.3749  -45.3843  -11.2511 Cl  0  0  0  0  0  0  0  0  0  0  0  0
  -19.8281  -45.0484   -8.5970 N   0  0  0  0  0  0  0  0  0  0  0  0
  -16.4475  -42.6936   -8.1333 C   0  0  0  0  0  0  0  0  0  0  0  0
  -15.4682  -43.2410   -8.8140 O   0  0  0  0  0  0  0  0  0  0  0  0
  -16.1121  -41.4218   -7.6118 N   0  0  0  0  0  0  0  0  0  0  0  0
  -13.6497  -37.6217  -11.4910 C   0  0  0  0  0  0  0  0  0  0  0  0
  1  2  1  0
  2  3  1  0
  2  4  1  0
  2  5  1  0
  5  6  2  0
  6  7  1  0
  7  8  2  0
  8  9  1  0
  9 10  1  0
 10 11  1  0
 11 12  1  0
 12 13  1  0
 13 14  1  1
 13 15  1  0
 15 16  1  1
 16 17  1  0
 17 18  2  0
 18 19  1  0
 19 20  2  0
 20 21  1  0
 21 22  2  0
 21 23  1  0
 23 24  1  0
 24 25  1  0
 25 26  2  0
 26 27  1  0
 27 28  1  0
 28 29  1  0
 29 30  2  0
 30 31  1  0
 31 32  2  0
 32 33  1  0
 33 34  1  0
 33 35  2  0
 31 36  1  0
 36 37  2  0
 36 38  1  0
  9 39  2  0
 22 17  1  0
 35 29  1  0
 38 15  1  0
 39  5  1  0
M  END
$$$$
