
     RDKit          3D

 39 42  0  0  0  0  0  0  0  0999 V2000
  -13.3284  -33.7390  -11.7405 C   0  0  0  0  0  0  0  0  0  0  0  0
  -13.9689  -34.9268  -12.4335 C   0  0  0  0  0  0  0  0  0  0  0  0
  -15.4537  -34.7313  -12.4061 C   0  0  0  0  0  0  0  0  0  0  0  0
  -13.4933  -34.8792  -13.8900 C   0  0  0  0  0  0  0  0  0  0  0  0
  -13.5381  -36.1939  -11.7954 C   0  0  0  0  0  0  0  0  0  0  0  0
  -12.2177  -36.2869  -11.4105 C   0  0  0  0  0  0  0  0  0  0  0  0
  -11.8189  -37.4726  -10.8155 C   0  0  0  0  0  0  0  0  0  0  0  0
  -12.6722  -38.4934  -10.6172 N   0  0  0  0  0  0  0  0  0  0  0  0
  -13.9715  -38.4247  -10.9866 C   0  0  0  0  0  0  0  0  0  0  0  0
  -14.8182  -39.5960  -10.7244 C   0  0  0  0  0  0  0  0  0  0  0  0
  -15.2238  -39.6798   -9.3267 N   0  0  0  0  0  0  0  0  0  0  0  0
  -16.4294  -38.9058   -9.1645 C   0  0  0  0  0  0  0  0  0  0  0  0
  -16.9421  -38.9183   -7.7684 C   0  0  1  0  0  0  0  0  0  0  0  0
  -17.6952  -37.7728   -7.5298 O   0  0  0  0  0  0  0  0  0  0  0  0
  -17.7266  -40.1451   -7.3872 C   0  0  2  0  0  0  0  0  0  0  0  0
  -18.3246  -40.1030   -6.0163 C   0  0  0  0  0  0  0  0  0  0  0  0
  -19.8147  -39.9550   -5.9537 C   0  0  0  0  0  0  0  0  0  0  0  0
  -20.1565  -38.6905   -5.4063 C   0  0  0  0  0  0  0  0  0  0  0  0
  -21.4395  -38.2643   -5.2138 C   0  0  0  0  0  0  0  0  0  0  0  0
  -22.4137  -39.1558   -5.5906 C   0  0  0  0  0  0  0  0  0  0  0  0
  -22.1284  -40.4192   -6.1359 C   0  0  0  0  0  0  0  0  0  0  0  0
  -20.8080  -40.8209   -6.3203 C   0  0  0  0  0  0  0  0  0  0  0  0
  -23.2906  -41.1055   -6.4203 O   0  0  0  0  0  0  0  0  0  0  0  0
  -23.9193  -42.2694   -6.1477 C   0  0  0  0  0  0  0  0  0  0  0  0
  -23.1223  -43.5157   -5.8224 C   0  0  0  0  0  0  0  0  0  0  0  0
  -22.1903  -43.7750   -4.9834 C   0  0  0  0  0  0  0  0  0  0  0  0
  -21.3861  -45.0128   -4.6466 C   0  0  0  0  0  0  0  0  0  0  0  0
  -20.5826  -45.5130   -5.6986 N   0  0  0  0  0  0  0  0  0  0  0  0
  -19.7341  -44.8427   -6.6614 C   0  0  0  0  0  0  0  0  0  0  0  0
  -18.7207  -43.9352   -6.5232 C   0  0  0  0  0  0  0  0  0  0  0  0
  -18.1277  -43.5098   -7.7029 C   0  0  0  0  0  0  0  0  0  0  0  0
  -18.5891  -44.0249   -8.9434 C   0  0  0  0  0  0  0  0  0  0  0  0
  -19.6102  -44.9376   -9.0559 C   0  0  0  0  0  0  0  0  0  0  0  0
  -20.1410  -45.5408  -10.6142 Cl  0  0  0  0  0  0  0  0  0  0  0  0
  -20.1441  -45.3116   -7.9105 N   0  0  0  0  0  0  0  0  0  0  0  0
  -17.0506  -42.5518   -7.9598 C   0  0  0  0  0  0  0  0  0  0  0  0
  -16.1510  -42.9575   -8.8248 O   0  0  0  0  0  0  0  0  0  0  0  0
  -16.7851  -41.2567   -7.4556 N   0  0  0  0  0  0  0  0  0  0  0  0
  -14.3921  -37.2609  -11.5783 C   0  0  0  0  0  0  0  0  0  0  0  0
  1  2  1  0
  2  3  1  0
  2  4  1  0
  2  5  1  0
  5  6  2  0
  6  7  1  0
  7  8  2  0
  8  9  1  0
  9 10  1  0
 10 11  1  0
 11 12  1  0
 12 13  1  0
 13 14  1  6
 13 15  1  0
 15 16  1  1
 16 17  1  0
 17 18  2  0
 18 19  1  0
 19 20  2  0
 20 21  1  0
 21 22  2  0
 21 23  1  0
 23 24  1  0
 24 25  1  0
 25 26  2  0
 26 27  1  0
 27 28  1  0
 28 29  1  0
 29 30  2  0
 30 31  1  0
 31 32  2  0
 32 33  1  0
 33 34  1  0
 33 35  2  0
 31 36  1  0
 36 37  2  0
 36 38  1  0
  9 39  2  0
 22 17  1  0
 35 29  1  0
 38 15  1  0
 39  5  1  0
M  END
$$$$
